MODEL 1
REMARK VINA RESULT:      -6.4      0.000      0.000
REMARK  Name = 
REMARK  28 active torsions:
REMARK  status: ('A' for Active; 'I' for Inactive)
REMARK    1  A    between atoms: C_1  and  C_2
REMARK    2  A    between atoms: C_2  and  C_3
REMARK    3  A    between atoms: C_2  and  C_4
REMARK    4  A    between atoms: C_2  and  C_40
REMARK    5  A    between atoms: C_4  and  O_5
REMARK    6  A    between atoms: O_5  and  P_6
REMARK    7  A    between atoms: P_6  and  O_7
REMARK    8  A    between atoms: P_6  and  O_9
REMARK    9  A    between atoms: O_9  and  P_10
REMARK   10  A    between atoms: P_10  and  O_11
REMARK   11  A    between atoms: P_10  and  O_13
REMARK   12  A    between atoms: O_13  and  C_14
REMARK   13  A    between atoms: C_14  and  C_15
REMARK   14  A    between atoms: C_18  and  N_30
REMARK   15  A    between atoms: C_20  and  O_22
REMARK   16  A    between atoms: C_23  and  O_25
REMARK   17  A    between atoms: O_25  and  P_26
REMARK   18  A    between atoms: P_26  and  O_27
REMARK   19  A    between atoms: P_26  and  O_28
REMARK   20  A    between atoms: C_40  and  O_42
REMARK   21  A    between atoms: C_40  and  C_43
REMARK   22  A    between atoms: N_45  and  C_46
REMARK   23  A    between atoms: C_46  and  C_47
REMARK   24  A    between atoms: C_47  and  C_48
REMARK   25  A    between atoms: N_50  and  C_51
REMARK   26  A    between atoms: C_51  and  C_52
REMARK   27  A    between atoms: C_52  and  S_53
REMARK   28  A    between atoms: S_53  and  O_54
REMARK                            x       y       z     vdW  Elec       q    Type
REMARK                         _______ _______ _______ _____ _____    ______ ____
ROOT
ATOM      1  P   UNL     1       7.553  -4.744  26.609  0.00  0.00    +0.483 P 
ATOM      2  O   UNL     1       7.156  -5.032  25.197  0.00  0.00    -0.227 OA
ENDROOT
BRANCH   1   3
ATOM      3  O   UNL     1       9.083  -4.286  26.720  0.00  0.00    -0.302 OA
ATOM      4  H   UNL     1       9.557  -4.569  25.913  0.00  0.00    +0.222 HD
ENDBRANCH   1   3
BRANCH   1   5
ATOM      5  O   UNL     1       7.486  -6.020  27.587  0.00  0.00    -0.186 OA
BRANCH   5   6
ATOM      6  P   UNL     1       6.056  -5.902  28.321  0.00  0.00    +0.483 P 
ATOM      7  O   UNL     1       6.122  -5.319  29.697  0.00  0.00    -0.227 OA
BRANCH   6   8
ATOM      8  O   UNL     1       5.555  -7.426  28.292  0.00  0.00    -0.302 OA
ATOM      9  H   UNL     1       4.603  -7.481  28.082  0.00  0.00    +0.222 HD
ENDBRANCH   6   8
BRANCH   6  10
ATOM     10  O   UNL     1       4.895  -5.211  27.445  0.00  0.00    -0.286 OA
BRANCH  10  11
ATOM     11  C   UNL     1       4.145  -6.211  26.720  0.00  0.00    +0.181 C 
BRANCH  11  13
ATOM     12  C   UNL     1       2.033  -6.900  25.667  0.00  0.00    +0.016 C 
ATOM     13  C   UNL     1       2.837  -5.667  26.129  0.00  0.00    +0.024 C 
ATOM     14  C   UNL     1       2.006  -4.969  27.230  0.00  0.00    +0.016 C 
BRANCH  13  15
ATOM     15  C   UNL     1       3.145  -4.698  24.952  0.00  0.00    +0.208 C 
BRANCH  15  16
ATOM     16  C   UNL     1       3.468  -5.415  23.608  0.00  0.00    +0.242 C 
ATOM     17  N   UNL     1       4.802  -5.733  23.445  0.00  0.00    -0.313 N 
ATOM     18  H   UNL     1       5.347  -5.820  24.297  0.00  0.00    +0.149 HD
ATOM     19  O   UNL     1       2.644  -5.643  22.726  0.00  0.00    -0.273 OA
BRANCH  17  20
ATOM     20  C   UNL     1       5.243  -6.430  22.248  0.00  0.00    +0.113 C 
BRANCH  20  21
ATOM     21  C   UNL     1       6.501  -5.806  21.649  0.00  0.00    +0.114 C 
BRANCH  21  22
ATOM     22  C   UNL     1       6.428  -4.299  21.735  0.00  0.00    +0.215 C 
ATOM     23  N   UNL     1       7.496  -3.719  22.381  0.00  0.00    -0.314 N 
ATOM     24  H   UNL     1       8.156  -4.307  22.875  0.00  0.00    +0.149 HD
ATOM     25  O   UNL     1       5.523  -3.645  21.226  0.00  0.00    -0.276 OA
BRANCH  23  26
ATOM     26  C   UNL     1       7.597  -2.274  22.531  0.00  0.00    +0.117 C 
BRANCH  26  27
ATOM     27  C   UNL     1       8.976  -1.728  22.155  0.00  0.00    +0.118 C 
BRANCH  27  28
ATOM     28  S   UNL     1      10.110  -1.908  23.575  0.00  0.00    -0.010 S 
BRANCH  28  29
ATOM     29  O   UNL     1       9.750  -3.466  24.026  0.00  0.00    -0.329 OA
ATOM     30  H   UNL     1       9.659  -4.050  23.233  0.00  0.00    +0.227 HD
ENDBRANCH  28  29
ENDBRANCH  27  28
ENDBRANCH  26  27
ENDBRANCH  23  26
ENDBRANCH  21  22
ENDBRANCH  20  21
ENDBRANCH  17  20
ENDBRANCH  15  16
BRANCH  15  31
ATOM     31  O   UNL     1       4.226  -3.813  25.263  0.00  0.00    -0.382 OA
ATOM     32  H   UNL     1       4.922  -3.956  24.599  0.00  0.00    +0.210 HD
ENDBRANCH  15  31
ENDBRANCH  13  15
ENDBRANCH  11  13
ENDBRANCH  10  11
ENDBRANCH   6  10
ENDBRANCH   5   6
ENDBRANCH   1   5
BRANCH   1  33
ATOM     33  O   UNL     1       6.786  -3.394  27.125  0.00  0.00    -0.284 OA
BRANCH  33  34
ATOM     34  C   UNL     1       7.191  -2.342  26.222  0.00  0.00    +0.206 C 
BRANCH  34  35
ATOM     35  C   UNL     1       6.359  -1.086  26.058  0.00  0.00    +0.179 C 
ATOM     36  C   UNL     1       5.973  -0.441  27.376  0.00  0.00    +0.194 C 
ATOM     37  C   UNL     1       6.842   0.801  27.442  0.00  0.00    +0.196 C 
ATOM     38  C   UNL     1       7.718   0.740  26.182  0.00  0.00    +0.253 C 
ATOM     39  O   UNL     1       7.065  -0.131  25.264  0.00  0.00    -0.346 OA
BRANCH  38  40
ATOM     40  N   UNL     1       7.891   2.038  25.567  0.00  0.00    -0.286 N 
ATOM     41  C   UNL     1       8.969   2.363  24.797  0.00  0.00    +0.167 A 
ATOM     42  N   UNL     1       9.994   1.564  24.460  0.00  0.00    -0.216 NA
ATOM     43  C   UNL     1      10.889   2.236  23.706  0.00  0.00    +0.225 A 
ATOM     44  N   UNL     1      10.853   3.529  23.319  0.00  0.00    -0.219 NA
ATOM     45  C   UNL     1       9.811   4.294  23.721  0.00  0.00    +0.147 A 
ATOM     46  N   UNL     1       9.789   5.630  23.345  0.00  0.00    -0.341 N 
ATOM     47  H   UNL     1       8.865   6.046  23.380  0.00  0.00    +0.144 HD
ATOM     48  H   UNL     1      10.357   5.810  22.528  0.00  0.00    +0.144 HD
ATOM     49  C   UNL     1       8.793   3.698  24.483  0.00  0.00    +0.147 A 
ATOM     50  N   UNL     1       7.610   4.171  25.015  0.00  0.00    -0.231 NA
ATOM     51  C   UNL     1       7.094   3.144  25.660  0.00  0.00    +0.203 A 
ENDBRANCH  38  40
BRANCH  37  52
ATOM     52  O   UNL     1       7.619   0.761  28.639  0.00  0.00    -0.385 OA
ATOM     53  H   UNL     1       6.983   0.670  29.379  0.00  0.00    +0.210 HD
ENDBRANCH  37  52
BRANCH  36  54
ATOM     54  O   UNL     1       4.583  -0.129  27.292  0.00  0.00    -0.278 OA
BRANCH  54  55
ATOM     55  P   UNL     1       3.486  -1.173  27.816  0.00  0.00    +0.473 P 
ATOM     56  O   UNL     1       2.567  -0.668  28.868  0.00  0.00    -0.228 OA
BRANCH  55  57
ATOM     57  O   UNL     1       2.792  -1.559  26.432  0.00  0.00    -0.303 OA
ATOM     58  H   UNL     1       3.054  -0.955  25.717  0.00  0.00    +0.222 HD
ENDBRANCH  55  57
BRANCH  55  59
ATOM     59  O   UNL     1       4.330  -2.484  28.136  0.00  0.00    -0.303 OA
ATOM     60  H   UNL     1       4.494  -2.650  29.077  0.00  0.00    +0.222 HD
ENDBRANCH  55  59
ENDBRANCH  54  55
ENDBRANCH  36  54
ENDBRANCH  34  35
ENDBRANCH  33  34
ENDBRANCH   1  33
TORSDOF 26
ENDMDL
MODEL 2
REMARK VINA RESULT:      -6.3      1.672      2.224
REMARK  Name = 
REMARK  28 active torsions:
REMARK  status: ('A' for Active; 'I' for Inactive)
REMARK    1  A    between atoms: C_1  and  C_2
REMARK    2  A    between atoms: C_2  and  C_3
REMARK    3  A    between atoms: C_2  and  C_4
REMARK    4  A    between atoms: C_2  and  C_40
REMARK    5  A    between atoms: C_4  and  O_5
REMARK    6  A    between atoms: O_5  and  P_6
REMARK    7  A    between atoms: P_6  and  O_7
REMARK    8  A    between atoms: P_6  and  O_9
REMARK    9  A    between atoms: O_9  and  P_10
REMARK   10  A    between atoms: P_10  and  O_11
REMARK   11  A    between atoms: P_10  and  O_13
REMARK   12  A    between atoms: O_13  and  C_14
REMARK   13  A    between atoms: C_14  and  C_15
REMARK   14  A    between atoms: C_18  and  N_30
REMARK   15  A    between atoms: C_20  and  O_22
REMARK   16  A    between atoms: C_23  and  O_25
REMARK   17  A    between atoms: O_25  and  P_26
REMARK   18  A    between atoms: P_26  and  O_27
REMARK   19  A    between atoms: P_26  and  O_28
REMARK   20  A    between atoms: C_40  and  O_42
REMARK   21  A    between atoms: C_40  and  C_43
REMARK   22  A    between atoms: N_45  and  C_46
REMARK   23  A    between atoms: C_46  and  C_47
REMARK   24  A    between atoms: C_47  and  C_48
REMARK   25  A    between atoms: N_50  and  C_51
REMARK   26  A    between atoms: C_51  and  C_52
REMARK   27  A    between atoms: C_52  and  S_53
REMARK   28  A    between atoms: S_53  and  O_54
REMARK                            x       y       z     vdW  Elec       q    Type
REMARK                         _______ _______ _______ _____ _____    ______ ____
ROOT
ATOM      1  P   UNL     1       7.870  -4.903  26.738  0.00  0.00    +0.483 P 
ATOM      2  O   UNL     1       7.359  -5.210  25.368  0.00  0.00    -0.227 OA
ENDROOT
BRANCH   1   3
ATOM      3  O   UNL     1       9.467  -4.796  26.773  0.00  0.00    -0.302 OA
ATOM      4  H   UNL     1       9.732  -3.919  26.430  0.00  0.00    +0.222 HD
ENDBRANCH   1   3
BRANCH   1   5
ATOM      5  O   UNL     1       7.561  -6.044  27.830  0.00  0.00    -0.186 OA
BRANCH   5   6
ATOM      6  P   UNL     1       5.996  -5.869  28.178  0.00  0.00    +0.483 P 
ATOM      7  O   UNL     1       5.732  -5.059  29.407  0.00  0.00    -0.227 OA
BRANCH   6   8
ATOM      8  O   UNL     1       5.524  -7.397  28.300  0.00  0.00    -0.302 OA
ATOM      9  H   UNL     1       4.584  -7.456  28.561  0.00  0.00    +0.222 HD
ENDBRANCH   6   8
BRANCH   6  10
ATOM     10  O   UNL     1       5.074  -5.389  26.948  0.00  0.00    -0.286 OA
BRANCH  10  11
ATOM     11  C   UNL     1       3.760  -5.983  27.040  0.00  0.00    +0.181 C 
BRANCH  11  13
ATOM     12  C   UNL     1       2.438  -7.675  25.842  0.00  0.00    +0.016 C 
ATOM     13  C   UNL     1       3.159  -6.322  25.669  0.00  0.00    +0.024 C 
ATOM     14  C   UNL     1       2.083  -5.280  25.287  0.00  0.00    +0.016 C 
BRANCH  13  15
ATOM     15  C   UNL     1       4.284  -6.394  24.597  0.00  0.00    +0.208 C 
BRANCH  15  16
ATOM     16  C   UNL     1       4.267  -5.215  23.579  0.00  0.00    +0.242 C 
ATOM     17  N   UNL     1       5.160  -4.204  23.874  0.00  0.00    -0.313 N 
ATOM     18  H   UNL     1       5.954  -4.464  24.451  0.00  0.00    +0.149 HD
ATOM     19  O   UNL     1       3.503  -5.135  22.621  0.00  0.00    -0.273 OA
BRANCH  17  20
ATOM     20  C   UNL     1       5.271  -3.053  22.993  0.00  0.00    +0.113 C 
BRANCH  20  21
ATOM     21  C   UNL     1       6.233  -3.306  21.833  0.00  0.00    +0.114 C 
BRANCH  21  22
ATOM     22  C   UNL     1       7.658  -3.335  22.335  0.00  0.00    +0.215 C 
ATOM     23  N   UNL     1       8.299  -2.118  22.285  0.00  0.00    -0.314 N 
ATOM     24  H   UNL     1       7.861  -1.347  21.794  0.00  0.00    +0.149 HD
ATOM     25  O   UNL     1       8.182  -4.343  22.799  0.00  0.00    -0.276 OA
BRANCH  23  26
ATOM     26  C   UNL     1       9.669  -1.962  22.752  0.00  0.00    +0.117 C 
BRANCH  26  27
ATOM     27  C   UNL     1      10.212  -0.545  22.552  0.00  0.00    +0.118 C 
BRANCH  27  28
ATOM     28  S   UNL     1       9.118   0.371  21.414  0.00  0.00    -0.010 S 
BRANCH  28  29
ATOM     29  O   UNL     1       9.901   1.836  21.390  0.00  0.00    -0.329 OA
ATOM     30  H   UNL     1      10.530   1.912  22.151  0.00  0.00    +0.227 HD
ENDBRANCH  28  29
ENDBRANCH  27  28
ENDBRANCH  26  27
ENDBRANCH  23  26
ENDBRANCH  21  22
ENDBRANCH  20  21
ENDBRANCH  17  20
ENDBRANCH  15  16
BRANCH  15  31
ATOM     31  O   UNL     1       4.239  -7.623  23.865  0.00  0.00    -0.382 OA
ATOM     32  H   UNL     1       3.533  -7.545  23.201  0.00  0.00    +0.210 HD
ENDBRANCH  15  31
ENDBRANCH  13  15
ENDBRANCH  11  13
ENDBRANCH  10  11
ENDBRANCH   6  10
ENDBRANCH   5   6
ENDBRANCH   1   5
BRANCH   1  33
ATOM     33  O   UNL     1       7.448  -3.376  27.147  0.00  0.00    -0.284 OA
BRANCH  33  34
ATOM     34  C   UNL     1       7.735  -2.564  25.987  0.00  0.00    +0.206 C 
BRANCH  34  35
ATOM     35  C   UNL     1       6.834  -1.412  25.593  0.00  0.00    +0.179 C 
ATOM     36  C   UNL     1       6.287  -0.640  26.779  0.00  0.00    +0.194 C 
ATOM     37  C   UNL     1       7.056   0.668  26.748  0.00  0.00    +0.196 C 
ATOM     38  C   UNL     1       8.043   0.521  25.579  0.00  0.00    +0.253 C 
ATOM     39  O   UNL     1       7.537  -0.510  24.737  0.00  0.00    -0.346 OA
BRANCH  38  40
ATOM     40  N   UNL     1       8.176   1.740  24.813  0.00  0.00    -0.286 N 
ATOM     41  C   UNL     1       7.155   2.286  24.092  0.00  0.00    +0.167 A 
ATOM     42  N   UNL     1       5.896   1.829  23.999  0.00  0.00    -0.216 NA
ATOM     43  C   UNL     1       5.168   2.614  23.176  0.00  0.00    +0.225 A 
ATOM     44  N   UNL     1       5.571   3.703  22.488  0.00  0.00    -0.219 NA
ATOM     45  C   UNL     1       6.863   4.093  22.594  0.00  0.00    +0.147 A 
ATOM     46  N   UNL     1       7.282   5.197  21.864  0.00  0.00    -0.341 N 
ATOM     47  H   UNL     1       8.124   5.627  22.228  0.00  0.00    +0.144 HD
ATOM     48  H   UNL     1       6.515   5.803  21.607  0.00  0.00    +0.144 HD
ATOM     49  C   UNL     1       7.714   3.376  23.450  0.00  0.00    +0.147 A 
ATOM     50  N   UNL     1       9.041   3.520  23.803  0.00  0.00    -0.231 NA
ATOM     51  C   UNL     1       9.284   2.519  24.625  0.00  0.00    +0.203 A 
ENDBRANCH  38  40
BRANCH  37  52
ATOM     52  O   UNL     1       7.725   0.844  27.996  0.00  0.00    -0.385 OA
ATOM     53  H   UNL     1       7.110   1.346  28.571  0.00  0.00    +0.210 HD
ENDBRANCH  37  52
BRANCH  36  54
ATOM     54  O   UNL     1       4.891  -0.456  26.545  0.00  0.00    -0.278 OA
BRANCH  54  55
ATOM     55  P   UNL     1       3.826  -1.480  27.166  0.00  0.00    +0.473 P 
ATOM     56  O   UNL     1       2.695  -0.862  27.906  0.00  0.00    -0.228 OA
BRANCH  55  57
ATOM     57  O   UNL     1       3.421  -2.285  25.850  0.00  0.00    -0.303 OA
ATOM     58  H   UNL     1       3.178  -1.688  25.122  0.00  0.00    +0.222 HD
ENDBRANCH  55  57
BRANCH  55  59
ATOM     59  O   UNL     1       4.724  -2.543  27.938  0.00  0.00    -0.303 OA
ATOM     60  H   UNL     1       5.628  -2.255  28.135  0.00  0.00    +0.222 HD
ENDBRANCH  55  59
ENDBRANCH  54  55
ENDBRANCH  36  54
ENDBRANCH  34  35
ENDBRANCH  33  34
ENDBRANCH   1  33
TORSDOF 26
ENDMDL
MODEL 3
REMARK VINA RESULT:      -6.2      3.466      9.307
REMARK  Name = 
REMARK  28 active torsions:
REMARK  status: ('A' for Active; 'I' for Inactive)
REMARK    1  A    between atoms: C_1  and  C_2
REMARK    2  A    between atoms: C_2  and  C_3
REMARK    3  A    between atoms: C_2  and  C_4
REMARK    4  A    between atoms: C_2  and  C_40
REMARK    5  A    between atoms: C_4  and  O_5
REMARK    6  A    between atoms: O_5  and  P_6
REMARK    7  A    between atoms: P_6  and  O_7
REMARK    8  A    between atoms: P_6  and  O_9
REMARK    9  A    between atoms: O_9  and  P_10
REMARK   10  A    between atoms: P_10  and  O_11
REMARK   11  A    between atoms: P_10  and  O_13
REMARK   12  A    between atoms: O_13  and  C_14
REMARK   13  A    between atoms: C_14  and  C_15
REMARK   14  A    between atoms: C_18  and  N_30
REMARK   15  A    between atoms: C_20  and  O_22
REMARK   16  A    between atoms: C_23  and  O_25
REMARK   17  A    between atoms: O_25  and  P_26
REMARK   18  A    between atoms: P_26  and  O_27
REMARK   19  A    between atoms: P_26  and  O_28
REMARK   20  A    between atoms: C_40  and  O_42
REMARK   21  A    between atoms: C_40  and  C_43
REMARK   22  A    between atoms: N_45  and  C_46
REMARK   23  A    between atoms: C_46  and  C_47
REMARK   24  A    between atoms: C_47  and  C_48
REMARK   25  A    between atoms: N_50  and  C_51
REMARK   26  A    between atoms: C_51  and  C_52
REMARK   27  A    between atoms: C_52  and  S_53
REMARK   28  A    between atoms: S_53  and  O_54
REMARK                            x       y       z     vdW  Elec       q    Type
REMARK                         _______ _______ _______ _____ _____    ______ ____
ROOT
ATOM      1  P   UNL     1       9.378  -0.556  22.678  0.00  0.00    +0.483 P 
ATOM      2  O   UNL     1      10.570  -0.485  23.578  0.00  0.00    -0.227 OA
ENDROOT
BRANCH   1   3
ATOM      3  O   UNL     1       9.783  -0.428  21.135  0.00  0.00    -0.302 OA
ATOM      4  H   UNL     1      10.664  -0.006  21.074  0.00  0.00    +0.222 HD
ENDBRANCH   1   3
BRANCH   1   5
ATOM      5  O   UNL     1       8.328   0.646  22.877  0.00  0.00    -0.186 OA
BRANCH   5   6
ATOM      6  P   UNL     1       9.234   1.977  22.959  0.00  0.00    +0.483 P 
ATOM      7  O   UNL     1      10.341   2.024  21.955  0.00  0.00    -0.227 OA
BRANCH   6   8
ATOM      8  O   UNL     1       9.745   1.921  24.478  0.00  0.00    -0.302 OA
ATOM      9  H   UNL     1       9.426   1.116  24.930  0.00  0.00    +0.222 HD
ENDBRANCH   6   8
BRANCH   6  10
ATOM     10  O   UNL     1       8.411   3.361  22.992  0.00  0.00    -0.286 OA
BRANCH  10  11
ATOM     11  C   UNL     1       8.518   3.982  24.293  0.00  0.00    +0.181 C 
BRANCH  11  13
ATOM     12  C   UNL     1       8.963   5.965  25.675  0.00  0.00    +0.016 C 
ATOM     13  C   UNL     1       8.943   5.454  24.220  0.00  0.00    +0.024 C 
ATOM     14  C   UNL     1      10.388   5.566  23.680  0.00  0.00    +0.016 C 
BRANCH  13  15
ATOM     15  C   UNL     1       7.945   6.255  23.335  0.00  0.00    +0.208 C 
BRANCH  15  16
ATOM     16  C   UNL     1       6.449   5.903  23.589  0.00  0.00    +0.242 C 
ATOM     17  N   UNL     1       5.813   5.333  22.503  0.00  0.00    -0.313 N 
ATOM     18  H   UNL     1       6.413   4.873  21.825  0.00  0.00    +0.149 HD
ATOM     19  O   UNL     1       5.844   6.146  24.629  0.00  0.00    -0.273 OA
BRANCH  17  20
ATOM     20  C   UNL     1       4.420   4.928  22.607  0.00  0.00    +0.113 C 
BRANCH  20  21
ATOM     21  C   UNL     1       4.255   3.411  22.536  0.00  0.00    +0.114 C 
BRANCH  21  22
ATOM     22  C   UNL     1       4.662   2.781  23.847  0.00  0.00    +0.215 C 
ATOM     23  N   UNL     1       4.117   3.385  24.958  0.00  0.00    -0.314 N 
ATOM     24  H   UNL     1       3.629   4.267  24.853  0.00  0.00    +0.149 HD
ATOM     25  O   UNL     1       5.372   1.782  23.916  0.00  0.00    -0.276 OA
BRANCH  23  26
ATOM     26  C   UNL     1       4.385   2.890  26.300  0.00  0.00    +0.117 C 
BRANCH  26  27
ATOM     27  C   UNL     1       3.228   2.074  26.879  0.00  0.00    +0.118 C 
BRANCH  27  28
ATOM     28  S   UNL     1       3.826   0.412  27.342  0.00  0.00    -0.010 S 
BRANCH  28  29
ATOM     29  O   UNL     1       4.399  -0.100  25.868  0.00  0.00    -0.329 OA
ATOM     30  H   UNL     1       4.673  -1.051  25.909  0.00  0.00    +0.227 HD
ENDBRANCH  28  29
ENDBRANCH  27  28
ENDBRANCH  26  27
ENDBRANCH  23  26
ENDBRANCH  21  22
ENDBRANCH  20  21
ENDBRANCH  17  20
ENDBRANCH  15  16
BRANCH  15  31
ATOM     31  O   UNL     1       8.219   6.086  21.941  0.00  0.00    -0.382 OA
ATOM     32  H   UNL     1       8.636   6.904  21.623  0.00  0.00    +0.210 HD
ENDBRANCH  15  31
ENDBRANCH  13  15
ENDBRANCH  11  13
ENDBRANCH  10  11
ENDBRANCH   6  10
ENDBRANCH   5   6
ENDBRANCH   1   5
BRANCH   1  33
ATOM     33  O   UNL     1       8.761  -2.071  22.712  0.00  0.00    -0.284 OA
BRANCH  33  34
ATOM     34  C   UNL     1       9.323  -2.699  23.886  0.00  0.00    +0.206 C 
BRANCH  34  35
ATOM     35  C   UNL     1       8.487  -2.930  25.128  0.00  0.00    +0.179 C 
ATOM     36  C   UNL     1       7.304  -1.987  25.243  0.00  0.00    +0.194 C 
ATOM     37  C   UNL     1       6.106  -2.869  24.939  0.00  0.00    +0.196 C 
ATOM     38  C   UNL     1       6.701  -4.244  24.602  0.00  0.00    +0.253 C 
ATOM     39  O   UNL     1       8.013  -4.276  25.156  0.00  0.00    -0.346 OA
BRANCH  38  40
ATOM     40  N   UNL     1       5.923  -5.332  25.154  0.00  0.00    -0.286 N 
ATOM     41  C   UNL     1       4.824  -5.853  24.538  0.00  0.00    +0.167 A 
ATOM     42  N   UNL     1       4.314  -5.491  23.349  0.00  0.00    -0.216 NA
ATOM     43  C   UNL     1       3.207  -6.211  23.072  0.00  0.00    +0.225 A 
ATOM     44  N   UNL     1       2.614  -7.160  23.828  0.00  0.00    -0.219 NA
ATOM     45  C   UNL     1       3.155  -7.455  25.034  0.00  0.00    +0.147 A 
ATOM     46  N   UNL     1       2.530  -8.410  25.822  0.00  0.00    -0.341 N 
ATOM     47  H   UNL     1       3.137  -8.818  26.524  0.00  0.00    +0.144 HD
ATOM     48  H   UNL     1       1.947  -9.035  25.282  0.00  0.00    +0.144 HD
ATOM     49  C   UNL     1       4.333  -6.796  25.422  0.00  0.00    +0.147 A 
ATOM     50  N   UNL     1       5.139  -6.880  26.540  0.00  0.00    -0.231 NA
ATOM     51  C   UNL     1       6.086  -5.985  26.344  0.00  0.00    +0.203 A 
ENDBRANCH  38  40
BRANCH  37  52
ATOM     52  O   UNL     1       5.386  -2.311  23.840  0.00  0.00    -0.385 OA
ATOM     53  H   UNL     1       5.401  -2.986  23.129  0.00  0.00    +0.210 HD
ENDBRANCH  37  52
BRANCH  36  54
ATOM     54  O   UNL     1       7.293  -1.499  26.584  0.00  0.00    -0.278 OA
BRANCH  54  55
ATOM     55  P   UNL     1       7.779  -0.005  26.905  0.00  0.00    +0.473 P 
ATOM     56  O   UNL     1       7.509   0.477  28.283  0.00  0.00    -0.228 OA
BRANCH  55  57
ATOM     57  O   UNL     1       9.321  -0.129  26.514  0.00  0.00    -0.303 OA
ATOM     58  H   UNL     1       9.540  -1.017  26.185  0.00  0.00    +0.222 HD
ENDBRANCH  55  57
BRANCH  55  59
ATOM     59  O   UNL     1       7.201   0.851  25.693  0.00  0.00    -0.303 OA
ATOM     60  H   UNL     1       7.808   0.971  24.947  0.00  0.00    +0.222 HD
ENDBRANCH  55  59
ENDBRANCH  54  55
ENDBRANCH  36  54
ENDBRANCH  34  35
ENDBRANCH  33  34
ENDBRANCH   1  33
TORSDOF 26
ENDMDL
MODEL 4
REMARK VINA RESULT:      -5.8      3.016      7.220
REMARK  Name = 
REMARK  28 active torsions:
REMARK  status: ('A' for Active; 'I' for Inactive)
REMARK    1  A    between atoms: C_1  and  C_2
REMARK    2  A    between atoms: C_2  and  C_3
REMARK    3  A    between atoms: C_2  and  C_4
REMARK    4  A    between atoms: C_2  and  C_40
REMARK    5  A    between atoms: C_4  and  O_5
REMARK    6  A    between atoms: O_5  and  P_6
REMARK    7  A    between atoms: P_6  and  O_7
REMARK    8  A    between atoms: P_6  and  O_9
REMARK    9  A    between atoms: O_9  and  P_10
REMARK   10  A    between atoms: P_10  and  O_11
REMARK   11  A    between atoms: P_10  and  O_13
REMARK   12  A    between atoms: O_13  and  C_14
REMARK   13  A    between atoms: C_14  and  C_15
REMARK   14  A    between atoms: C_18  and  N_30
REMARK   15  A    between atoms: C_20  and  O_22
REMARK   16  A    between atoms: C_23  and  O_25
REMARK   17  A    between atoms: O_25  and  P_26
REMARK   18  A    between atoms: P_26  and  O_27
REMARK   19  A    between atoms: P_26  and  O_28
REMARK   20  A    between atoms: C_40  and  O_42
REMARK   21  A    between atoms: C_40  and  C_43
REMARK   22  A    between atoms: N_45  and  C_46
REMARK   23  A    between atoms: C_46  and  C_47
REMARK   24  A    between atoms: C_47  and  C_48
REMARK   25  A    between atoms: N_50  and  C_51
REMARK   26  A    between atoms: C_51  and  C_52
REMARK   27  A    between atoms: C_52  and  S_53
REMARK   28  A    between atoms: S_53  and  O_54
REMARK                            x       y       z     vdW  Elec       q    Type
REMARK                         _______ _______ _______ _____ _____    ______ ____
ROOT
ATOM      1  P   UNL     1       5.553  -3.711  22.891  0.00  0.00    +0.483 P 
ATOM      2  O   UNL     1       5.618  -4.135  21.460  0.00  0.00    -0.227 OA
ENDROOT
BRANCH   1   3
ATOM      3  O   UNL     1       5.741  -2.131  23.058  0.00  0.00    -0.302 OA
ATOM      4  H   UNL     1       4.870  -1.727  23.245  0.00  0.00    +0.222 HD
ENDBRANCH   1   3
BRANCH   1   5
ATOM      5  O   UNL     1       6.726  -4.314  23.813  0.00  0.00    -0.186 OA
BRANCH   5   6
ATOM      6  P   UNL     1       7.983  -3.334  23.576  0.00  0.00    +0.483 P 
ATOM      7  O   UNL     1       8.162  -2.904  22.155  0.00  0.00    -0.227 OA
BRANCH   6   8
ATOM      8  O   UNL     1       9.193  -4.225  24.136  0.00  0.00    -0.302 OA
ATOM      9  H   UNL     1       9.316  -5.032  23.599  0.00  0.00    +0.222 HD
ENDBRANCH   6   8
BRANCH   6  10
ATOM     10  O   UNL     1       8.069  -2.081  24.584  0.00  0.00    -0.286 OA
BRANCH  10  11
ATOM     11  C   UNL     1       9.417  -1.559  24.628  0.00  0.00    +0.181 C 
BRANCH  11  13
ATOM     12  C   UNL     1       8.546   0.507  25.636  0.00  0.00    +0.016 C 
ATOM     13  C   UNL     1       9.470  -0.029  24.522  0.00  0.00    +0.024 C 
ATOM     14  C   UNL     1      10.897   0.477  24.833  0.00  0.00    +0.016 C 
BRANCH  13  15
ATOM     15  C   UNL     1       9.003   0.425  23.110  0.00  0.00    +0.208 C 
BRANCH  15  16
ATOM     16  C   UNL     1       9.281   1.926  22.801  0.00  0.00    +0.242 C 
ATOM     17  N   UNL     1       8.284   2.783  23.224  0.00  0.00    -0.313 N 
ATOM     18  H   UNL     1       7.693   2.443  23.976  0.00  0.00    +0.149 HD
ATOM     19  O   UNL     1      10.263   2.340  22.190  0.00  0.00    -0.273 OA
BRANCH  17  20
ATOM     20  C   UNL     1       8.425   4.216  23.025  0.00  0.00    +0.113 C 
BRANCH  20  21
ATOM     21  C   UNL     1       7.762   5.020  24.143  0.00  0.00    +0.114 C 
BRANCH  21  22
ATOM     22  C   UNL     1       8.805   5.506  25.123  0.00  0.00    +0.215 C 
ATOM     23  N   UNL     1       9.904   6.089  24.535  0.00  0.00    -0.314 N 
ATOM     24  H   UNL     1      10.024   6.022  23.532  0.00  0.00    +0.149 HD
ATOM     25  O   UNL     1       8.660   5.437  26.340  0.00  0.00    -0.276 OA
BRANCH  23  26
ATOM     26  C   UNL     1      10.992   6.633  25.335  0.00  0.00    +0.117 C 
BRANCH  26  27
ATOM     27  C   UNL     1      12.343   6.588  24.616  0.00  0.00    +0.118 C 
BRANCH  27  28
ATOM     28  S   UNL     1      12.325   5.254  23.370  0.00  0.00    -0.010 S 
BRANCH  28  29
ATOM     29  O   UNL     1      13.958   4.973  23.236  0.00  0.00    -0.329 OA
ATOM     30  H   UNL     1      14.299   5.289  22.363  0.00  0.00    +0.227 HD
ENDBRANCH  28  29
ENDBRANCH  27  28
ENDBRANCH  26  27
ENDBRANCH  23  26
ENDBRANCH  21  22
ENDBRANCH  20  21
ENDBRANCH  17  20
ENDBRANCH  15  16
BRANCH  15  31
ATOM     31  O   UNL     1       7.609   0.173  22.906  0.00  0.00    -0.382 OA
ATOM     32  H   UNL     1       7.159   0.306  23.758  0.00  0.00    +0.210 HD
ENDBRANCH  15  31
ENDBRANCH  13  15
ENDBRANCH  11  13
ENDBRANCH  10  11
ENDBRANCH   6  10
ENDBRANCH   5   6
ENDBRANCH   1   5
BRANCH   1  33
ATOM     33  O   UNL     1       4.025  -3.901  23.445  0.00  0.00    -0.284 OA
BRANCH  33  34
ATOM     34  C   UNL     1       4.125  -4.791  24.579  0.00  0.00    +0.206 C 
BRANCH  34  35
ATOM     35  C   UNL     1       3.834  -4.305  25.985  0.00  0.00    +0.179 C 
ATOM     36  C   UNL     1       4.885  -4.722  26.997  0.00  0.00    +0.194 C 
ATOM     37  C   UNL     1       5.633  -3.436  27.295  0.00  0.00    +0.196 C 
ATOM     38  C   UNL     1       4.998  -2.384  26.374  0.00  0.00    +0.253 C 
ATOM     39  O   UNL     1       3.718  -2.882  25.996  0.00  0.00    -0.346 OA
BRANCH  38  40
ATOM     40  N   UNL     1       4.837  -1.103  27.027  0.00  0.00    -0.286 N 
ATOM     41  C   UNL     1       4.924   0.088  26.369  0.00  0.00    +0.167 A 
ATOM     42  N   UNL     1       5.128   0.274  25.055  0.00  0.00    -0.216 NA
ATOM     43  C   UNL     1       5.179   1.592  24.767  0.00  0.00    +0.225 A 
ATOM     44  N   UNL     1       5.073   2.638  25.614  0.00  0.00    -0.219 NA
ATOM     45  C   UNL     1       4.905   2.386  26.934  0.00  0.00    +0.147 A 
ATOM     46  N   UNL     1       4.823   3.461  27.807  0.00  0.00    -0.341 N 
ATOM     47  H   UNL     1       4.376   3.236  28.688  0.00  0.00    +0.144 HD
ATOM     48  H   UNL     1       4.547   4.315  27.341  0.00  0.00    +0.144 HD
ATOM     49  C   UNL     1       4.801   1.050  27.355  0.00  0.00    +0.147 A 
ATOM     50  N   UNL     1       4.602   0.460  28.587  0.00  0.00    -0.231 NA
ATOM     51  C   UNL     1       4.628  -0.836  28.351  0.00  0.00    +0.203 A 
ENDBRANCH  38  40
BRANCH  37  52
ATOM     52  O   UNL     1       7.019  -3.629  27.013  0.00  0.00    -0.385 OA
ATOM     53  H   UNL     1       7.412  -4.026  27.818  0.00  0.00    +0.210 HD
ENDBRANCH  37  52
BRANCH  36  54
ATOM     54  O   UNL     1       4.186  -5.221  28.136  0.00  0.00    -0.278 OA
BRANCH  54  55
ATOM     55  P   UNL     1       4.466  -6.706  28.671  0.00  0.00    +0.473 P 
ATOM     56  O   UNL     1       4.911  -6.808  30.084  0.00  0.00    -0.228 OA
BRANCH  55  57
ATOM     57  O   UNL     1       3.058  -7.384  28.348  0.00  0.00    -0.303 OA
ATOM     58  H   UNL     1       3.085  -7.894  27.520  0.00  0.00    +0.222 HD
ENDBRANCH  55  57
BRANCH  55  59
ATOM     59  O   UNL     1       5.401  -7.344  27.551  0.00  0.00    -0.303 OA
ATOM     60  H   UNL     1       4.945  -7.625  26.744  0.00  0.00    +0.222 HD
ENDBRANCH  55  59
ENDBRANCH  54  55
ENDBRANCH  36  54
ENDBRANCH  34  35
ENDBRANCH  33  34
ENDBRANCH   1  33
TORSDOF 26
ENDMDL
MODEL 5
REMARK VINA RESULT:      -5.8      2.026      3.824
REMARK  Name = 
REMARK  28 active torsions:
REMARK  status: ('A' for Active; 'I' for Inactive)
REMARK    1  A    between atoms: C_1  and  C_2
REMARK    2  A    between atoms: C_2  and  C_3
REMARK    3  A    between atoms: C_2  and  C_4
REMARK    4  A    between atoms: C_2  and  C_40
REMARK    5  A    between atoms: C_4  and  O_5
REMARK    6  A    between atoms: O_5  and  P_6
REMARK    7  A    between atoms: P_6  and  O_7
REMARK    8  A    between atoms: P_6  and  O_9
REMARK    9  A    between atoms: O_9  and  P_10
REMARK   10  A    between atoms: P_10  and  O_11
REMARK   11  A    between atoms: P_10  and  O_13
REMARK   12  A    between atoms: O_13  and  C_14
REMARK   13  A    between atoms: C_14  and  C_15
REMARK   14  A    between atoms: C_18  and  N_30
REMARK   15  A    between atoms: C_20  and  O_22
REMARK   16  A    between atoms: C_23  and  O_25
REMARK   17  A    between atoms: O_25  and  P_26
REMARK   18  A    between atoms: P_26  and  O_27
REMARK   19  A    between atoms: P_26  and  O_28
REMARK   20  A    between atoms: C_40  and  O_42
REMARK   21  A    between atoms: C_40  and  C_43
REMARK   22  A    between atoms: N_45  and  C_46
REMARK   23  A    between atoms: C_46  and  C_47
REMARK   24  A    between atoms: C_47  and  C_48
REMARK   25  A    between atoms: N_50  and  C_51
REMARK   26  A    between atoms: C_51  and  C_52
REMARK   27  A    between atoms: C_52  and  S_53
REMARK   28  A    between atoms: S_53  and  O_54
REMARK                            x       y       z     vdW  Elec       q    Type
REMARK                         _______ _______ _______ _____ _____    ______ ____
ROOT
ATOM      1  P   UNL     1       7.607  -4.598  26.472  0.00  0.00    +0.483 P 
ATOM      2  O   UNL     1       6.900  -4.636  25.155  0.00  0.00    -0.227 OA
ENDROOT
BRANCH   1   3
ATOM      3  O   UNL     1       8.259  -6.011  26.845  0.00  0.00    -0.302 OA
ATOM      4  H   UNL     1       7.634  -6.722  26.597  0.00  0.00    +0.222 HD
ENDBRANCH   1   3
BRANCH   1   5
ATOM      5  O   UNL     1       6.646  -4.301  27.729  0.00  0.00    -0.186 OA
BRANCH   5   6
ATOM      6  P   UNL     1       5.814  -5.665  27.944  0.00  0.00    +0.483 P 
ATOM      7  O   UNL     1       6.533  -6.696  28.753  0.00  0.00    -0.227 OA
BRANCH   6   8
ATOM      8  O   UNL     1       5.539  -6.113  26.429  0.00  0.00    -0.302 OA
ATOM      9  H   UNL     1       5.321  -7.064  26.375  0.00  0.00    +0.222 HD
ENDBRANCH   6   8
BRANCH   6  10
ATOM     10  O   UNL     1       4.300  -5.466  28.455  0.00  0.00    -0.286 OA
BRANCH  10  11
ATOM     11  C   UNL     1       4.228  -4.388  29.415  0.00  0.00    +0.181 C 
BRANCH  11  13
ATOM     12  C   UNL     1       1.962  -4.262  28.471  0.00  0.00    +0.016 C 
ATOM     13  C   UNL     1       3.067  -3.422  29.144  0.00  0.00    +0.024 C 
ATOM     14  C   UNL     1       2.488  -2.897  30.478  0.00  0.00    +0.016 C 
BRANCH  13  15
ATOM     15  C   UNL     1       3.545  -2.254  28.235  0.00  0.00    +0.208 C 
BRANCH  15  16
ATOM     16  C   UNL     1       3.186  -2.433  26.729  0.00  0.00    +0.242 C 
ATOM     17  N   UNL     1       4.075  -3.227  26.030  0.00  0.00    -0.313 N 
ATOM     18  H   UNL     1       4.616  -3.884  26.582  0.00  0.00    +0.149 HD
ATOM     19  O   UNL     1       2.238  -1.889  26.171  0.00  0.00    -0.273 OA
BRANCH  17  20
ATOM     20  C   UNL     1       3.848  -3.502  24.620  0.00  0.00    +0.113 C 
BRANCH  20  21
ATOM     21  C   UNL     1       2.985  -4.744  24.409  0.00  0.00    +0.114 C 
BRANCH  21  22
ATOM     22  C   UNL     1       3.586  -5.621  23.334  0.00  0.00    +0.215 C 
ATOM     23  N   UNL     1       4.963  -5.646  23.332  0.00  0.00    -0.314 N 
ATOM     24  H   UNL     1       5.472  -4.990  23.913  0.00  0.00    +0.149 HD
ATOM     25  O   UNL     1       2.908  -6.294  22.565  0.00  0.00    -0.276 OA
BRANCH  23  26
ATOM     26  C   UNL     1       5.705  -6.458  22.378  0.00  0.00    +0.117 C 
BRANCH  26  27
ATOM     27  C   UNL     1       6.101  -5.687  21.117  0.00  0.00    +0.118 C 
BRANCH  27  28
ATOM     28  S   UNL     1       6.403  -3.937  21.543  0.00  0.00    -0.010 S 
BRANCH  28  29
ATOM     29  O   UNL     1       7.663  -4.122  22.611  0.00  0.00    -0.329 OA
ATOM     30  H   UNL     1       8.227  -4.896  22.360  0.00  0.00    +0.227 HD
ENDBRANCH  28  29
ENDBRANCH  27  28
ENDBRANCH  26  27
ENDBRANCH  23  26
ENDBRANCH  21  22
ENDBRANCH  20  21
ENDBRANCH  17  20
ENDBRANCH  15  16
BRANCH  15  31
ATOM     31  O   UNL     1       4.956  -2.043  28.341  0.00  0.00    -0.382 OA
ATOM     32  H   UNL     1       5.098  -1.323  28.979  0.00  0.00    +0.210 HD
ENDBRANCH  15  31
ENDBRANCH  13  15
ENDBRANCH  11  13
ENDBRANCH  10  11
ENDBRANCH   6  10
ENDBRANCH   5   6
ENDBRANCH   1   5
BRANCH   1  33
ATOM     33  O   UNL     1       8.944  -3.663  26.345  0.00  0.00    -0.284 OA
BRANCH  33  34
ATOM     34  C   UNL     1       8.494  -2.304  26.536  0.00  0.00    +0.206 C 
BRANCH  34  35
ATOM     35  C   UNL     1       8.706  -1.250  25.469  0.00  0.00    +0.179 C 
ATOM     36  C   UNL     1       7.641  -1.261  24.388  0.00  0.00    +0.194 C 
ATOM     37  C   UNL     1       6.817  -0.020  24.676  0.00  0.00    +0.196 C 
ATOM     38  C   UNL     1       7.432   0.578  25.951  0.00  0.00    +0.253 C 
ATOM     39  O   UNL     1       8.749   0.048  26.064  0.00  0.00    -0.346 OA
BRANCH  38  40
ATOM     40  N   UNL     1       7.502   2.022  25.904  0.00  0.00    -0.286 N 
ATOM     41  C   UNL     1       8.360   2.704  25.092  0.00  0.00    +0.167 A 
ATOM     42  N   UNL     1       9.225   2.181  24.208  0.00  0.00    -0.216 NA
ATOM     43  C   UNL     1       9.927   3.159  23.599  0.00  0.00    +0.225 A 
ATOM     44  N   UNL     1       9.853   4.492  23.802  0.00  0.00    -0.219 NA
ATOM     45  C   UNL     1       8.987   4.956  24.733  0.00  0.00    +0.147 A 
ATOM     46  N   UNL     1       8.932   6.324  24.961  0.00  0.00    -0.341 N 
ATOM     47  H   UNL     1       8.069   6.628  25.397  0.00  0.00    +0.144 HD
ATOM     48  H   UNL     1       9.278   6.859  24.176  0.00  0.00    +0.144 HD
ATOM     49  C   UNL     1       8.172   4.036  25.412  0.00  0.00    +0.147 A 
ATOM     50  N   UNL     1       7.190   4.171  26.373  0.00  0.00    -0.231 NA
ATOM     51  C   UNL     1       6.808   2.939  26.644  0.00  0.00    +0.203 A 
ENDBRANCH  38  40
BRANCH  37  52
ATOM     52  O   UNL     1       5.455  -0.400  24.865  0.00  0.00    -0.385 OA
ATOM     53  H   UNL     1       5.200  -0.921  24.075  0.00  0.00    +0.210 HD
ENDBRANCH  37  52
BRANCH  36  54
ATOM     54  O   UNL     1       8.322  -1.184  23.136  0.00  0.00    -0.278 OA
BRANCH  54  55
ATOM     55  P   UNL     1       9.874  -1.573  23.034  0.00  0.00    +0.473 P 
ATOM     56  O   UNL     1      10.249  -2.884  23.623  0.00  0.00    -0.228 OA
BRANCH  55  57
ATOM     57  O   UNL     1      10.084  -1.449  21.457  0.00  0.00    -0.303 OA
ATOM     58  H   UNL     1       9.569  -0.715  21.082  0.00  0.00    +0.222 HD
ENDBRANCH  55  57
BRANCH  55  59
ATOM     59  O   UNL     1      10.627  -0.277  23.568  0.00  0.00    -0.303 OA
ATOM     60  H   UNL     1      10.105   0.539  23.554  0.00  0.00    +0.222 HD
ENDBRANCH  55  59
ENDBRANCH  54  55
ENDBRANCH  36  54
ENDBRANCH  34  35
ENDBRANCH  33  34
ENDBRANCH   1  33
TORSDOF 26
ENDMDL
MODEL 6
REMARK VINA RESULT:      -5.7      2.956      7.414
REMARK  Name = 
REMARK  28 active torsions:
REMARK  status: ('A' for Active; 'I' for Inactive)
REMARK    1  A    between atoms: C_1  and  C_2
REMARK    2  A    between atoms: C_2  and  C_3
REMARK    3  A    between atoms: C_2  and  C_4
REMARK    4  A    between atoms: C_2  and  C_40
REMARK    5  A    between atoms: C_4  and  O_5
REMARK    6  A    between atoms: O_5  and  P_6
REMARK    7  A    between atoms: P_6  and  O_7
REMARK    8  A    between atoms: P_6  and  O_9
REMARK    9  A    between atoms: O_9  and  P_10
REMARK   10  A    between atoms: P_10  and  O_11
REMARK   11  A    between atoms: P_10  and  O_13
REMARK   12  A    between atoms: O_13  and  C_14
REMARK   13  A    between atoms: C_14  and  C_15
REMARK   14  A    between atoms: C_18  and  N_30
REMARK   15  A    between atoms: C_20  and  O_22
REMARK   16  A    between atoms: C_23  and  O_25
REMARK   17  A    between atoms: O_25  and  P_26
REMARK   18  A    between atoms: P_26  and  O_27
REMARK   19  A    between atoms: P_26  and  O_28
REMARK   20  A    between atoms: C_40  and  O_42
REMARK   21  A    between atoms: C_40  and  C_43
REMARK   22  A    between atoms: N_45  and  C_46
REMARK   23  A    between atoms: C_46  and  C_47
REMARK   24  A    between atoms: C_47  and  C_48
REMARK   25  A    between atoms: N_50  and  C_51
REMARK   26  A    between atoms: C_51  and  C_52
REMARK   27  A    between atoms: C_52  and  S_53
REMARK   28  A    between atoms: S_53  and  O_54
REMARK                            x       y       z     vdW  Elec       q    Type
REMARK                         _______ _______ _______ _____ _____    ______ ____
ROOT
ATOM      1  P   UNL     1       5.951  -3.439  22.576  0.00  0.00    +0.483 P 
ATOM      2  O   UNL     1       6.040  -3.973  21.183  0.00  0.00    -0.227 OA
ENDROOT
BRANCH   1   3
ATOM      3  O   UNL     1       5.966  -1.839  22.607  0.00  0.00    -0.302 OA
ATOM      4  H   UNL     1       6.125  -1.507  21.701  0.00  0.00    +0.222 HD
ENDBRANCH   1   3
BRANCH   1   5
ATOM      5  O   UNL     1       7.199  -3.830  23.514  0.00  0.00    -0.186 OA
BRANCH   5   6
ATOM      6  P   UNL     1       8.296  -2.680  23.243  0.00  0.00    +0.483 P 
ATOM      7  O   UNL     1       8.478  -2.340  21.798  0.00  0.00    -0.227 OA
BRANCH   6   8
ATOM      8  O   UNL     1       9.601  -3.316  23.924  0.00  0.00    -0.302 OA
ATOM      9  H   UNL     1      10.307  -3.466  23.264  0.00  0.00    +0.222 HD
ENDBRANCH   6   8
BRANCH   6  10
ATOM     10  O   UNL     1       8.130  -1.355  24.142  0.00  0.00    -0.286 OA
BRANCH  10  11
ATOM     11  C   UNL     1       9.283  -0.495  23.994  0.00  0.00    +0.181 C 
BRANCH  11  13
ATOM     12  C   UNL     1       9.340   0.952  22.007  0.00  0.00    +0.016 C 
ATOM     13  C   UNL     1       8.921   0.909  23.492  0.00  0.00    +0.024 C 
ATOM     14  C   UNL     1       7.389   1.113  23.537  0.00  0.00    +0.016 C 
BRANCH  13  15
ATOM     15  C   UNL     1       9.661   1.985  24.337  0.00  0.00    +0.208 C 
BRANCH  15  16
ATOM     16  C   UNL     1       8.903   3.343  24.441  0.00  0.00    +0.242 C 
ATOM     17  N   UNL     1       9.068   4.165  23.343  0.00  0.00    -0.313 N 
ATOM     18  H   UNL     1       9.322   3.704  22.475  0.00  0.00    +0.149 HD
ATOM     19  O   UNL     1       8.255   3.703  25.419  0.00  0.00    -0.273 OA
BRANCH  17  20
ATOM     20  C   UNL     1       8.395   5.452  23.293  0.00  0.00    +0.113 C 
BRANCH  20  21
ATOM     21  C   UNL     1       7.218   5.449  22.319  0.00  0.00    +0.114 C 
BRANCH  21  22
ATOM     22  C   UNL     1       5.928   5.184  23.062  0.00  0.00    +0.215 C 
ATOM     23  N   UNL     1       5.981   5.476  24.406  0.00  0.00    -0.314 N 
ATOM     24  H   UNL     1       6.875   5.688  24.833  0.00  0.00    +0.149 HD
ATOM     25  O   UNL     1       4.906   4.795  22.505  0.00  0.00    -0.276 OA
BRANCH  23  26
ATOM     26  C   UNL     1       4.819   5.302  25.265  0.00  0.00    +0.117 C 
BRANCH  26  27
ATOM     27  C   UNL     1       4.786   3.937  25.958  0.00  0.00    +0.118 C 
BRANCH  27  28
ATOM     28  S   UNL     1       3.342   2.990  25.368  0.00  0.00    -0.010 S 
BRANCH  28  29
ATOM     29  O   UNL     1       3.980   2.343  23.976  0.00  0.00    -0.329 OA
ATOM     30  H   UNL     1       3.287   2.268  23.273  0.00  0.00    +0.227 HD
ENDBRANCH  28  29
ENDBRANCH  27  28
ENDBRANCH  26  27
ENDBRANCH  23  26
ENDBRANCH  21  22
ENDBRANCH  20  21
ENDBRANCH  17  20
ENDBRANCH  15  16
BRANCH  15  31
ATOM     31  O   UNL     1      10.977   2.240  23.835  0.00  0.00    -0.382 OA
ATOM     32  H   UNL     1      11.586   1.629  24.285  0.00  0.00    +0.210 HD
ENDBRANCH  15  31
ENDBRANCH  13  15
ENDBRANCH  11  13
ENDBRANCH  10  11
ENDBRANCH   6  10
ENDBRANCH   5   6
ENDBRANCH   1   5
BRANCH   1  33
ATOM     33  O   UNL     1       4.464  -3.747  23.184  0.00  0.00    -0.284 OA
BRANCH  33  34
ATOM     34  C   UNL     1       4.653  -4.759  24.196  0.00  0.00    +0.206 C 
BRANCH  34  35
ATOM     35  C   UNL     1       4.350  -4.478  25.654  0.00  0.00    +0.179 C 
ATOM     36  C   UNL     1       5.532  -4.719  26.574  0.00  0.00    +0.194 C 
ATOM     37  C   UNL     1       5.980  -3.323  26.964  0.00  0.00    +0.196 C 
ATOM     38  C   UNL     1       5.060  -2.376  26.179  0.00  0.00    +0.253 C 
ATOM     39  O   UNL     1       3.909  -3.128  25.810  0.00  0.00    -0.346 OA
BRANCH  38  40
ATOM     40  N   UNL     1       4.651  -1.230  26.961  0.00  0.00    -0.286 N 
ATOM     41  C   UNL     1       5.503  -0.229  27.323  0.00  0.00    +0.167 A 
ATOM     42  N   UNL     1       6.803  -0.117  27.004  0.00  0.00    -0.216 NA
ATOM     43  C   UNL     1       7.331   0.994  27.559  0.00  0.00    +0.225 A 
ATOM     44  N   UNL     1       6.724   1.903  28.352  0.00  0.00    -0.219 NA
ATOM     45  C   UNL     1       5.421   1.715  28.669  0.00  0.00    +0.147 A 
ATOM     46  N   UNL     1       4.806   2.635  29.506  0.00  0.00    -0.341 N 
ATOM     47  H   UNL     1       3.795   2.635  29.435  0.00  0.00    +0.144 HD
ATOM     48  H   UNL     1       5.279   3.529  29.511  0.00  0.00    +0.144 HD
ATOM     49  C   UNL     1       4.748   0.611  28.121  0.00  0.00    +0.147 A 
ATOM     50  N   UNL     1       3.448   0.155  28.213  0.00  0.00    -0.231 NA
ATOM     51  C   UNL     1       3.426  -0.954  27.501  0.00  0.00    +0.203 A 
ENDBRANCH  38  40
BRANCH  37  52
ATOM     52  O   UNL     1       7.352  -3.158  26.606  0.00  0.00    -0.385 OA
ATOM     53  H   UNL     1       7.841  -3.016  27.443  0.00  0.00    +0.210 HD
ENDBRANCH  37  52
BRANCH  36  54
ATOM     54  O   UNL     1       5.042  -5.465  27.688  0.00  0.00    -0.278 OA
BRANCH  54  55
ATOM     55  P   UNL     1       6.065  -6.133  28.726  0.00  0.00    +0.473 P 
ATOM     56  O   UNL     1       6.044  -5.573  30.101  0.00  0.00    -0.228 OA
BRANCH  55  57
ATOM     57  O   UNL     1       5.618  -7.660  28.605  0.00  0.00    -0.303 OA
ATOM     58  H   UNL     1       6.363  -8.236  28.365  0.00  0.00    +0.222 HD
ENDBRANCH  55  57
BRANCH  55  59
ATOM     59  O   UNL     1       7.452  -6.135  27.946  0.00  0.00    -0.303 OA
ATOM     60  H   UNL     1       7.789  -5.260  27.701  0.00  0.00    +0.222 HD
ENDBRANCH  55  59
ENDBRANCH  54  55
ENDBRANCH  36  54
ENDBRANCH  34  35
ENDBRANCH  33  34
ENDBRANCH   1  33
TORSDOF 26
ENDMDL
MODEL 7
REMARK VINA RESULT:      -5.6      3.287      7.852
REMARK  Name = 
REMARK  28 active torsions:
REMARK  status: ('A' for Active; 'I' for Inactive)
REMARK    1  A    between atoms: C_1  and  C_2
REMARK    2  A    between atoms: C_2  and  C_3
REMARK    3  A    between atoms: C_2  and  C_4
REMARK    4  A    between atoms: C_2  and  C_40
REMARK    5  A    between atoms: C_4  and  O_5
REMARK    6  A    between atoms: O_5  and  P_6
REMARK    7  A    between atoms: P_6  and  O_7
REMARK    8  A    between atoms: P_6  and  O_9
REMARK    9  A    between atoms: O_9  and  P_10
REMARK   10  A    between atoms: P_10  and  O_11
REMARK   11  A    between atoms: P_10  and  O_13
REMARK   12  A    between atoms: O_13  and  C_14
REMARK   13  A    between atoms: C_14  and  C_15
REMARK   14  A    between atoms: C_18  and  N_30
REMARK   15  A    between atoms: C_20  and  O_22
REMARK   16  A    between atoms: C_23  and  O_25
REMARK   17  A    between atoms: O_25  and  P_26
REMARK   18  A    between atoms: P_26  and  O_27
REMARK   19  A    between atoms: P_26  and  O_28
REMARK   20  A    between atoms: C_40  and  O_42
REMARK   21  A    between atoms: C_40  and  C_43
REMARK   22  A    between atoms: N_45  and  C_46
REMARK   23  A    between atoms: C_46  and  C_47
REMARK   24  A    between atoms: C_47  and  C_48
REMARK   25  A    between atoms: N_50  and  C_51
REMARK   26  A    between atoms: C_51  and  C_52
REMARK   27  A    between atoms: C_52  and  S_53
REMARK   28  A    between atoms: S_53  and  O_54
REMARK                            x       y       z     vdW  Elec       q    Type
REMARK                         _______ _______ _______ _____ _____    ______ ____
ROOT
ATOM      1  P   UNL     1       7.012  -4.178  22.650  0.00  0.00    +0.483 P 
ATOM      2  O   UNL     1       7.762  -4.755  23.806  0.00  0.00    -0.227 OA
ENDROOT
BRANCH   1   3
ATOM      3  O   UNL     1       6.775  -5.254  21.489  0.00  0.00    -0.302 OA
ATOM      4  H   UNL     1       6.539  -4.783  20.665  0.00  0.00    +0.222 HD
ENDBRANCH   1   3
BRANCH   1   5
ATOM      5  O   UNL     1       7.785  -2.990  21.887  0.00  0.00    -0.186 OA
BRANCH   5   6
ATOM      6  P   UNL     1       7.723  -1.739  22.902  0.00  0.00    +0.483 P 
ATOM      7  O   UNL     1       8.148  -2.063  24.298  0.00  0.00    -0.227 OA
BRANCH   6   8
ATOM      8  O   UNL     1       6.182  -1.308  22.783  0.00  0.00    -0.302 OA
ATOM      9  H   UNL     1       5.823  -1.035  23.649  0.00  0.00    +0.222 HD
ENDBRANCH   6   8
BRANCH   6  10
ATOM     10  O   UNL     1       8.431  -0.394  22.369  0.00  0.00    -0.286 OA
BRANCH  10  11
ATOM     11  C   UNL     1       9.802  -0.331  22.823  0.00  0.00    +0.181 C 
BRANCH  11  13
ATOM     12  C   UNL     1       8.868   1.295  24.414  0.00  0.00    +0.016 C 
ATOM     13  C   UNL     1      10.123   0.967  23.578  0.00  0.00    +0.024 C 
ATOM     14  C   UNL     1      11.282   0.730  24.573  0.00  0.00    +0.016 C 
BRANCH  13  15
ATOM     15  C   UNL     1      10.464   2.101  22.569  0.00  0.00    +0.208 C 
BRANCH  15  16
ATOM     16  C   UNL     1      10.671   3.496  23.230  0.00  0.00    +0.242 C 
ATOM     17  N   UNL     1       9.502   4.205  23.426  0.00  0.00    -0.313 N 
ATOM     18  H   UNL     1       8.650   3.655  23.480  0.00  0.00    +0.149 HD
ATOM     19  O   UNL     1      11.765   3.976  23.513  0.00  0.00    -0.273 OA
BRANCH  17  20
ATOM     20  C   UNL     1       9.543   5.514  24.059  0.00  0.00    +0.113 C 
BRANCH  20  21
ATOM     21  C   UNL     1       8.895   6.592  23.193  0.00  0.00    +0.114 C 
BRANCH  21  22
ATOM     22  C   UNL     1       7.529   6.140  22.732  0.00  0.00    +0.215 C 
ATOM     23  N   UNL     1       6.486   6.873  23.253  0.00  0.00    -0.314 N 
ATOM     24  H   UNL     1       6.669   7.535  23.998  0.00  0.00    +0.149 HD
ATOM     25  O   UNL     1       7.364   5.233  21.922  0.00  0.00    -0.276 OA
BRANCH  23  26
ATOM     26  C   UNL     1       5.105   6.586  22.894  0.00  0.00    +0.117 C 
BRANCH  26  27
ATOM     27  C   UNL     1       4.414   5.641  23.881  0.00  0.00    +0.118 C 
BRANCH  27  28
ATOM     28  S   UNL     1       4.753   6.191  25.589  0.00  0.00    -0.010 S 
BRANCH  28  29
ATOM     29  O   UNL     1       6.134   5.317  25.896  0.00  0.00    -0.329 OA
ATOM     30  H   UNL     1       6.542   4.996  25.053  0.00  0.00    +0.227 HD
ENDBRANCH  28  29
ENDBRANCH  27  28
ENDBRANCH  26  27
ENDBRANCH  23  26
ENDBRANCH  21  22
ENDBRANCH  20  21
ENDBRANCH  17  20
ENDBRANCH  15  16
BRANCH  15  31
ATOM     31  O   UNL     1       9.463   2.225  21.554  0.00  0.00    -0.382 OA
ATOM     32  H   UNL     1       9.714   1.637  20.821  0.00  0.00    +0.210 HD
ENDBRANCH  15  31
ENDBRANCH  13  15
ENDBRANCH  11  13
ENDBRANCH  10  11
ENDBRANCH   6  10
ENDBRANCH   5   6
ENDBRANCH   1   5
BRANCH   1  33
ATOM     33  O   UNL     1       5.471  -3.865  23.103  0.00  0.00    -0.284 OA
BRANCH  33  34
ATOM     34  C   UNL     1       5.107  -4.923  24.016  0.00  0.00    +0.206 C 
BRANCH  34  35
ATOM     35  C   UNL     1       4.659  -4.618  25.431  0.00  0.00    +0.179 C 
ATOM     36  C   UNL     1       5.731  -4.877  26.473  0.00  0.00    +0.194 C 
ATOM     37  C   UNL     1       6.171  -3.488  26.896  0.00  0.00    +0.196 C 
ATOM     38  C   UNL     1       5.362  -2.528  26.010  0.00  0.00    +0.253 C 
ATOM     39  O   UNL     1       4.237  -3.257  25.528  0.00  0.00    -0.346 OA
BRANCH  38  40
ATOM     40  N   UNL     1       4.901  -1.364  26.734  0.00  0.00    -0.286 N 
ATOM     41  C   UNL     1       4.925  -0.103  26.216  0.00  0.00    +0.167 A 
ATOM     42  N   UNL     1       5.327   0.260  24.987  0.00  0.00    -0.216 NA
ATOM     43  C   UNL     1       5.232   1.598  24.835  0.00  0.00    +0.225 A 
ATOM     44  N   UNL     1       4.825   2.515  25.738  0.00  0.00    -0.219 NA
ATOM     45  C   UNL     1       4.466   2.091  26.973  0.00  0.00    +0.147 A 
ATOM     46  N   UNL     1       4.074   3.038  27.908  0.00  0.00    -0.341 N 
ATOM     47  H   UNL     1       3.518   2.656  28.664  0.00  0.00    +0.144 HD
ATOM     48  H   UNL     1       3.760   3.898  27.479  0.00  0.00    +0.144 HD
ATOM     49  C   UNL     1       4.489   0.714  27.243  0.00  0.00    +0.147 A 
ATOM     50  N   UNL     1       4.166  -0.037  28.356  0.00  0.00    -0.231 NA
ATOM     51  C   UNL     1       4.426  -1.282  28.013  0.00  0.00    +0.203 A 
ENDBRANCH  38  40
BRANCH  37  52
ATOM     52  O   UNL     1       7.576  -3.359  26.682  0.00  0.00    -0.385 OA
ATOM     53  H   UNL     1       7.947  -2.974  27.504  0.00  0.00    +0.210 HD
ENDBRANCH  37  52
BRANCH  36  54
ATOM     54  O   UNL     1       5.109  -5.598  27.536  0.00  0.00    -0.278 OA
BRANCH  54  55
ATOM     55  P   UNL     1       5.991  -6.193  28.735  0.00  0.00    +0.473 P 
ATOM     56  O   UNL     1       5.853  -5.499  30.041  0.00  0.00    -0.228 OA
BRANCH  55  57
ATOM     57  O   UNL     1       5.497  -7.710  28.712  0.00  0.00    -0.303 OA
ATOM     58  H   UNL     1       5.116  -7.978  29.565  0.00  0.00    +0.222 HD
ENDBRANCH  55  57
BRANCH  55  59
ATOM     59  O   UNL     1       7.451  -6.314  28.110  0.00  0.00    -0.303 OA
ATOM     60  H   UNL     1       7.636  -7.148  27.653  0.00  0.00    +0.222 HD
ENDBRANCH  55  59
ENDBRANCH  54  55
ENDBRANCH  36  54
ENDBRANCH  34  35
ENDBRANCH  33  34
ENDBRANCH   1  33
TORSDOF 26
ENDMDL
MODEL 8
REMARK VINA RESULT:      -5.6      1.670      2.088
REMARK  Name = 
REMARK  28 active torsions:
REMARK  status: ('A' for Active; 'I' for Inactive)
REMARK    1  A    between atoms: C_1  and  C_2
REMARK    2  A    between atoms: C_2  and  C_3
REMARK    3  A    between atoms: C_2  and  C_4
REMARK    4  A    between atoms: C_2  and  C_40
REMARK    5  A    between atoms: C_4  and  O_5
REMARK    6  A    between atoms: O_5  and  P_6
REMARK    7  A    between atoms: P_6  and  O_7
REMARK    8  A    between atoms: P_6  and  O_9
REMARK    9  A    between atoms: O_9  and  P_10
REMARK   10  A    between atoms: P_10  and  O_11
REMARK   11  A    between atoms: P_10  and  O_13
REMARK   12  A    between atoms: O_13  and  C_14
REMARK   13  A    between atoms: C_14  and  C_15
REMARK   14  A    between atoms: C_18  and  N_30
REMARK   15  A    between atoms: C_20  and  O_22
REMARK   16  A    between atoms: C_23  and  O_25
REMARK   17  A    between atoms: O_25  and  P_26
REMARK   18  A    between atoms: P_26  and  O_27
REMARK   19  A    between atoms: P_26  and  O_28
REMARK   20  A    between atoms: C_40  and  O_42
REMARK   21  A    between atoms: C_40  and  C_43
REMARK   22  A    between atoms: N_45  and  C_46
REMARK   23  A    between atoms: C_46  and  C_47
REMARK   24  A    between atoms: C_47  and  C_48
REMARK   25  A    between atoms: N_50  and  C_51
REMARK   26  A    between atoms: C_51  and  C_52
REMARK   27  A    between atoms: C_52  and  S_53
REMARK   28  A    between atoms: S_53  and  O_54
REMARK                            x       y       z     vdW  Elec       q    Type
REMARK                         _______ _______ _______ _____ _____    ______ ____
ROOT
ATOM      1  P   UNL     1       8.417  -4.067  25.997  0.00  0.00    +0.483 P 
ATOM      2  O   UNL     1       9.234  -3.549  24.858  0.00  0.00    -0.227 OA
ENDROOT
BRANCH   1   3
ATOM      3  O   UNL     1       9.331  -4.642  27.179  0.00  0.00    -0.302 OA
ATOM      4  H   UNL     1       8.781  -4.746  27.981  0.00  0.00    +0.222 HD
ENDBRANCH   1   3
BRANCH   1   5
ATOM      5  O   UNL     1       7.481  -5.321  25.623  0.00  0.00    -0.186 OA
BRANCH   5   6
ATOM      6  P   UNL     1       6.341  -5.341  26.762  0.00  0.00    +0.483 P 
ATOM      7  O   UNL     1       6.870  -5.234  28.156  0.00  0.00    -0.227 OA
BRANCH   6   8
ATOM      8  O   UNL     1       5.609  -6.735  26.457  0.00  0.00    -0.302 OA
ATOM      9  H   UNL     1       4.808  -6.603  25.913  0.00  0.00    +0.222 HD
ENDBRANCH   6   8
BRANCH   6  10
ATOM     10  O   UNL     1       5.117  -4.324  26.518  0.00  0.00    -0.286 OA
BRANCH  10  11
ATOM     11  C   UNL     1       3.891  -4.869  27.058  0.00  0.00    +0.181 C 
BRANCH  11  13
ATOM     12  C   UNL     1       1.462  -4.489  27.058  0.00  0.00    +0.016 C 
ATOM     13  C   UNL     1       2.685  -4.660  26.133  0.00  0.00    +0.024 C 
ATOM     14  C   UNL     1       2.843  -3.342  25.341  0.00  0.00    +0.016 C 
BRANCH  13  15
ATOM     15  C   UNL     1       2.527  -5.878  25.179  0.00  0.00    +0.208 C 
BRANCH  15  16
ATOM     16  C   UNL     1       3.100  -5.644  23.749  0.00  0.00    +0.242 C 
ATOM     17  N   UNL     1       4.476  -5.737  23.673  0.00  0.00    -0.313 N 
ATOM     18  H   UNL     1       4.927  -6.284  24.399  0.00  0.00    +0.149 HD
ATOM     19  O   UNL     1       2.423  -5.348  22.769  0.00  0.00    -0.273 OA
BRANCH  17  20
ATOM     20  C   UNL     1       5.146  -5.568  22.393  0.00  0.00    +0.113 C 
BRANCH  20  21
ATOM     21  C   UNL     1       6.599  -5.127  22.558  0.00  0.00    +0.114 C 
BRANCH  21  22
ATOM     22  C   UNL     1       6.703  -3.624  22.447  0.00  0.00    +0.215 C 
ATOM     23  N   UNL     1       7.974  -3.164  22.184  0.00  0.00    -0.314 N 
ATOM     24  H   UNL     1       8.754  -3.808  22.235  0.00  0.00    +0.149 HD
ATOM     25  O   UNL     1       5.731  -2.879  22.528  0.00  0.00    -0.276 OA
BRANCH  23  26
ATOM     26  C   UNL     1       8.248  -1.744  22.022  0.00  0.00    +0.117 C 
BRANCH  26  27
ATOM     27  C   UNL     1       9.741  -1.413  22.076  0.00  0.00    +0.118 C 
BRANCH  27  28
ATOM     28  S   UNL     1       9.959   0.395  22.214  0.00  0.00    -0.010 S 
BRANCH  28  29
ATOM     29  O   UNL     1       9.030   0.889  20.928  0.00  0.00    -0.329 OA
ATOM     30  H   UNL     1       9.031   0.207  20.210  0.00  0.00    +0.227 HD
ENDBRANCH  28  29
ENDBRANCH  27  28
ENDBRANCH  26  27
ENDBRANCH  23  26
ENDBRANCH  21  22
ENDBRANCH  20  21
ENDBRANCH  17  20
ENDBRANCH  15  16
BRANCH  15  31
ATOM     31  O   UNL     1       1.159  -6.281  25.056  0.00  0.00    -0.382 OA
ATOM     32  H   UNL     1       0.656  -5.828  25.754  0.00  0.00    +0.210 HD
ENDBRANCH  15  31
ENDBRANCH  13  15
ENDBRANCH  11  13
ENDBRANCH  10  11
ENDBRANCH   6  10
ENDBRANCH   5   6
ENDBRANCH   1   5
BRANCH   1  33
ATOM     33  O   UNL     1       7.683  -2.815  26.754  0.00  0.00    -0.284 OA
BRANCH  33  34
ATOM     34  C   UNL     1       7.882  -1.668  25.900  0.00  0.00    +0.206 C 
BRANCH  34  35
ATOM     35  C   UNL     1       6.718  -0.800  25.467  0.00  0.00    +0.179 C 
ATOM     36  C   UNL     1       6.229   0.140  26.553  0.00  0.00    +0.194 C 
ATOM     37  C   UNL     1       6.707   1.505  26.095  0.00  0.00    +0.196 C 
ATOM     38  C   UNL     1       7.500   1.237  24.807  0.00  0.00    +0.253 C 
ATOM     39  O   UNL     1       7.079  -0.033  24.318  0.00  0.00    -0.346 OA
BRANCH  38  40
ATOM     40  N   UNL     1       7.262   2.241  23.793  0.00  0.00    -0.286 N 
ATOM     41  C   UNL     1       7.914   3.438  23.758  0.00  0.00    +0.167 A 
ATOM     42  N   UNL     1       8.872   3.863  24.598  0.00  0.00    -0.216 NA
ATOM     43  C   UNL     1       9.269   5.110  24.270  0.00  0.00    +0.225 A 
ATOM     44  N   UNL     1       8.809   5.900  23.276  0.00  0.00    -0.219 NA
ATOM     45  C   UNL     1       7.816   5.429  22.485  0.00  0.00    +0.147 A 
ATOM     46  N   UNL     1       7.326   6.252  21.480  0.00  0.00    -0.341 N 
ATOM     47  H   UNL     1       6.849   5.749  20.741  0.00  0.00    +0.144 HD
ATOM     48  H   UNL     1       7.985   6.970  21.214  0.00  0.00    +0.144 HD
ATOM     49  C   UNL     1       7.341   4.126  22.704  0.00  0.00    +0.147 A 
ATOM     50  N   UNL     1       6.385   3.350  22.080  0.00  0.00    -0.231 NA
ATOM     51  C   UNL     1       6.366   2.222  22.761  0.00  0.00    +0.203 A 
ENDBRANCH  38  40
BRANCH  37  52
ATOM     52  O   UNL     1       7.522   2.080  27.116  0.00  0.00    -0.385 OA
ATOM     53  H   UNL     1       7.282   1.624  27.950  0.00  0.00    +0.210 HD
ENDBRANCH  37  52
BRANCH  36  54
ATOM     54  O   UNL     1       4.805   0.041  26.576  0.00  0.00    -0.278 OA
BRANCH  54  55
ATOM     55  P   UNL     1       4.058  -0.579  27.850  0.00  0.00    +0.473 P 
ATOM     56  O   UNL     1       2.598  -0.807  27.692  0.00  0.00    -0.228 OA
BRANCH  55  57
ATOM     57  O   UNL     1       4.934  -1.895  28.068  0.00  0.00    -0.303 OA
ATOM     58  H   UNL     1       5.031  -2.403  27.245  0.00  0.00    +0.222 HD
ENDBRANCH  55  57
BRANCH  55  59
ATOM     59  O   UNL     1       4.539   0.338  29.059  0.00  0.00    -0.303 OA
ATOM     60  H   UNL     1       3.905   0.428  29.786  0.00  0.00    +0.222 HD
ENDBRANCH  55  59
ENDBRANCH  54  55
ENDBRANCH  36  54
ENDBRANCH  34  35
ENDBRANCH  33  34
ENDBRANCH   1  33
TORSDOF 26
ENDMDL
MODEL 9
REMARK VINA RESULT:      -5.6      2.468      4.387
REMARK  Name = 
REMARK  28 active torsions:
REMARK  status: ('A' for Active; 'I' for Inactive)
REMARK    1  A    between atoms: C_1  and  C_2
REMARK    2  A    between atoms: C_2  and  C_3
REMARK    3  A    between atoms: C_2  and  C_4
REMARK    4  A    between atoms: C_2  and  C_40
REMARK    5  A    between atoms: C_4  and  O_5
REMARK    6  A    between atoms: O_5  and  P_6
REMARK    7  A    between atoms: P_6  and  O_7
REMARK    8  A    between atoms: P_6  and  O_9
REMARK    9  A    between atoms: O_9  and  P_10
REMARK   10  A    between atoms: P_10  and  O_11
REMARK   11  A    between atoms: P_10  and  O_13
REMARK   12  A    between atoms: O_13  and  C_14
REMARK   13  A    between atoms: C_14  and  C_15
REMARK   14  A    between atoms: C_18  and  N_30
REMARK   15  A    between atoms: C_20  and  O_22
REMARK   16  A    between atoms: C_23  and  O_25
REMARK   17  A    between atoms: O_25  and  P_26
REMARK   18  A    between atoms: P_26  and  O_27
REMARK   19  A    between atoms: P_26  and  O_28
REMARK   20  A    between atoms: C_40  and  O_42
REMARK   21  A    between atoms: C_40  and  C_43
REMARK   22  A    between atoms: N_45  and  C_46
REMARK   23  A    between atoms: C_46  and  C_47
REMARK   24  A    between atoms: C_47  and  C_48
REMARK   25  A    between atoms: N_50  and  C_51
REMARK   26  A    between atoms: C_51  and  C_52
REMARK   27  A    between atoms: C_52  and  S_53
REMARK   28  A    between atoms: S_53  and  O_54
REMARK                            x       y       z     vdW  Elec       q    Type
REMARK                         _______ _______ _______ _____ _____    ______ ____
ROOT
ATOM      1  P   UNL     1       7.554  -4.324  23.543  0.00  0.00    +0.483 P 
ATOM      2  O   UNL     1       6.854  -5.567  23.095  0.00  0.00    -0.227 OA
ENDROOT
BRANCH   1   3
ATOM      3  O   UNL     1       7.754  -3.283  22.345  0.00  0.00    -0.302 OA
ATOM      4  H   UNL     1       6.880  -3.080  21.954  0.00  0.00    +0.222 HD
ENDBRANCH   1   3
BRANCH   1   5
ATOM      5  O   UNL     1       9.056  -4.564  24.068  0.00  0.00    -0.186 OA
BRANCH   5   6
ATOM      6  P   UNL     1       8.905  -4.817  25.652  0.00  0.00    +0.483 P 
ATOM      7  O   UNL     1       8.784  -3.565  26.461  0.00  0.00    -0.227 OA
BRANCH   6   8
ATOM      8  O   UNL     1      10.231  -5.662  25.969  0.00  0.00    -0.302 OA
ATOM      9  H   UNL     1      11.014  -5.080  26.034  0.00  0.00    +0.222 HD
ENDBRANCH   6   8
BRANCH   6  10
ATOM     10  O   UNL     1       7.783  -5.895  26.066  0.00  0.00    -0.286 OA
BRANCH  10  11
ATOM     11  C   UNL     1       7.279  -5.616  27.392  0.00  0.00    +0.181 C 
BRANCH  11  13
ATOM     12  C   UNL     1       5.275  -6.248  26.115  0.00  0.00    +0.016 C 
ATOM     13  C   UNL     1       5.751  -5.724  27.486  0.00  0.00    +0.024 C 
ATOM     14  C   UNL     1       5.355  -6.784  28.539  0.00  0.00    +0.016 C 
BRANCH  13  15
ATOM     15  C   UNL     1       5.137  -4.335  27.823  0.00  0.00    +0.208 C 
BRANCH  15  16
ATOM     16  C   UNL     1       3.747  -4.079  27.169  0.00  0.00    +0.242 C 
ATOM     17  N   UNL     1       2.698  -4.706  27.812  0.00  0.00    -0.313 N 
ATOM     18  H   UNL     1       2.848  -4.937  28.789  0.00  0.00    +0.149 HD
ATOM     19  O   UNL     1       3.571  -3.429  26.142  0.00  0.00    -0.273 OA
BRANCH  17  20
ATOM     20  C   UNL     1       1.339  -4.532  27.326  0.00  0.00    +0.113 C 
BRANCH  20  21
ATOM     21  C   UNL     1       0.563  -5.847  27.304  0.00  0.00    +0.114 C 
BRANCH  21  22
ATOM     22  C   UNL     1       1.216  -6.822  26.352  0.00  0.00    +0.215 C 
ATOM     23  N   UNL     1       0.719  -6.777  25.069  0.00  0.00    -0.314 N 
ATOM     24  H   UNL     1      -0.117  -6.239  24.880  0.00  0.00    +0.149 HD
ATOM     25  O   UNL     1       2.147  -7.552  26.679  0.00  0.00    -0.276 OA
BRANCH  23  26
ATOM     26  C   UNL     1       1.253  -7.633  24.019  0.00  0.00    +0.117 C 
BRANCH  26  27
ATOM     27  C   UNL     1       1.723  -6.850  22.791  0.00  0.00    +0.118 C 
BRANCH  27  28
ATOM     28  S   UNL     1       2.969  -5.616  23.296  0.00  0.00    -0.010 S 
BRANCH  28  29
ATOM     29  O   UNL     1       4.225  -6.061  22.302  0.00  0.00    -0.329 OA
ATOM     30  H   UNL     1       4.630  -5.268  21.870  0.00  0.00    +0.227 HD
ENDBRANCH  28  29
ENDBRANCH  27  28
ENDBRANCH  26  27
ENDBRANCH  23  26
ENDBRANCH  21  22
ENDBRANCH  20  21
ENDBRANCH  17  20
ENDBRANCH  15  16
BRANCH  15  31
ATOM     31  O   UNL     1       6.014  -3.265  27.454  0.00  0.00    -0.382 OA
ATOM     32  H   UNL     1       5.543  -2.430  27.619  0.00  0.00    +0.210 HD
ENDBRANCH  15  31
ENDBRANCH  13  15
ENDBRANCH  11  13
ENDBRANCH  10  11
ENDBRANCH   6  10
ENDBRANCH   5   6
ENDBRANCH   1   5
BRANCH   1  33
ATOM     33  O   UNL     1       6.568  -3.473  24.534  0.00  0.00    -0.284 OA
BRANCH  33  34
ATOM     34  C   UNL     1       5.898  -2.511  23.690  0.00  0.00    +0.206 C 
BRANCH  34  35
ATOM     35  C   UNL     1       5.958  -1.027  23.993  0.00  0.00    +0.179 C 
ATOM     36  C   UNL     1       5.853  -0.707  25.472  0.00  0.00    +0.194 C 
ATOM     37  C   UNL     1       7.260  -0.285  25.854  0.00  0.00    +0.196 C 
ATOM     38  C   UNL     1       8.089  -0.462  24.573  0.00  0.00    +0.253 C 
ATOM     39  O   UNL     1       7.172  -0.473  23.483  0.00  0.00    -0.346 OA
BRANCH  38  40
ATOM     40  N   UNL     1       9.044   0.608  24.382  0.00  0.00    -0.286 N 
ATOM     41  C   UNL     1       8.681   1.905  24.169  0.00  0.00    +0.167 A 
ATOM     42  N   UNL     1       7.433   2.402  24.137  0.00  0.00    -0.216 NA
ATOM     43  C   UNL     1       7.458   3.726  23.879  0.00  0.00    +0.225 A 
ATOM     44  N   UNL     1       8.531   4.514  23.651  0.00  0.00    -0.219 NA
ATOM     45  C   UNL     1       9.761   3.947  23.660  0.00  0.00    +0.147 A 
ATOM     46  N   UNL     1      10.861   4.752  23.398  0.00  0.00    -0.341 N 
ATOM     47  H   UNL     1      11.735   4.369  23.740  0.00  0.00    +0.144 HD
ATOM     48  H   UNL     1      10.674   5.730  23.573  0.00  0.00    +0.144 HD
ATOM     49  C   UNL     1       9.869   2.578  23.953  0.00  0.00    +0.147 A 
ATOM     50  N   UNL     1      10.942   1.718  24.070  0.00  0.00    -0.231 NA
ATOM     51  C   UNL     1      10.408   0.541  24.330  0.00  0.00    +0.203 A 
ENDBRANCH  38  40
BRANCH  37  52
ATOM     52  O   UNL     1       7.725  -1.121  26.913  0.00  0.00    -0.385 OA
ATOM     53  H   UNL     1       7.928  -0.527  27.666  0.00  0.00    +0.210 HD
ENDBRANCH  37  52
BRANCH  36  54
ATOM     54  O   UNL     1       4.912   0.358  25.599  0.00  0.00    -0.278 OA
BRANCH  54  55
ATOM     55  P   UNL     1       4.213   0.655  27.010  0.00  0.00    +0.473 P 
ATOM     56  O   UNL     1       4.773   1.797  27.778  0.00  0.00    -0.228 OA
BRANCH  55  57
ATOM     57  O   UNL     1       2.699   0.830  26.535  0.00  0.00    -0.303 OA
ATOM     58  H   UNL     1       2.144   0.085  26.820  0.00  0.00    +0.222 HD
ENDBRANCH  55  57
BRANCH  55  59
ATOM     59  O   UNL     1       4.171  -0.768  27.722  0.00  0.00    -0.303 OA
ATOM     60  H   UNL     1       3.287  -1.150  27.830  0.00  0.00    +0.222 HD
ENDBRANCH  55  59
ENDBRANCH  54  55
ENDBRANCH  36  54
ENDBRANCH  34  35
ENDBRANCH  33  34
ENDBRANCH   1  33
TORSDOF 26
ENDMDL
