MODEL 1
REMARK VINA RESULT:      -7.1      0.000      0.000
REMARK  Name = 
REMARK  9 active torsions:
REMARK  status: ('A' for Active; 'I' for Inactive)
REMARK    1  A    between atoms: C_1  and  O_2
REMARK    2  A    between atoms: O_2  and  C_3
REMARK    3  A    between atoms: C_6  and  C_7
REMARK    4  A    between atoms: C_8  and  C_9
REMARK    5  A    between atoms: N_11  and  C_12
REMARK    6  A    between atoms: C_17  and  C_18
REMARK    7  A    between atoms: C_18  and  O_19
REMARK    8  A    between atoms: C_22  and  O_23
REMARK    9  A    between atoms: O_23  and  C_24
REMARK                            x       y       z     vdW  Elec       q    Type
REMARK                         _______ _______ _______ _____ _____    ______ ____
ROOT
ATOM      1  C   UNL     1       8.622  -4.416  24.467  0.00  0.00    +0.241 C 
ATOM      2  N   UNL     1       7.269  -4.220  24.650  0.00  0.00    -0.281 N 
ATOM      3  H   UNL     1       6.913  -3.263  24.588  0.00  0.00    +0.155 HD
ATOM      4  O   UNL     1       9.210  -5.490  24.494  0.00  0.00    -0.270 OA
ENDROOT
BRANCH   2   5
ATOM      5  C   UNL     1       6.275  -5.223  24.836  0.00  0.00    +0.048 A 
ATOM      6  C   UNL     1       6.031  -5.752  26.126  0.00  0.00    +0.080 A 
ATOM      7  C   UNL     1       4.999  -6.692  26.321  0.00  0.00    +0.017 A 
ATOM      8  C   UNL     1       4.242  -7.147  25.241  0.00  0.00    +0.001 A 
ATOM      9  C   UNL     1       4.498  -6.655  23.969  0.00  0.00    +0.002 A 
ATOM     10  C   UNL     1       5.499  -5.701  23.771  0.00  0.00    +0.024 A 
BRANCH   6  11
ATOM     11  C   UNL     1       6.841  -5.291  27.289  0.00  0.00    +0.339 C 
ATOM     12  O   UNL     1       6.478  -4.385  28.026  0.00  0.00    -0.245 OA
BRANCH  11  13
ATOM     13  O   UNL     1       8.036  -5.903  27.430  0.00  0.00    -0.477 OA
ATOM     14  H   UNL     1       8.033  -6.871  27.317  0.00  0.00    +0.295 HD
ENDBRANCH  11  13
ENDBRANCH   6  11
ENDBRANCH   2   5
BRANCH   1  16
ATOM     15  C   UNL     1       8.645  -2.046  23.972  0.00  0.00    +0.013 C 
ATOM     16  C   UNL     1       9.370  -3.155  24.202  0.00  0.00    +0.068 C 
BRANCH  15  20
ATOM     17  C   UNL     1      10.313   1.878  23.492  0.00  0.00    +0.162 A 
ATOM     18  C   UNL     1       9.226   1.496  22.688  0.00  0.00    +0.162 A 
ATOM     19  C   UNL     1       8.669   0.213  22.844  0.00  0.00    +0.057 A 
ATOM     20  C   UNL     1       9.168  -0.691  23.786  0.00  0.00    -0.021 A 
ATOM     21  C   UNL     1      10.196  -0.269  24.631  0.00  0.00    +0.012 A 
ATOM     22  C   UNL     1      10.759   0.998  24.488  0.00  0.00    +0.050 A 
BRANCH  17  24
ATOM     23  C   UNL     1      10.158   4.219  23.825  0.00  0.00    +0.277 C 
ATOM     24  O   UNL     1      10.894   3.108  23.315  0.00  0.00    -0.491 OA
ENDBRANCH  17  24
BRANCH  18  25
ATOM     25  O   UNL     1       8.589   2.208  21.706  0.00  0.00    -0.491 OA
ATOM     26  C   UNL     1       7.233   2.579  21.891  0.00  0.00    +0.277 C 
ENDBRANCH  18  25
ENDBRANCH  15  20
ENDBRANCH   1  16
TORSDOF 7
ENDMDL
MODEL 2
REMARK VINA RESULT:      -7.0      2.463      3.894
REMARK  Name = 
REMARK  9 active torsions:
REMARK  status: ('A' for Active; 'I' for Inactive)
REMARK    1  A    between atoms: C_1  and  O_2
REMARK    2  A    between atoms: O_2  and  C_3
REMARK    3  A    between atoms: C_6  and  C_7
REMARK    4  A    between atoms: C_8  and  C_9
REMARK    5  A    between atoms: N_11  and  C_12
REMARK    6  A    between atoms: C_17  and  C_18
REMARK    7  A    between atoms: C_18  and  O_19
REMARK    8  A    between atoms: C_22  and  O_23
REMARK    9  A    between atoms: O_23  and  C_24
REMARK                            x       y       z     vdW  Elec       q    Type
REMARK                         _______ _______ _______ _____ _____    ______ ____
ROOT
ATOM      1  C   UNL     1       9.819  -1.304  23.081  0.00  0.00    +0.241 C 
ATOM      2  N   UNL     1       8.623  -1.807  23.549  0.00  0.00    -0.281 N 
ATOM      3  H   UNL     1       8.080  -1.225  24.191  0.00  0.00    +0.155 HD
ATOM      4  O   UNL     1      10.584  -1.857  22.301  0.00  0.00    -0.270 OA
ENDROOT
BRANCH   2   5
ATOM      5  C   UNL     1       8.001  -3.031  23.170  0.00  0.00    +0.048 A 
ATOM      6  C   UNL     1       8.254  -4.215  23.904  0.00  0.00    +0.080 A 
ATOM      7  C   UNL     1       7.584  -5.409  23.571  0.00  0.00    +0.017 A 
ATOM      8  C   UNL     1       6.704  -5.451  22.490  0.00  0.00    +0.001 A 
ATOM      9  C   UNL     1       6.476  -4.301  21.747  0.00  0.00    +0.002 A 
ATOM     10  C   UNL     1       7.114  -3.105  22.087  0.00  0.00    +0.024 A 
BRANCH   6  11
ATOM     11  C   UNL     1       9.204  -4.193  25.052  0.00  0.00    +0.339 C 
ATOM     12  O   UNL     1       9.049  -3.464  26.022  0.00  0.00    -0.245 OA
BRANCH  11  13
ATOM     13  O   UNL     1      10.284  -4.992  24.913  0.00  0.00    -0.477 OA
ATOM     14  H   UNL     1      10.666  -5.037  24.018  0.00  0.00    +0.295 HD
ENDBRANCH  11  13
ENDBRANCH   6  11
ENDBRANCH   2   5
BRANCH   1  16
ATOM     15  C   UNL     1       9.905   1.099  22.798  0.00  0.00    +0.013 C 
ATOM     16  C   UNL     1      10.136   0.053  23.610  0.00  0.00    +0.068 C 
BRANCH  15  20
ATOM     17  C   UNL     1      10.194   5.239  23.885  0.00  0.00    +0.162 A 
ATOM     18  C   UNL     1      11.365   4.540  23.545  0.00  0.00    +0.162 A 
ATOM     19  C   UNL     1      11.277   3.183  23.181  0.00  0.00    +0.057 A 
ATOM     20  C   UNL     1      10.051   2.515  23.143  0.00  0.00    -0.021 A 
ATOM     21  C   UNL     1       8.889   3.243  23.405  0.00  0.00    +0.012 A 
ATOM     22  C   UNL     1       8.960   4.587  23.769  0.00  0.00    +0.050 A 
BRANCH  17  24
ATOM     23  C   UNL     1       9.339   6.948  25.287  0.00  0.00    +0.277 C 
ATOM     24  O   UNL     1      10.275   6.548  24.287  0.00  0.00    -0.491 OA
ENDBRANCH  17  24
BRANCH  18  25
ATOM     25  O   UNL     1      12.660   4.987  23.523  0.00  0.00    -0.491 OA
ATOM     26  C   UNL     1      13.168   5.572  22.335  0.00  0.00    +0.277 C 
ENDBRANCH  18  25
ENDBRANCH  15  20
ENDBRANCH   1  16
TORSDOF 7
ENDMDL
MODEL 3
REMARK VINA RESULT:      -6.9      1.391      2.283
REMARK  Name = 
REMARK  9 active torsions:
REMARK  status: ('A' for Active; 'I' for Inactive)
REMARK    1  A    between atoms: C_1  and  O_2
REMARK    2  A    between atoms: O_2  and  C_3
REMARK    3  A    between atoms: C_6  and  C_7
REMARK    4  A    between atoms: C_8  and  C_9
REMARK    5  A    between atoms: N_11  and  C_12
REMARK    6  A    between atoms: C_17  and  C_18
REMARK    7  A    between atoms: C_18  and  O_19
REMARK    8  A    between atoms: C_22  and  O_23
REMARK    9  A    between atoms: O_23  and  C_24
REMARK                            x       y       z     vdW  Elec       q    Type
REMARK                         _______ _______ _______ _____ _____    ______ ____
ROOT
ATOM      1  C   UNL     1       8.444  -4.414  24.340  0.00  0.00    +0.241 C 
ATOM      2  N   UNL     1       7.098  -4.215  24.566  0.00  0.00    -0.281 N 
ATOM      3  H   UNL     1       6.727  -3.272  24.435  0.00  0.00    +0.155 HD
ATOM      4  O   UNL     1       9.047  -5.476  24.437  0.00  0.00    -0.270 OA
ENDROOT
BRANCH   2   5
ATOM      5  C   UNL     1       6.127  -5.207  24.884  0.00  0.00    +0.048 A 
ATOM      6  C   UNL     1       5.333  -5.780  23.861  0.00  0.00    +0.080 A 
ATOM      7  C   UNL     1       4.423  -6.812  24.166  0.00  0.00    +0.017 A 
ATOM      8  C   UNL     1       4.259  -7.245  25.482  0.00  0.00    +0.001 A 
ATOM      9  C   UNL     1       5.011  -6.666  26.494  0.00  0.00    +0.002 A 
ATOM     10  C   UNL     1       5.937  -5.663  26.196  0.00  0.00    +0.024 A 
BRANCH   6  11
ATOM     11  C   UNL     1       5.483  -5.318  22.452  0.00  0.00    +0.339 C 
ATOM     12  O   UNL     1       5.222  -4.175  22.103  0.00  0.00    -0.245 OA
BRANCH  11  13
ATOM     13  O   UNL     1       5.866  -6.271  21.577  0.00  0.00    -0.477 OA
ATOM     14  H   UNL     1       5.591  -7.181  21.792  0.00  0.00    +0.295 HD
ENDBRANCH  11  13
ENDBRANCH   6  11
ENDBRANCH   2   5
BRANCH   1  16
ATOM     15  C   UNL     1       8.494  -2.013  24.033  0.00  0.00    +0.013 C 
ATOM     16  C   UNL     1       9.163  -3.175  23.931  0.00  0.00    +0.068 C 
BRANCH  15  20
ATOM     17  C   UNL     1      10.213   1.858  23.353  0.00  0.00    +0.162 A 
ATOM     18  C   UNL     1       9.090   1.470  22.603  0.00  0.00    +0.162 A 
ATOM     19  C   UNL     1       8.516   0.204  22.825  0.00  0.00    +0.057 A 
ATOM     20  C   UNL     1       9.033  -0.676  23.779  0.00  0.00    -0.021 A 
ATOM     21  C   UNL     1      10.099  -0.245  24.571  0.00  0.00    +0.012 A 
ATOM     22  C   UNL     1      10.679   1.006  24.363  0.00  0.00    +0.050 A 
BRANCH  17  24
ATOM     23  C   UNL     1      10.253   4.183  23.809  0.00  0.00    +0.277 C 
ATOM     24  O   UNL     1      10.808   3.070  23.111  0.00  0.00    -0.491 OA
ENDBRANCH  17  24
BRANCH  18  25
ATOM     25  O   UNL     1       8.430   2.159  21.619  0.00  0.00    -0.491 OA
ATOM     26  C   UNL     1       7.286   2.925  21.962  0.00  0.00    +0.277 C 
ENDBRANCH  18  25
ENDBRANCH  15  20
ENDBRANCH   1  16
TORSDOF 7
ENDMDL
MODEL 4
REMARK VINA RESULT:      -6.7      2.369      8.372
REMARK  Name = 
REMARK  9 active torsions:
REMARK  status: ('A' for Active; 'I' for Inactive)
REMARK    1  A    between atoms: C_1  and  O_2
REMARK    2  A    between atoms: O_2  and  C_3
REMARK    3  A    between atoms: C_6  and  C_7
REMARK    4  A    between atoms: C_8  and  C_9
REMARK    5  A    between atoms: N_11  and  C_12
REMARK    6  A    between atoms: C_17  and  C_18
REMARK    7  A    between atoms: C_18  and  O_19
REMARK    8  A    between atoms: C_22  and  O_23
REMARK    9  A    between atoms: O_23  and  C_24
REMARK                            x       y       z     vdW  Elec       q    Type
REMARK                         _______ _______ _______ _____ _____    ______ ____
ROOT
ATOM      1  C   UNL     1       9.008  -2.474  23.243  0.00  0.00    +0.241 C 
ATOM      2  N   UNL     1       8.364  -1.267  23.068  0.00  0.00    -0.281 N 
ATOM      3  H   UNL     1       7.347  -1.279  22.965  0.00  0.00    +0.155 HD
ATOM      4  O   UNL     1      10.212  -2.640  23.395  0.00  0.00    -0.270 OA
ENDROOT
BRANCH   2   5
ATOM      5  C   UNL     1       8.953   0.030  23.099  0.00  0.00    +0.048 A 
ATOM      6  C   UNL     1       9.062   0.732  24.324  0.00  0.00    +0.080 A 
ATOM      7  C   UNL     1       9.709   1.984  24.366  0.00  0.00    +0.017 A 
ATOM      8  C   UNL     1      10.202   2.565  23.198  0.00  0.00    +0.001 A 
ATOM      9  C   UNL     1      10.070   1.896  21.990  0.00  0.00    +0.002 A 
ATOM     10  C   UNL     1       9.457   0.642  21.943  0.00  0.00    +0.024 A 
BRANCH   6  11
ATOM     11  C   UNL     1       8.526   0.134  25.579  0.00  0.00    +0.339 C 
ATOM     12  O   UNL     1       7.329  -0.038  25.768  0.00  0.00    -0.245 OA
BRANCH  11  13
ATOM     13  O   UNL     1       9.453  -0.145  26.520  0.00  0.00    -0.477 OA
ATOM     14  H   UNL     1       9.993  -0.941  26.361  0.00  0.00    +0.295 HD
ENDBRANCH  11  13
ENDBRANCH   6  11
ENDBRANCH   2   5
BRANCH   1  16
ATOM     15  C   UNL     1       7.434  -3.906  24.399  0.00  0.00    +0.013 C 
ATOM     16  C   UNL     1       8.081  -3.641  23.250  0.00  0.00    +0.068 C 
BRANCH  15  20
ATOM     17  C   UNL     1       4.446  -6.953  24.839  0.00  0.00    +0.162 A 
ATOM     18  C   UNL     1       5.207  -6.578  25.959  0.00  0.00    +0.162 A 
ATOM     19  C   UNL     1       6.185  -5.574  25.824  0.00  0.00    +0.057 A 
ATOM     20  C   UNL     1       6.413  -4.936  24.603  0.00  0.00    -0.021 A 
ATOM     21  C   UNL     1       5.595  -5.262  23.520  0.00  0.00    +0.012 A 
ATOM     22  C   UNL     1       4.623  -6.255  23.637  0.00  0.00    +0.050 A 
BRANCH  17  24
ATOM     23  C   UNL     1       2.191  -7.554  25.255  0.00  0.00    +0.277 C 
ATOM     24  O   UNL     1       3.523  -7.962  24.949  0.00  0.00    -0.491 OA
ENDBRANCH  17  24
BRANCH  18  25
ATOM     25  O   UNL     1       5.160  -7.070  27.237  0.00  0.00    -0.491 OA
ATOM     26  C   UNL     1       4.820  -6.197  28.301  0.00  0.00    +0.277 C 
ENDBRANCH  18  25
ENDBRANCH  15  20
ENDBRANCH   1  16
TORSDOF 7
ENDMDL
MODEL 5
REMARK VINA RESULT:      -6.5      2.199      8.697
REMARK  Name = 
REMARK  9 active torsions:
REMARK  status: ('A' for Active; 'I' for Inactive)
REMARK    1  A    between atoms: C_1  and  O_2
REMARK    2  A    between atoms: O_2  and  C_3
REMARK    3  A    between atoms: C_6  and  C_7
REMARK    4  A    between atoms: C_8  and  C_9
REMARK    5  A    between atoms: N_11  and  C_12
REMARK    6  A    between atoms: C_17  and  C_18
REMARK    7  A    between atoms: C_18  and  O_19
REMARK    8  A    between atoms: C_22  and  O_23
REMARK    9  A    between atoms: O_23  and  C_24
REMARK                            x       y       z     vdW  Elec       q    Type
REMARK                         _______ _______ _______ _____ _____    ______ ____
ROOT
ATOM      1  C   UNL     1       9.882   0.985  22.746  0.00  0.00    +0.241 C 
ATOM      2  N   UNL     1      10.103   1.812  23.827  0.00  0.00    -0.281 N 
ATOM      3  H   UNL     1      10.143   1.383  24.755  0.00  0.00    +0.155 HD
ATOM      4  O   UNL     1       9.818   1.327  21.571  0.00  0.00    -0.270 OA
ENDROOT
BRANCH   2   5
ATOM      5  C   UNL     1      10.373   3.210  23.796  0.00  0.00    +0.048 A 
ATOM      6  C   UNL     1       9.397   4.133  24.245  0.00  0.00    +0.080 A 
ATOM      7  C   UNL     1       9.692   5.511  24.281  0.00  0.00    +0.017 A 
ATOM      8  C   UNL     1      10.924   5.984  23.830  0.00  0.00    +0.001 A 
ATOM      9  C   UNL     1      11.872   5.087  23.359  0.00  0.00    +0.002 A 
ATOM     10  C   UNL     1      11.600   3.717  23.347  0.00  0.00    +0.024 A 
BRANCH   6  11
ATOM     11  C   UNL     1       8.069   3.647  24.715  0.00  0.00    +0.339 C 
ATOM     12  O   UNL     1       7.019   3.996  24.194  0.00  0.00    -0.245 OA
BRANCH  11  13
ATOM     13  O   UNL     1       8.107   2.842  25.798  0.00  0.00    -0.477 OA
ATOM     14  H   UNL     1       8.888   2.264  25.871  0.00  0.00    +0.295 HD
ENDBRANCH  11  13
ENDBRANCH   6  11
ENDBRANCH   2   5
BRANCH   1  16
ATOM     15  C   UNL     1       9.014  -0.723  24.226  0.00  0.00    +0.013 C 
ATOM     16  C   UNL     1       9.728  -0.449  23.121  0.00  0.00    +0.068 C 
BRANCH  15  20
ATOM     17  C   UNL     1       7.887  -4.553  25.797  0.00  0.00    +0.162 A 
ATOM     18  C   UNL     1       8.296  -4.460  24.456  0.00  0.00    +0.162 A 
ATOM     19  C   UNL     1       8.673  -3.207  23.935  0.00  0.00    +0.057 A 
ATOM     20  C   UNL     1       8.658  -2.054  24.722  0.00  0.00    -0.021 A 
ATOM     21  C   UNL     1       8.326  -2.176  26.073  0.00  0.00    +0.012 A 
ATOM     22  C   UNL     1       7.949  -3.409  26.604  0.00  0.00    +0.050 A 
BRANCH  17  24
ATOM     23  C   UNL     1       6.061  -5.935  26.405  0.00  0.00    +0.277 C 
ATOM     24  O   UNL     1       7.472  -5.760  26.301  0.00  0.00    -0.491 OA
ENDBRANCH  17  24
BRANCH  18  25
ATOM     25  O   UNL     1       8.378  -5.447  23.509  0.00  0.00    -0.491 OA
ATOM     26  C   UNL     1       7.331  -5.585  22.563  0.00  0.00    +0.277 C 
ENDBRANCH  18  25
ENDBRANCH  15  20
ENDBRANCH   1  16
TORSDOF 7
ENDMDL
MODEL 6
REMARK VINA RESULT:      -6.5      2.661      9.105
REMARK  Name = 
REMARK  9 active torsions:
REMARK  status: ('A' for Active; 'I' for Inactive)
REMARK    1  A    between atoms: C_1  and  O_2
REMARK    2  A    between atoms: O_2  and  C_3
REMARK    3  A    between atoms: C_6  and  C_7
REMARK    4  A    between atoms: C_8  and  C_9
REMARK    5  A    between atoms: N_11  and  C_12
REMARK    6  A    between atoms: C_17  and  C_18
REMARK    7  A    between atoms: C_18  and  O_19
REMARK    8  A    between atoms: C_22  and  O_23
REMARK    9  A    between atoms: O_23  and  C_24
REMARK                            x       y       z     vdW  Elec       q    Type
REMARK                         _______ _______ _______ _____ _____    ______ ____
ROOT
ATOM      1  C   UNL     1      10.565   1.275  23.709  0.00  0.00    +0.241 C 
ATOM      2  N   UNL     1      10.134   2.477  23.188  0.00  0.00    -0.281 N 
ATOM      3  H   UNL     1       9.334   2.461  22.551  0.00  0.00    +0.155 HD
ATOM      4  O   UNL     1      11.493   1.115  24.493  0.00  0.00    -0.270 OA
ENDROOT
BRANCH   2   5
ATOM      5  C   UNL     1      10.627   3.775  23.505  0.00  0.00    +0.048 A 
ATOM      6  C   UNL     1       9.776   4.731  24.110  0.00  0.00    +0.080 A 
ATOM      7  C   UNL     1      10.284   5.990  24.488  0.00  0.00    +0.017 A 
ATOM      8  C   UNL     1      11.612   6.326  24.228  0.00  0.00    +0.001 A 
ATOM      9  C   UNL     1      12.443   5.404  23.608  0.00  0.00    +0.002 A 
ATOM     10  C   UNL     1      11.956   4.143  23.255  0.00  0.00    +0.024 A 
BRANCH   6  11
ATOM     11  C   UNL     1       8.349   4.397  24.379  0.00  0.00    +0.339 C 
ATOM     12  O   UNL     1       7.421   4.992  23.849  0.00  0.00    -0.245 OA
BRANCH  11  13
ATOM     13  O   UNL     1       8.154   3.431  25.303  0.00  0.00    -0.477 OA
ATOM     14  H   UNL     1       7.411   3.574  25.917  0.00  0.00    +0.295 HD
ENDBRANCH  11  13
ENDBRANCH   6  11
ENDBRANCH   2   5
BRANCH   1  16
ATOM     15  C   UNL     1       9.825  -1.014  23.977  0.00  0.00    +0.013 C 
ATOM     16  C   UNL     1       9.768   0.108  23.238  0.00  0.00    +0.068 C 
BRANCH  15  20
ATOM     17  C   UNL     1       7.559  -4.568  23.173  0.00  0.00    +0.162 A 
ATOM     18  C   UNL     1       8.340  -4.507  24.340  0.00  0.00    +0.162 A 
ATOM     19  C   UNL     1       9.082  -3.342  24.614  0.00  0.00    +0.057 A 
ATOM     20  C   UNL     1       9.054  -2.240  23.756  0.00  0.00    -0.021 A 
ATOM     21  C   UNL     1       8.212  -2.285  22.643  0.00  0.00    +0.012 A 
ATOM     22  C   UNL     1       7.473  -3.432  22.358  0.00  0.00    +0.050 A 
BRANCH  17  24
ATOM     23  C   UNL     1       6.744  -6.017  21.485  0.00  0.00    +0.277 C 
ATOM     24  O   UNL     1       6.871  -5.716  22.873  0.00  0.00    -0.491 OA
ENDBRANCH  17  24
BRANCH  18  25
ATOM     25  O   UNL     1       8.522  -5.461  25.307  0.00  0.00    -0.491 OA
ATOM     26  C   UNL     1       7.938  -5.268  26.585  0.00  0.00    +0.277 C 
ENDBRANCH  18  25
ENDBRANCH  15  20
ENDBRANCH   1  16
TORSDOF 7
ENDMDL
MODEL 7
REMARK VINA RESULT:      -6.5      2.416      8.611
REMARK  Name = 
REMARK  9 active torsions:
REMARK  status: ('A' for Active; 'I' for Inactive)
REMARK    1  A    between atoms: C_1  and  O_2
REMARK    2  A    between atoms: O_2  and  C_3
REMARK    3  A    between atoms: C_6  and  C_7
REMARK    4  A    between atoms: C_8  and  C_9
REMARK    5  A    between atoms: N_11  and  C_12
REMARK    6  A    between atoms: C_17  and  C_18
REMARK    7  A    between atoms: C_18  and  O_19
REMARK    8  A    between atoms: C_22  and  O_23
REMARK    9  A    between atoms: O_23  and  C_24
REMARK                            x       y       z     vdW  Elec       q    Type
REMARK                         _______ _______ _______ _____ _____    ______ ____
ROOT
ATOM      1  C   UNL     1       8.387  -1.412  25.943  0.00  0.00    +0.241 C 
ATOM      2  N   UNL     1       8.255  -0.860  24.686  0.00  0.00    -0.281 N 
ATOM      3  H   UNL     1       7.616  -1.315  24.030  0.00  0.00    +0.155 HD
ATOM      4  O   UNL     1       9.094  -0.990  26.850  0.00  0.00    -0.270 OA
ENDROOT
BRANCH   2   5
ATOM      5  C   UNL     1       8.851   0.343  24.211  0.00  0.00    +0.048 A 
ATOM      6  C   UNL     1       9.659   0.325  23.048  0.00  0.00    +0.080 A 
ATOM      7  C   UNL     1      10.190   1.528  22.538  0.00  0.00    +0.017 A 
ATOM      8  C   UNL     1       9.968   2.736  23.198  0.00  0.00    +0.001 A 
ATOM      9  C   UNL     1       9.203   2.755  24.356  0.00  0.00    +0.002 A 
ATOM     10  C   UNL     1       8.648   1.573  24.852  0.00  0.00    +0.024 A 
BRANCH   6  11
ATOM     11  C   UNL     1       9.921  -0.959  22.339  0.00  0.00    +0.339 C 
ATOM     12  O   UNL     1      10.435  -1.923  22.891  0.00  0.00    -0.245 OA
BRANCH  11  13
ATOM     13  O   UNL     1       9.609  -0.960  21.026  0.00  0.00    -0.477 OA
ATOM     14  H   UNL     1      10.145  -1.548  20.462  0.00  0.00    +0.295 HD
ENDBRANCH  11  13
ENDBRANCH   6  11
ENDBRANCH   2   5
BRANCH   1  16
ATOM     15  C   UNL     1       6.903  -3.115  25.071  0.00  0.00    +0.013 C 
ATOM     16  C   UNL     1       7.548  -2.627  26.145  0.00  0.00    +0.068 C 
BRANCH  15  20
ATOM     17  C   UNL     1       4.587  -6.713  24.763  0.00  0.00    +0.162 A 
ATOM     18  C   UNL     1       5.229  -6.417  25.977  0.00  0.00    +0.162 A 
ATOM     19  C   UNL     1       5.985  -5.235  26.089  0.00  0.00    +0.057 A 
ATOM     20  C   UNL     1       6.108  -4.344  25.020  0.00  0.00    -0.021 A 
ATOM     21  C   UNL     1       5.401  -4.611  23.847  0.00  0.00    +0.012 A 
ATOM     22  C   UNL     1       4.648  -5.778  23.721  0.00  0.00    +0.050 A 
BRANCH  17  24
ATOM     23  C   UNL     1       2.501  -7.820  24.960  0.00  0.00    +0.277 C 
ATOM     24  O   UNL     1       3.887  -7.885  24.630  0.00  0.00    -0.491 OA
ENDBRANCH  17  24
BRANCH  18  25
ATOM     25  O   UNL     1       5.252  -7.144  27.139  0.00  0.00    -0.491 OA
ATOM     26  C   UNL     1       4.587  -6.636  28.284  0.00  0.00    +0.277 C 
ENDBRANCH  18  25
ENDBRANCH  15  20
ENDBRANCH   1  16
TORSDOF 7
ENDMDL
MODEL 8
REMARK VINA RESULT:      -6.3      2.549      3.473
REMARK  Name = 
REMARK  9 active torsions:
REMARK  status: ('A' for Active; 'I' for Inactive)
REMARK    1  A    between atoms: C_1  and  O_2
REMARK    2  A    between atoms: O_2  and  C_3
REMARK    3  A    between atoms: C_6  and  C_7
REMARK    4  A    between atoms: C_8  and  C_9
REMARK    5  A    between atoms: N_11  and  C_12
REMARK    6  A    between atoms: C_17  and  C_18
REMARK    7  A    between atoms: C_18  and  O_19
REMARK    8  A    between atoms: C_22  and  O_23
REMARK    9  A    between atoms: O_23  and  C_24
REMARK                            x       y       z     vdW  Elec       q    Type
REMARK                         _______ _______ _______ _____ _____    ______ ____
ROOT
ATOM      1  C   UNL     1       6.528  -1.097  23.746  0.00  0.00    +0.241 C 
ATOM      2  N   UNL     1       7.279  -1.842  22.861  0.00  0.00    -0.281 N 
ATOM      3  H   UNL     1       8.054  -1.376  22.383  0.00  0.00    +0.155 HD
ATOM      4  O   UNL     1       5.580  -1.497  24.410  0.00  0.00    -0.270 OA
ENDROOT
BRANCH   2   5
ATOM      5  C   UNL     1       7.153  -3.235  22.592  0.00  0.00    +0.048 A 
ATOM      6  C   UNL     1       7.933  -4.172  23.312  0.00  0.00    +0.080 A 
ATOM      7  C   UNL     1       7.756  -5.553  23.096  0.00  0.00    +0.017 A 
ATOM      8  C   UNL     1       6.851  -6.010  22.139  0.00  0.00    +0.001 A 
ATOM      9  C   UNL     1       6.106  -5.095  21.407  0.00  0.00    +0.002 A 
ATOM     10  C   UNL     1       6.253  -3.725  21.636  0.00  0.00    +0.024 A 
BRANCH   6  11
ATOM     11  C   UNL     1       8.918  -3.701  24.327  0.00  0.00    +0.339 C 
ATOM     12  O   UNL     1       8.749  -3.852  25.529  0.00  0.00    -0.245 OA
BRANCH  11  13
ATOM     13  O   UNL     1       9.982  -3.038  23.824  0.00  0.00    -0.477 OA
ATOM     14  H   UNL     1      10.302  -2.286  24.354  0.00  0.00    +0.295 HD
ENDBRANCH  11  13
ENDBRANCH   6  11
ENDBRANCH   2   5
BRANCH   1  16
ATOM     15  C   UNL     1       8.297   0.556  23.696  0.00  0.00    +0.013 C 
ATOM     16  C   UNL     1       6.984   0.317  23.862  0.00  0.00    +0.068 C 
BRANCH  15  20
ATOM     17  C   UNL     1      10.326   4.334  23.571  0.00  0.00    +0.162 A 
ATOM     18  C   UNL     1       8.921   4.314  23.562  0.00  0.00    +0.162 A 
ATOM     19  C   UNL     1       8.248   3.079  23.610  0.00  0.00    +0.057 A 
ATOM     20  C   UNL     1       8.944   1.869  23.672  0.00  0.00    -0.021 A 
ATOM     21  C   UNL     1      10.337   1.909  23.760  0.00  0.00    +0.012 A 
ATOM     22  C   UNL     1      11.018   3.124  23.713  0.00  0.00    +0.050 A 
BRANCH  17  24
ATOM     23  C   UNL     1      12.380   5.443  23.161  0.00  0.00    +0.277 C 
ATOM     24  O   UNL     1      10.992   5.530  23.477  0.00  0.00    -0.491 OA
ENDBRANCH  17  24
BRANCH  18  25
ATOM     25  O   UNL     1       8.045   5.366  23.496  0.00  0.00    -0.491 OA
ATOM     26  C   UNL     1       7.390   5.642  22.269  0.00  0.00    +0.277 C 
ENDBRANCH  18  25
ENDBRANCH  15  20
ENDBRANCH   1  16
TORSDOF 7
ENDMDL
MODEL 9
REMARK VINA RESULT:      -6.3      2.204      8.745
REMARK  Name = 
REMARK  9 active torsions:
REMARK  status: ('A' for Active; 'I' for Inactive)
REMARK    1  A    between atoms: C_1  and  O_2
REMARK    2  A    between atoms: O_2  and  C_3
REMARK    3  A    between atoms: C_6  and  C_7
REMARK    4  A    between atoms: C_8  and  C_9
REMARK    5  A    between atoms: N_11  and  C_12
REMARK    6  A    between atoms: C_17  and  C_18
REMARK    7  A    between atoms: C_18  and  O_19
REMARK    8  A    between atoms: C_22  and  O_23
REMARK    9  A    between atoms: O_23  and  C_24
REMARK                            x       y       z     vdW  Elec       q    Type
REMARK                         _______ _______ _______ _____ _____    ______ ____
ROOT
ATOM      1  C   UNL     1       9.901   1.729  24.185  0.00  0.00    +0.241 C 
ATOM      2  N   UNL     1       8.755   2.494  24.154  0.00  0.00    -0.281 N 
ATOM      3  H   UNL     1       7.911   2.107  24.582  0.00  0.00    +0.155 HD
ATOM      4  O   UNL     1      10.996   2.042  23.734  0.00  0.00    -0.270 OA
ENDROOT
BRANCH   2   5
ATOM      5  C   UNL     1       8.626   3.824  23.661  0.00  0.00    +0.048 A 
ATOM      6  C   UNL     1       7.656   4.126  22.674  0.00  0.00    +0.080 A 
ATOM      7  C   UNL     1       7.481   5.455  22.238  0.00  0.00    +0.017 A 
ATOM      8  C   UNL     1       8.290   6.476  22.737  0.00  0.00    +0.001 A 
ATOM      9  C   UNL     1       9.263   6.181  23.681  0.00  0.00    +0.002 A 
ATOM     10  C   UNL     1       9.424   4.872  24.140  0.00  0.00    +0.024 A 
BRANCH   6  11
ATOM     11  C   UNL     1       6.795   3.045  22.118  0.00  0.00    +0.339 C 
ATOM     12  O   UNL     1       7.223   1.929  21.859  0.00  0.00    -0.245 OA
BRANCH  11  13
ATOM     13  O   UNL     1       5.520   3.408  21.859  0.00  0.00    -0.477 OA
ATOM     14  H   UNL     1       4.857   2.696  21.912  0.00  0.00    +0.295 HD
ENDBRANCH  11  13
ENDBRANCH   6  11
ENDBRANCH   2   5
BRANCH   1  16
ATOM     15  C   UNL     1       8.822  -0.435  24.317  0.00  0.00    +0.013 C 
ATOM     16  C   UNL     1       9.714   0.413  24.859  0.00  0.00    +0.068 C 
BRANCH  15  20
ATOM     17  C   UNL     1       7.947  -4.392  25.725  0.00  0.00    +0.162 A 
ATOM     18  C   UNL     1       8.264  -4.205  24.369  0.00  0.00    +0.162 A 
ATOM     19  C   UNL     1       8.558  -2.911  23.900  0.00  0.00    +0.057 A 
ATOM     20  C   UNL     1       8.550  -1.806  24.755  0.00  0.00    -0.021 A 
ATOM     21  C   UNL     1       8.312  -2.018  26.114  0.00  0.00    +0.012 A 
ATOM     22  C   UNL     1       8.017  -3.294  26.593  0.00  0.00    +0.050 A 
BRANCH  17  24
ATOM     23  C   UNL     1       6.329  -5.755  26.793  0.00  0.00    +0.277 C 
ATOM     24  O   UNL     1       7.612  -5.642  26.181  0.00  0.00    -0.491 OA
ENDBRANCH  17  24
BRANCH  18  25
ATOM     25  O   UNL     1       8.322  -5.133  23.361  0.00  0.00    -0.491 OA
ATOM     26  C   UNL     1       7.145  -5.430  22.628  0.00  0.00    +0.277 C 
ENDBRANCH  18  25
ENDBRANCH  15  20
ENDBRANCH   1  16
TORSDOF 7
ENDMDL
