MODEL 1
REMARK VINA RESULT:      -7.2      0.000      0.000
REMARK  Name = 
REMARK  11 active torsions:
REMARK  status: ('A' for Active; 'I' for Inactive)
REMARK    1  A    between atoms: C_1  and  C_2
REMARK    2  A    between atoms: C_2  and  C_3
REMARK    3  A    between atoms: C_2  and  C_4
REMARK    4  A    between atoms: C_4  and  C_6
REMARK    5  A    between atoms: C_4  and  C_7
REMARK    6  A    between atoms: C_8  and  C_9
REMARK    7  A    between atoms: C_9  and  C_11
REMARK    8  A    between atoms: C_9  and  C_12
REMARK    9  A    between atoms: C_23  and  O_25
REMARK   10  A    between atoms: C_28  and  C_29
REMARK   11  A    between atoms: C_34  and  C_35
REMARK                            x       y       z     vdW  Elec       q    Type
REMARK                         _______ _______ _______ _____ _____    ______ ____
ROOT
ATOM      1  C   UNL     1       6.392  -4.500  24.630  0.00  0.00    +0.002 C 
ATOM      2  C   UNL     1       7.134  -3.807  25.885  0.00  0.00    -0.022 C 
ATOM      3  C   UNL     1       7.087  -4.685  27.153  0.00  0.00    +0.012 C 
ATOM      4  C   UNL     1       8.645  -3.709  25.420  0.00  0.00    +0.021 C 
ATOM      5  C   UNL     1       9.018  -2.475  24.611  0.00  0.00    -0.062 C 
ATOM      6  C   UNL     1       8.130  -1.264  24.696  0.00  0.00    +0.025 C 
ATOM      7  C   UNL     1       7.479  -1.201  26.089  0.00  0.00    +0.009 C 
ATOM      8  C   UNL     1       8.716   0.076  24.059  0.00  0.00    -0.004 C 
ATOM      9  C   UNL     1       7.492   1.026  24.003  0.00  0.00    +0.016 C 
ATOM     10  C   UNL     1       9.335  -0.329  22.719  0.00  0.00    -0.061 C 
ATOM     11  C   UNL     1       9.466   0.757  21.682  0.00  0.00    +0.062 C 
ATOM     12  C   UNL     1      10.104   2.008  22.318  0.00  0.00    +0.119 C 
ATOM     13  C   UNL     1      10.805   1.672  23.652  0.00  0.00    +0.032 C 
ATOM     14  C   UNL     1      10.010  -1.490  22.634  0.00  0.00    -0.000 C 
ATOM     15  C   UNL     1       9.940   0.842  24.692  0.00  0.00    +0.014 C 
ATOM     16  C   UNL     1      10.010  -2.466  23.703  0.00  0.00    -0.000 C 
ATOM     17  C   UNL     1       8.799  -4.980  24.564  0.00  0.00    +0.009 C 
ATOM     18  C   UNL     1       6.527  -2.419  26.259  0.00  0.00    +0.008 C 
ATOM     19  C   UNL     1       7.520  -5.080  23.759  0.00  0.00    +0.005 C 
ENDROOT
BRANCH   1  20
ATOM     20  C   UNL     1       5.304  -5.604  24.853  0.00  0.00    +0.012 C 
ATOM     21  C   UNL     1       5.092  -6.551  23.655  0.00  0.00    +0.012 C 
BRANCH  20  23
ATOM     22  C   UNL     1       3.434  -5.083  26.420  0.00  0.00    -0.027 C 
ATOM     23  C   UNL     1       3.966  -5.004  25.187  0.00  0.00    -0.027 C 
BRANCH  22  24
ATOM     24  C   UNL     1       2.229  -4.281  26.823  0.00  0.00    +0.011 C 
ATOM     25  C   UNL     1       1.131  -5.180  27.395  0.00  0.00    +0.012 C 
BRANCH  24  27
ATOM     26  C   UNL     1       3.010  -1.816  26.986  0.00  0.00    +0.008 C 
ATOM     27  C   UNL     1       2.691  -3.108  27.737  0.00  0.00    -0.011 C 
ATOM     28  C   UNL     1       3.868  -3.523  28.618  0.00  0.00    +0.008 C 
ENDBRANCH  24  27
ENDBRANCH  22  24
ENDBRANCH  20  23
ENDBRANCH   1  20
BRANCH  12  29
ATOM     29  O   UNL     1       9.143   3.048  22.500  0.00  0.00    -0.391 OA
ATOM     30  H   UNL     1       9.580   3.905  22.362  0.00  0.00    +0.210 HD
ENDBRANCH  12  29
TORSDOF 5
ENDMDL
MODEL 2
REMARK VINA RESULT:      -7.1      3.243      7.169
REMARK  Name = 
REMARK  11 active torsions:
REMARK  status: ('A' for Active; 'I' for Inactive)
REMARK    1  A    between atoms: C_1  and  C_2
REMARK    2  A    between atoms: C_2  and  C_3
REMARK    3  A    between atoms: C_2  and  C_4
REMARK    4  A    between atoms: C_4  and  C_6
REMARK    5  A    between atoms: C_4  and  C_7
REMARK    6  A    between atoms: C_8  and  C_9
REMARK    7  A    between atoms: C_9  and  C_11
REMARK    8  A    between atoms: C_9  and  C_12
REMARK    9  A    between atoms: C_23  and  O_25
REMARK   10  A    between atoms: C_28  and  C_29
REMARK   11  A    between atoms: C_34  and  C_35
REMARK                            x       y       z     vdW  Elec       q    Type
REMARK                         _______ _______ _______ _____ _____    ______ ____
ROOT
ATOM      1  C   UNL     1       8.904   2.670  23.780  0.00  0.00    +0.002 C 
ATOM      2  C   UNL     1       7.810   2.030  22.779  0.00  0.00    -0.022 C 
ATOM      3  C   UNL     1       7.259   3.062  21.774  0.00  0.00    +0.012 C 
ATOM      4  C   UNL     1       8.635   0.952  21.962  0.00  0.00    +0.021 C 
ATOM      5  C   UNL     1       8.751  -0.426  22.599  0.00  0.00    -0.062 C 
ATOM      6  C   UNL     1       7.752  -0.816  23.654  0.00  0.00    +0.025 C 
ATOM      7  C   UNL     1       6.408  -0.123  23.371  0.00  0.00    +0.009 C 
ATOM      8  C   UNL     1       7.751  -2.355  24.076  0.00  0.00    -0.004 C 
ATOM      9  C   UNL     1       6.885  -2.386  25.362  0.00  0.00    +0.016 C 
ATOM     10  C   UNL     1       9.221  -2.753  24.226  0.00  0.00    -0.061 C 
ATOM     11  C   UNL     1       9.512  -3.934  25.117  0.00  0.00    +0.062 C 
ATOM     12  C   UNL     1       8.577  -5.104  24.748  0.00  0.00    +0.119 C 
ATOM     13  C   UNL     1       7.944  -4.908  23.353  0.00  0.00    +0.032 C 
ATOM     14  C   UNL     1      10.121  -2.276  23.348  0.00  0.00    -0.000 C 
ATOM     15  C   UNL     1       7.271  -3.494  23.098  0.00  0.00    +0.014 C 
ATOM     16  C   UNL     1       9.794  -1.247  22.384  0.00  0.00    -0.000 C 
ATOM     17  C   UNL     1      10.020   1.617  21.863  0.00  0.00    +0.009 C 
ATOM     18  C   UNL     1       6.588   1.414  23.528  0.00  0.00    +0.008 C 
ATOM     19  C   UNL     1      10.270   2.232  23.225  0.00  0.00    +0.005 C 
ENDROOT
BRANCH   1  20
ATOM     20  C   UNL     1       8.936   4.212  24.049  0.00  0.00    +0.012 C 
ATOM     21  C   UNL     1      10.342   4.844  24.005  0.00  0.00    +0.012 C 
BRANCH  20  23
ATOM     22  C   UNL     1       7.559   3.692  26.063  0.00  0.00    -0.027 C 
ATOM     23  C   UNL     1       8.336   4.554  25.384  0.00  0.00    -0.027 C 
BRANCH  22  24
ATOM     24  C   UNL     1       7.165   3.925  27.493  0.00  0.00    +0.011 C 
ATOM     25  C   UNL     1       6.201   5.107  27.617  0.00  0.00    +0.012 C 
BRANCH  24  27
ATOM     26  C   UNL     1       7.192   2.303  29.513  0.00  0.00    +0.008 C 
ATOM     27  C   UNL     1       6.671   2.580  28.103  0.00  0.00    -0.011 C 
ATOM     28  C   UNL     1       6.978   1.406  27.175  0.00  0.00    +0.008 C 
ENDBRANCH  24  27
ENDBRANCH  22  24
ENDBRANCH  20  23
ENDBRANCH   1  20
BRANCH  12  29
ATOM     29  O   UNL     1       7.567  -5.296  25.739  0.00  0.00    -0.391 OA
ATOM     30  H   UNL     1       7.923  -5.031  26.603  0.00  0.00    +0.210 HD
ENDBRANCH  12  29
TORSDOF 5
ENDMDL
MODEL 3
REMARK VINA RESULT:      -7.1      3.063      7.534
REMARK  Name = 
REMARK  11 active torsions:
REMARK  status: ('A' for Active; 'I' for Inactive)
REMARK    1  A    between atoms: C_1  and  C_2
REMARK    2  A    between atoms: C_2  and  C_3
REMARK    3  A    between atoms: C_2  and  C_4
REMARK    4  A    between atoms: C_4  and  C_6
REMARK    5  A    between atoms: C_4  and  C_7
REMARK    6  A    between atoms: C_8  and  C_9
REMARK    7  A    between atoms: C_9  and  C_11
REMARK    8  A    between atoms: C_9  and  C_12
REMARK    9  A    between atoms: C_23  and  O_25
REMARK   10  A    between atoms: C_28  and  C_29
REMARK   11  A    between atoms: C_34  and  C_35
REMARK                            x       y       z     vdW  Elec       q    Type
REMARK                         _______ _______ _______ _____ _____    ______ ____
ROOT
ATOM      1  C   UNL     1       9.265   1.828  23.623  0.00  0.00    +0.002 C 
ATOM      2  C   UNL     1       7.889   1.244  23.011  0.00  0.00    -0.022 C 
ATOM      3  C   UNL     1       7.335   2.122  21.870  0.00  0.00    +0.012 C 
ATOM      4  C   UNL     1       8.316  -0.147  22.387  0.00  0.00    +0.021 C 
ATOM      5  C   UNL     1       8.313  -1.336  23.337  0.00  0.00    -0.062 C 
ATOM      6  C   UNL     1       7.503  -1.244  24.601  0.00  0.00    +0.025 C 
ATOM      7  C   UNL     1       6.277  -0.346  24.362  0.00  0.00    +0.009 C 
ATOM      8  C   UNL     1       7.312  -2.607  25.408  0.00  0.00    -0.004 C 
ATOM      9  C   UNL     1       6.744  -2.152  26.777  0.00  0.00    +0.016 C 
ATOM     10  C   UNL     1       8.686  -3.284  25.424  0.00  0.00    -0.061 C 
ATOM     11  C   UNL     1       8.938  -4.270  26.536  0.00  0.00    +0.062 C 
ATOM     12  C   UNL     1       7.752  -5.249  26.641  0.00  0.00    +0.119 C 
ATOM     13  C   UNL     1       6.887  -5.233  25.361  0.00  0.00    +0.032 C 
ATOM     14  C   UNL     1       9.453  -3.233  24.320  0.00  0.00    -0.000 C 
ATOM     15  C   UNL     1       6.441  -3.797  24.853  0.00  0.00    +0.014 C 
ATOM     16  C   UNL     1       9.122  -2.400  23.184  0.00  0.00    -0.000 C 
ATOM     17  C   UNL     1       9.746   0.146  21.899  0.00  0.00    +0.009 C 
ATOM     18  C   UNL     1       6.759   1.105  24.079  0.00  0.00    +0.008 C 
ATOM     19  C   UNL     1      10.383   0.978  22.994  0.00  0.00    +0.005 C 
ENDROOT
BRANCH   1  20
ATOM     20  C   UNL     1       9.630   3.343  23.468  0.00  0.00    +0.012 C 
ATOM     21  C   UNL     1      11.142   3.644  23.478  0.00  0.00    +0.012 C 
BRANCH  20  23
ATOM     22  C   UNL     1       7.856   4.854  24.359  0.00  0.00    -0.027 C 
ATOM     23  C   UNL     1       9.003   4.177  24.550  0.00  0.00    -0.027 C 
BRANCH  22  24
ATOM     24  C   UNL     1       7.099   5.480  25.494  0.00  0.00    +0.011 C 
ATOM     25  C   UNL     1       7.181   7.007  25.440  0.00  0.00    +0.012 C 
BRANCH  24  27
ATOM     26  C   UNL     1       5.495   3.713  26.503  0.00  0.00    +0.008 C 
ATOM     27  C   UNL     1       5.662   4.880  25.530  0.00  0.00    -0.011 C 
ATOM     28  C   UNL     1       5.192   4.486  24.131  0.00  0.00    +0.008 C 
ENDBRANCH  24  27
ENDBRANCH  22  24
ENDBRANCH  20  23
ENDBRANCH   1  20
BRANCH  12  29
ATOM     29  O   UNL     1       6.953  -4.980  27.793  0.00  0.00    -0.391 OA
ATOM     30  H   UNL     1       6.146  -5.518  27.747  0.00  0.00    +0.210 HD
ENDBRANCH  12  29
TORSDOF 5
ENDMDL
MODEL 4
REMARK VINA RESULT:      -7.1      2.946      8.178
REMARK  Name = 
REMARK  11 active torsions:
REMARK  status: ('A' for Active; 'I' for Inactive)
REMARK    1  A    between atoms: C_1  and  C_2
REMARK    2  A    between atoms: C_2  and  C_3
REMARK    3  A    between atoms: C_2  and  C_4
REMARK    4  A    between atoms: C_4  and  C_6
REMARK    5  A    between atoms: C_4  and  C_7
REMARK    6  A    between atoms: C_8  and  C_9
REMARK    7  A    between atoms: C_9  and  C_11
REMARK    8  A    between atoms: C_9  and  C_12
REMARK    9  A    between atoms: C_23  and  O_25
REMARK   10  A    between atoms: C_28  and  C_29
REMARK   11  A    between atoms: C_34  and  C_35
REMARK                            x       y       z     vdW  Elec       q    Type
REMARK                         _______ _______ _______ _____ _____    ______ ____
ROOT
ATOM      1  C   UNL     1       8.027   0.437  22.907  0.00  0.00    +0.002 C 
ATOM      2  C   UNL     1       8.866  -0.415  23.992  0.00  0.00    -0.022 C 
ATOM      3  C   UNL     1      10.041   0.387  24.587  0.00  0.00    +0.012 C 
ATOM      4  C   UNL     1       7.821  -0.676  25.154  0.00  0.00    +0.021 C 
ATOM      5  C   UNL     1       6.930  -1.899  24.991  0.00  0.00    -0.062 C 
ATOM      6  C   UNL     1       7.372  -2.991  24.056  0.00  0.00    +0.025 C 
ATOM      7  C   UNL     1       8.909  -3.051  24.027  0.00  0.00    +0.009 C 
ATOM      8  C   UNL     1       6.550  -4.356  24.141  0.00  0.00    -0.004 C 
ATOM      9  C   UNL     1       7.001  -5.139  22.881  0.00  0.00    +0.016 C 
ATOM     10  C   UNL     1       5.074  -3.955  24.210  0.00  0.00    -0.061 C 
ATOM     11  C   UNL     1       4.074  -4.989  23.755  0.00  0.00    +0.062 C 
ATOM     12  C   UNL     1       4.391  -6.345  24.418  0.00  0.00    +0.119 C 
ATOM     13  C   UNL     1       5.319  -6.176  25.640  0.00  0.00    +0.032 C 
ATOM     14  C   UNL     1       4.719  -2.887  24.945  0.00  0.00    -0.000 C 
ATOM     15  C   UNL     1       6.623  -5.304  25.397  0.00  0.00    +0.014 C 
ATOM     16  C   UNL     1       5.694  -1.980  25.515  0.00  0.00    -0.000 C 
ATOM     17  C   UNL     1       6.978   0.612  25.120  0.00  0.00    +0.009 C 
ATOM     18  C   UNL     1       9.456  -1.735  23.405  0.00  0.00    +0.008 C 
ATOM     19  C   UNL     1       6.769   0.919  23.651  0.00  0.00    +0.005 C 
ENDROOT
BRANCH   1  20
ATOM     20  C   UNL     1       8.678   1.654  22.168  0.00  0.00    +0.012 C 
ATOM     21  C   UNL     1      10.206   1.551  21.983  0.00  0.00    +0.012 C 
BRANCH  20  23
ATOM     22  C   UNL     1       9.374   3.654  23.485  0.00  0.00    -0.027 C 
ATOM     23  C   UNL     1       8.402   2.948  22.881  0.00  0.00    -0.027 C 
BRANCH  22  24
ATOM     24  C   UNL     1       9.155   5.056  23.977  0.00  0.00    +0.011 C 
ATOM     25  C   UNL     1       8.512   5.062  25.366  0.00  0.00    +0.012 C 
BRANCH  24  27
ATOM     26  C   UNL     1      11.705   4.980  23.523  0.00  0.00    +0.008 C 
ATOM     27  C   UNL     1      10.489   5.849  23.844  0.00  0.00    -0.011 C 
ATOM     28  C   UNL     1      10.750   6.703  25.083  0.00  0.00    +0.008 C 
ENDBRANCH  24  27
ENDBRANCH  22  24
ENDBRANCH  20  23
ENDBRANCH   1  20
BRANCH  12  29
ATOM     29  O   UNL     1       4.952  -7.264  23.480  0.00  0.00    -0.391 OA
ATOM     30  H   UNL     1       5.152  -6.787  22.657  0.00  0.00    +0.210 HD
ENDBRANCH  12  29
TORSDOF 5
ENDMDL
MODEL 5
REMARK VINA RESULT:      -6.8      3.110      7.900
REMARK  Name = 
REMARK  11 active torsions:
REMARK  status: ('A' for Active; 'I' for Inactive)
REMARK    1  A    between atoms: C_1  and  C_2
REMARK    2  A    between atoms: C_2  and  C_3
REMARK    3  A    between atoms: C_2  and  C_4
REMARK    4  A    between atoms: C_4  and  C_6
REMARK    5  A    between atoms: C_4  and  C_7
REMARK    6  A    between atoms: C_8  and  C_9
REMARK    7  A    between atoms: C_9  and  C_11
REMARK    8  A    between atoms: C_9  and  C_12
REMARK    9  A    between atoms: C_23  and  O_25
REMARK   10  A    between atoms: C_28  and  C_29
REMARK   11  A    between atoms: C_34  and  C_35
REMARK                            x       y       z     vdW  Elec       q    Type
REMARK                         _______ _______ _______ _____ _____    ______ ____
ROOT
ATOM      1  C   UNL     1       8.648   0.422  23.208  0.00  0.00    +0.002 C 
ATOM      2  C   UNL     1       9.265  -1.038  22.900  0.00  0.00    -0.022 C 
ATOM      3  C   UNL     1      10.652  -0.961  22.231  0.00  0.00    +0.012 C 
ATOM      4  C   UNL     1       9.456  -1.675  24.338  0.00  0.00    +0.021 C 
ATOM      5  C   UNL     1       8.245  -2.389  24.920  0.00  0.00    -0.062 C 
ATOM      6  C   UNL     1       7.160  -2.846  23.983  0.00  0.00    +0.025 C 
ATOM      7  C   UNL     1       7.775  -3.195  22.617  0.00  0.00    +0.009 C 
ATOM      8  C   UNL     1       6.067  -3.826  24.608  0.00  0.00    -0.004 C 
ATOM      9  C   UNL     1       4.943  -3.856  23.541  0.00  0.00    +0.016 C 
ATOM     10  C   UNL     1       5.704  -3.236  25.974  0.00  0.00    -0.061 C 
ATOM     11  C   UNL     1       4.355  -3.614  26.533  0.00  0.00    +0.062 C 
ATOM     12  C   UNL     1       4.160  -5.140  26.433  0.00  0.00    +0.119 C 
ATOM     13  C   UNL     1       5.502  -5.871  26.213  0.00  0.00    +0.032 C 
ATOM     14  C   UNL     1       6.676  -2.706  26.737  0.00  0.00    -0.000 C 
ATOM     15  C   UNL     1       6.411  -5.301  25.043  0.00  0.00    +0.014 C 
ATOM     16  C   UNL     1       8.019  -2.490  26.243  0.00  0.00    -0.000 C 
ATOM     17  C   UNL     1       9.814  -0.443  25.188  0.00  0.00    +0.009 C 
ATOM     18  C   UNL     1       8.351  -1.901  21.975  0.00  0.00    +0.008 C 
ATOM     19  C   UNL     1       8.892   0.660  24.708  0.00  0.00    +0.005 C 
ENDROOT
BRANCH   1  20
ATOM     20  C   UNL     1       9.132   1.679  22.409  0.00  0.00    +0.012 C 
ATOM     21  C   UNL     1      10.241   2.496  23.104  0.00  0.00    +0.012 C 
BRANCH  20  23
ATOM     22  C   UNL     1       7.645   3.600  22.976  0.00  0.00    -0.027 C 
ATOM     23  C   UNL     1       7.999   2.624  22.121  0.00  0.00    -0.027 C 
BRANCH  22  24
ATOM     24  C   UNL     1       6.690   4.692  22.590  0.00  0.00    +0.011 C 
ATOM     25  C   UNL     1       5.689   4.976  23.713  0.00  0.00    +0.012 C 
BRANCH  24  27
ATOM     26  C   UNL     1       8.652   6.332  23.008  0.00  0.00    +0.008 C 
ATOM     27  C   UNL     1       7.507   5.918  22.084  0.00  0.00    -0.011 C 
ATOM     28  C   UNL     1       6.595   7.108  21.791  0.00  0.00    +0.008 C 
ENDBRANCH  24  27
ENDBRANCH  22  24
ENDBRANCH  20  23
ENDBRANCH   1  20
BRANCH  12  29
ATOM     29  O   UNL     1       3.226  -5.480  25.408  0.00  0.00    -0.391 OA
ATOM     30  H   UNL     1       2.742  -6.278  25.679  0.00  0.00    +0.210 HD
ENDBRANCH  12  29
TORSDOF 5
ENDMDL
MODEL 6
REMARK VINA RESULT:      -6.7      3.132      7.720
REMARK  Name = 
REMARK  11 active torsions:
REMARK  status: ('A' for Active; 'I' for Inactive)
REMARK    1  A    between atoms: C_1  and  C_2
REMARK    2  A    between atoms: C_2  and  C_3
REMARK    3  A    between atoms: C_2  and  C_4
REMARK    4  A    between atoms: C_4  and  C_6
REMARK    5  A    between atoms: C_4  and  C_7
REMARK    6  A    between atoms: C_8  and  C_9
REMARK    7  A    between atoms: C_9  and  C_11
REMARK    8  A    between atoms: C_9  and  C_12
REMARK    9  A    between atoms: C_23  and  O_25
REMARK   10  A    between atoms: C_28  and  C_29
REMARK   11  A    between atoms: C_34  and  C_35
REMARK                            x       y       z     vdW  Elec       q    Type
REMARK                         _______ _______ _______ _____ _____    ______ ____
ROOT
ATOM      1  C   UNL     1       7.630   0.974  25.465  0.00  0.00    +0.002 C 
ATOM      2  C   UNL     1       8.721   0.294  24.487  0.00  0.00    -0.022 C 
ATOM      3  C   UNL     1      10.023   1.118  24.397  0.00  0.00    +0.012 C 
ATOM      4  C   UNL     1       9.065  -1.076  25.203  0.00  0.00    +0.021 C 
ATOM      5  C   UNL     1       8.150  -2.249  24.878  0.00  0.00    -0.062 C 
ATOM      6  C   UNL     1       7.325  -2.190  23.622  0.00  0.00    +0.025 C 
ATOM      7  C   UNL     1       8.074  -1.376  22.553  0.00  0.00    +0.009 C 
ATOM      8  C   UNL     1       6.611  -3.551  23.193  0.00  0.00    -0.004 C 
ATOM      9  C   UNL     1       5.607  -3.113  22.096  0.00  0.00    +0.016 C 
ATOM     10  C   UNL     1       6.016  -4.137  24.476  0.00  0.00    -0.061 C 
ATOM     11  C   UNL     1       4.858  -5.089  24.308  0.00  0.00    +0.062 C 
ATOM     12  C   UNL     1       5.203  -6.141  23.234  0.00  0.00    +0.119 C 
ATOM     13  C   UNL     1       6.722  -6.199  22.962  0.00  0.00    +0.032 C 
ATOM     14  C   UNL     1       6.717  -4.054  25.620  0.00  0.00    -0.000 C 
ATOM     15  C   UNL     1       7.423  -4.802  22.685  0.00  0.00    +0.014 C 
ATOM     16  C   UNL     1       7.923  -3.261  25.735  0.00  0.00    -0.000 C 
ATOM     17  C   UNL     1       8.946  -0.698  26.691  0.00  0.00    +0.009 C 
ATOM     18  C   UNL     1       8.195   0.099  23.031  0.00  0.00    +0.008 C 
ATOM     19  C   UNL     1       7.720   0.188  26.785  0.00  0.00    +0.005 C 
ENDROOT
BRANCH   1  20
ATOM     20  C   UNL     1       7.683   2.506  25.781  0.00  0.00    +0.012 C 
ATOM     21  C   UNL     1       7.037   2.910  27.121  0.00  0.00    +0.012 C 
BRANCH  20  23
ATOM     22  C   UNL     1       7.722   4.005  23.787  0.00  0.00    -0.027 C 
ATOM     23  C   UNL     1       7.018   3.318  24.705  0.00  0.00    -0.027 C 
BRANCH  22  24
ATOM     24  C   UNL     1       7.077   4.608  22.572  0.00  0.00    +0.011 C 
ATOM     25  C   UNL     1       5.553   4.629  22.706  0.00  0.00    +0.012 C 
BRANCH  24  27
ATOM     26  C   UNL     1       8.838   6.374  23.276  0.00  0.00    +0.008 C 
ATOM     27  C   UNL     1       7.751   5.981  22.276  0.00  0.00    -0.011 C 
ATOM     28  C   UNL     1       6.711   7.092  22.148  0.00  0.00    +0.008 C 
ENDBRANCH  24  27
ENDBRANCH  22  24
ENDBRANCH  20  23
ENDBRANCH   1  20
BRANCH  12  29
ATOM     29  O   UNL     1       4.481  -5.906  22.024  0.00  0.00    -0.391 OA
ATOM     30  H   UNL     1       4.305  -6.760  21.595  0.00  0.00    +0.210 HD
ENDBRANCH  12  29
TORSDOF 5
ENDMDL
MODEL 7
REMARK VINA RESULT:      -6.7      1.870      3.279
REMARK  Name = 
REMARK  11 active torsions:
REMARK  status: ('A' for Active; 'I' for Inactive)
REMARK    1  A    between atoms: C_1  and  C_2
REMARK    2  A    between atoms: C_2  and  C_3
REMARK    3  A    between atoms: C_2  and  C_4
REMARK    4  A    between atoms: C_4  and  C_6
REMARK    5  A    between atoms: C_4  and  C_7
REMARK    6  A    between atoms: C_8  and  C_9
REMARK    7  A    between atoms: C_9  and  C_11
REMARK    8  A    between atoms: C_9  and  C_12
REMARK    9  A    between atoms: C_23  and  O_25
REMARK   10  A    between atoms: C_28  and  C_29
REMARK   11  A    between atoms: C_34  and  C_35
REMARK                            x       y       z     vdW  Elec       q    Type
REMARK                         _______ _______ _______ _____ _____    ______ ____
ROOT
ATOM      1  C   UNL     1       6.753  -3.630  25.560  0.00  0.00    +0.002 C 
ATOM      2  C   UNL     1       7.632  -3.860  24.224  0.00  0.00    -0.022 C 
ATOM      3  C   UNL     1       7.455  -5.278  23.642  0.00  0.00    +0.012 C 
ATOM      4  C   UNL     1       7.017  -2.832  23.189  0.00  0.00    +0.021 C 
ATOM      5  C   UNL     1       7.583  -1.420  23.230  0.00  0.00    -0.062 C 
ATOM      6  C   UNL     1       8.930  -1.205  23.865  0.00  0.00    +0.025 C 
ATOM      7  C   UNL     1       9.797  -2.461  23.671  0.00  0.00    +0.009 C 
ATOM      8  C   UNL     1       9.590   0.229  23.629  0.00  0.00    -0.004 C 
ATOM      9  C   UNL     1      10.767   0.266  24.637  0.00  0.00    +0.016 C 
ATOM     10  C   UNL     1       8.469   1.249  23.842  0.00  0.00    -0.061 C 
ATOM     11  C   UNL     1       8.893   2.647  24.219  0.00  0.00    +0.062 C 
ATOM     12  C   UNL     1      10.008   3.125  23.267  0.00  0.00    +0.119 C 
ATOM     13  C   UNL     1      10.069   2.266  21.986  0.00  0.00    +0.032 C 
ATOM     14  C   UNL     1       7.235   0.971  23.385  0.00  0.00    -0.000 C 
ATOM     15  C   UNL     1      10.103   0.696  22.213  0.00  0.00    +0.014 C 
ATOM     16  C   UNL     1       6.874  -0.334  22.874  0.00  0.00    -0.000 C 
ATOM     17  C   UNL     1       5.530  -2.827  23.588  0.00  0.00    +0.009 C 
ATOM     18  C   UNL     1       9.160  -3.642  24.457  0.00  0.00    +0.008 C 
ATOM     19  C   UNL     1       5.520  -2.832  25.103  0.00  0.00    +0.005 C 
ENDROOT
BRANCH   1  20
ATOM     20  C   UNL     1       6.280  -4.846  26.425  0.00  0.00    +0.012 C 
ATOM     21  C   UNL     1       7.398  -5.535  27.234  0.00  0.00    +0.012 C 
BRANCH  20  23
ATOM     22  C   UNL     1       4.304  -6.156  25.649  0.00  0.00    -0.027 C 
ATOM     23  C   UNL     1       5.624  -5.905  25.584  0.00  0.00    -0.027 C 
BRANCH  22  24
ATOM     24  C   UNL     1       3.606  -7.027  24.645  0.00  0.00    +0.011 C 
ATOM     25  C   UNL     1       2.631  -7.988  25.328  0.00  0.00    +0.012 C 
BRANCH  24  27
ATOM     26  C   UNL     1       2.457  -4.785  24.038  0.00  0.00    +0.008 C 
ATOM     27  C   UNL     1       2.998  -6.122  23.532  0.00  0.00    -0.011 C 
ATOM     28  C   UNL     1       1.931  -6.868  22.734  0.00  0.00    +0.008 C 
ENDBRANCH  24  27
ENDBRANCH  22  24
ENDBRANCH  20  23
ENDBRANCH   1  20
BRANCH  12  29
ATOM     29  O   UNL     1      11.277   3.147  23.922  0.00  0.00    -0.391 OA
ATOM     30  H   UNL     1      11.133   3.170  24.882  0.00  0.00    +0.210 HD
ENDBRANCH  12  29
TORSDOF 5
ENDMDL
MODEL 8
REMARK VINA RESULT:      -6.6      1.975      3.155
REMARK  Name = 
REMARK  11 active torsions:
REMARK  status: ('A' for Active; 'I' for Inactive)
REMARK    1  A    between atoms: C_1  and  C_2
REMARK    2  A    between atoms: C_2  and  C_3
REMARK    3  A    between atoms: C_2  and  C_4
REMARK    4  A    between atoms: C_4  and  C_6
REMARK    5  A    between atoms: C_4  and  C_7
REMARK    6  A    between atoms: C_8  and  C_9
REMARK    7  A    between atoms: C_9  and  C_11
REMARK    8  A    between atoms: C_9  and  C_12
REMARK    9  A    between atoms: C_23  and  O_25
REMARK   10  A    between atoms: C_28  and  C_29
REMARK   11  A    between atoms: C_34  and  C_35
REMARK                            x       y       z     vdW  Elec       q    Type
REMARK                         _______ _______ _______ _____ _____    ______ ____
ROOT
ATOM      1  C   UNL     1       7.663  -2.634  23.366  0.00  0.00    +0.002 C 
ATOM      2  C   UNL     1       8.346  -2.039  24.703  0.00  0.00    -0.022 C 
ATOM      3  C   UNL     1       9.007  -3.136  25.563  0.00  0.00    +0.012 C 
ATOM      4  C   UNL     1       9.495  -1.099  24.150  0.00  0.00    +0.021 C 
ATOM      5  C   UNL     1       9.088   0.328  23.810  0.00  0.00    -0.062 C 
ATOM      6  C   UNL     1       7.830   0.881  24.421  0.00  0.00    +0.025 C 
ATOM      7  C   UNL     1       7.604   0.240  25.802  0.00  0.00    +0.009 C 
ATOM      8  C   UNL     1       7.608   2.453  24.257  0.00  0.00    -0.004 C 
ATOM      9  C   UNL     1       6.131   2.665  24.677  0.00  0.00    +0.016 C 
ATOM     10  C   UNL     1       7.964   2.779  22.804  0.00  0.00    -0.061 C 
ATOM     11  C   UNL     1       7.349   4.027  22.224  0.00  0.00    +0.062 C 
ATOM     12  C   UNL     1       7.544   5.205  23.201  0.00  0.00    +0.119 C 
ATOM     13  C   UNL     1       8.644   4.903  24.241  0.00  0.00    +0.032 C 
ATOM     14  C   UNL     1       9.016   2.164  22.234  0.00  0.00    -0.000 C 
ATOM     15  C   UNL     1       8.515   3.511  24.993  0.00  0.00    +0.014 C 
ATOM     16  C   UNL     1       9.707   1.062  22.869  0.00  0.00    -0.000 C 
ATOM     17  C   UNL     1       9.939  -1.848  22.881  0.00  0.00    +0.009 C 
ATOM     18  C   UNL     1       7.334  -1.280  25.616  0.00  0.00    +0.008 C 
ATOM     19  C   UNL     1       8.658  -2.333  22.232  0.00  0.00    +0.005 C 
ENDROOT
BRANCH   1  20
ATOM     20  C   UNL     1       7.241  -4.140  23.286  0.00  0.00    +0.012 C 
ATOM     21  C   UNL     1       6.945  -4.650  21.861  0.00  0.00    +0.012 C 
BRANCH  20  23
ATOM     22  C   UNL     1       5.974  -5.436  25.000  0.00  0.00    -0.027 C 
ATOM     23  C   UNL     1       6.022  -4.419  24.121  0.00  0.00    -0.027 C 
BRANCH  22  24
ATOM     24  C   UNL     1       4.868  -5.570  26.006  0.00  0.00    +0.011 C 
ATOM     25  C   UNL     1       4.268  -6.977  25.987  0.00  0.00    +0.012 C 
BRANCH  24  27
ATOM     26  C   UNL     1       5.170  -3.580  27.638  0.00  0.00    +0.008 C 
ATOM     27  C   UNL     1       5.385  -5.072  27.389  0.00  0.00    -0.011 C 
ATOM     28  C   UNL     1       6.850  -5.448  27.599  0.00  0.00    +0.008 C 
ENDBRANCH  24  27
ENDBRANCH  22  24
ENDBRANCH  20  23
ENDBRANCH   1  20
BRANCH  12  29
ATOM     29  O   UNL     1       6.320   5.554  23.847  0.00  0.00    -0.391 OA
ATOM     30  H   UNL     1       5.840   4.739  24.068  0.00  0.00    +0.210 HD
ENDBRANCH  12  29
TORSDOF 5
ENDMDL
MODEL 9
REMARK VINA RESULT:      -6.5      2.984      7.704
REMARK  Name = 
REMARK  11 active torsions:
REMARK  status: ('A' for Active; 'I' for Inactive)
REMARK    1  A    between atoms: C_1  and  C_2
REMARK    2  A    between atoms: C_2  and  C_3
REMARK    3  A    between atoms: C_2  and  C_4
REMARK    4  A    between atoms: C_4  and  C_6
REMARK    5  A    between atoms: C_4  and  C_7
REMARK    6  A    between atoms: C_8  and  C_9
REMARK    7  A    between atoms: C_9  and  C_11
REMARK    8  A    between atoms: C_9  and  C_12
REMARK    9  A    between atoms: C_23  and  O_25
REMARK   10  A    between atoms: C_28  and  C_29
REMARK   11  A    between atoms: C_34  and  C_35
REMARK                            x       y       z     vdW  Elec       q    Type
REMARK                         _______ _______ _______ _____ _____    ______ ____
ROOT
ATOM      1  C   UNL     1       8.576  -0.902  24.300  0.00  0.00    +0.002 C 
ATOM      2  C   UNL     1       8.161  -1.755  22.993  0.00  0.00    -0.022 C 
ATOM      3  C   UNL     1       8.985  -1.360  21.749  0.00  0.00    +0.012 C 
ATOM      4  C   UNL     1       8.548  -3.242  23.377  0.00  0.00    +0.021 C 
ATOM      5  C   UNL     1       7.492  -4.033  24.137  0.00  0.00    -0.062 C 
ATOM      6  C   UNL     1       6.062  -3.572  24.071  0.00  0.00    +0.025 C 
ATOM      7  C   UNL     1       5.802  -2.898  22.712  0.00  0.00    +0.009 C 
ATOM      8  C   UNL     1       4.975  -4.588  24.646  0.00  0.00    -0.004 C 
ATOM      9  C   UNL     1       3.684  -3.735  24.743  0.00  0.00    +0.016 C 
ATOM     10  C   UNL     1       5.549  -5.120  25.961  0.00  0.00    -0.061 C 
ATOM     11  C   UNL     1       4.556  -5.647  26.966  0.00  0.00    +0.062 C 
ATOM     12  C   UNL     1       3.576  -6.613  26.269  0.00  0.00    +0.119 C 
ATOM     13  C   UNL     1       4.125  -7.096  24.909  0.00  0.00    +0.032 C 
ATOM     14  C   UNL     1       6.864  -5.395  26.038  0.00  0.00    -0.000 C 
ATOM     15  C   UNL     1       4.642  -5.954  23.935  0.00  0.00    +0.014 C 
ATOM     16  C   UNL     1       7.795  -5.025  24.993  0.00  0.00    -0.000 C 
ATOM     17  C   UNL     1       9.796  -3.032  24.252  0.00  0.00    +0.009 C 
ATOM     18  C   UNL     1       6.654  -1.600  22.619  0.00  0.00    +0.008 C 
ATOM     19  C   UNL     1       9.480  -1.834  25.125  0.00  0.00    +0.005 C 
ENDROOT
BRANCH   1  20
ATOM     20  C   UNL     1       9.276   0.491  24.158  0.00  0.00    +0.012 C 
ATOM     21  C   UNL     1      10.652   0.593  24.847  0.00  0.00    +0.012 C 
BRANCH  20  23
ATOM     22  C   UNL     1       8.497   2.859  24.238  0.00  0.00    -0.027 C 
ATOM     23  C   UNL     1       8.422   1.600  24.705  0.00  0.00    -0.027 C 
BRANCH  22  24
ATOM     24  C   UNL     1       7.484   3.907  24.600  0.00  0.00    +0.011 C 
ATOM     25  C   UNL     1       8.086   4.963  25.530  0.00  0.00    +0.012 C 
BRANCH  24  27
ATOM     26  C   UNL     1       6.584   3.379  22.228  0.00  0.00    +0.008 C 
ATOM     27  C   UNL     1       6.833   4.448  23.292  0.00  0.00    -0.011 C 
ATOM     28  C   UNL     1       7.640   5.608  22.712  0.00  0.00    +0.008 C 
ENDBRANCH  24  27
ENDBRANCH  22  24
ENDBRANCH  20  23
ENDBRANCH   1  20
BRANCH  12  29
ATOM     29  O   UNL     1       2.285  -6.024  26.114  0.00  0.00    -0.391 OA
ATOM     30  H   UNL     1       1.887  -6.357  25.292  0.00  0.00    +0.210 HD
ENDBRANCH  12  29
TORSDOF 5
ENDMDL
