MODEL 1
REMARK VINA RESULT:      -7.1      0.000      0.000
REMARK  Name = 
REMARK  2 active torsions:
REMARK  status: ('A' for Active; 'I' for Inactive)
REMARK    1  A    between atoms: C_6  and  C_8
REMARK    2  A    between atoms: C_11  and  C_17
REMARK                            x       y       z     vdW  Elec       q    Type
REMARK                         _______ _______ _______ _____ _____    ______ ____
ROOT
ATOM      1  C   UNL     1       7.613   1.703  22.411  0.00  0.00    +0.001 A 
ATOM      2  C   UNL     1       8.927   1.626  21.818  0.00  0.00    +0.012 A 
ATOM      3  C   UNL     1       9.667   0.430  21.633  0.00  0.00    +0.032 A 
ATOM      4  C   UNL     1       8.995  -0.726  22.059  0.00  0.00    +0.114 A 
ATOM      5  C   UNL     1       7.682  -0.642  22.639  0.00  0.00    +0.050 A 
ATOM      6  C   UNL     1       7.295  -1.931  22.906  0.00  0.00    +0.175 A 
ATOM      7  O   UNL     1       8.331  -2.750  22.543  0.00  0.00    -0.353 OA
ATOM      8  N   UNL     1       9.379  -2.012  22.021  0.00  0.00    -0.078 NA
ATOM      9  C   UNL     1       6.954   0.527  22.865  0.00  0.00    +0.024 A 
ENDROOT
BRANCH   1  15
ATOM     10  N   UNL     1       7.739   6.371  21.754  0.00  0.00    -0.327 N 
ATOM     11  H   UNL     1       8.399   6.088  21.046  0.00  0.00    +0.145 HD
ATOM     12  H   UNL     1       7.101   7.119  21.526  0.00  0.00    +0.145 HD
ATOM     13  C   UNL     1       7.028   5.277  22.198  0.00  0.00    +0.213 A 
ATOM     14  N   UNL     1       7.598   4.077  22.082  0.00  0.00    -0.215 NA
ATOM     15  C   UNL     1       6.900   3.001  22.515  0.00  0.00    +0.076 A 
ATOM     16  C   UNL     1       5.622   3.131  23.021  0.00  0.00    +0.048 A 
ATOM     17  C   UNL     1       5.120   4.408  23.079  0.00  0.00    +0.116 A 
ATOM     18  N   UNL     1       5.800   5.493  22.673  0.00  0.00    -0.223 NA
ENDBRANCH   1  15
BRANCH   6  19
ATOM     19  C   UNL     1       6.112  -2.611  23.424  0.00  0.00    +0.021 A 
ATOM     20  C   UNL     1       5.505  -3.645  22.694  0.00  0.00    +0.013 A 
ATOM     21  C   UNL     1       4.377  -4.309  23.190  0.00  0.00    +0.021 A 
ATOM     22  C   UNL     1       3.846  -3.943  24.423  0.00  0.00    +0.041 A 
ATOM     23 CL   UNL     1       2.467  -4.766  25.042  0.00  0.00    -0.084 Cl
ATOM     24  C   UNL     1       4.423  -2.911  25.157  0.00  0.00    +0.021 A 
ATOM     25  C   UNL     1       5.546  -2.245  24.655  0.00  0.00    +0.013 A 
ENDBRANCH   6  19
TORSDOF 2
ENDMDL
MODEL 2
REMARK VINA RESULT:      -7.1      4.925      8.309
REMARK  Name = 
REMARK  2 active torsions:
REMARK  status: ('A' for Active; 'I' for Inactive)
REMARK    1  A    between atoms: C_6  and  C_8
REMARK    2  A    between atoms: C_11  and  C_17
REMARK                            x       y       z     vdW  Elec       q    Type
REMARK                         _______ _______ _______ _____ _____    ______ ____
ROOT
ATOM      1  C   UNL     1       5.512  -5.129  25.532  0.00  0.00    +0.001 A 
ATOM      2  C   UNL     1       4.891  -6.191  24.777  0.00  0.00    +0.012 A 
ATOM      3  C   UNL     1       4.834  -6.256  23.361  0.00  0.00    +0.032 A 
ATOM      4  C   UNL     1       5.473  -5.186  22.716  0.00  0.00    +0.114 A 
ATOM      5  C   UNL     1       6.098  -4.138  23.476  0.00  0.00    +0.050 A 
ATOM      6  C   UNL     1       6.659  -3.281  22.562  0.00  0.00    +0.175 A 
ATOM      7  O   UNL     1       6.357  -3.762  21.316  0.00  0.00    -0.353 OA
ATOM      8  N   UNL     1       5.628  -4.934  21.407  0.00  0.00    -0.078 NA
ATOM      9  C   UNL     1       6.132  -4.035  24.867  0.00  0.00    +0.024 A 
ENDROOT
BRANCH   1  15
ATOM     10  N   UNL     1       6.847  -7.497  29.386  0.00  0.00    -0.327 N 
ATOM     11  H   UNL     1       7.538  -7.839  28.736  0.00  0.00    +0.145 HD
ATOM     12  H   UNL     1       7.149  -7.298  30.328  0.00  0.00    +0.145 HD
ATOM     13  C   UNL     1       6.213  -6.391  28.861  0.00  0.00    +0.213 A 
ATOM     14  N   UNL     1       6.182  -6.266  27.533  0.00  0.00    -0.215 NA
ATOM     15  C   UNL     1       5.563  -5.179  27.015  0.00  0.00    +0.076 A 
ATOM     16  C   UNL     1       5.019  -4.207  27.831  0.00  0.00    +0.048 A 
ATOM     17  C   UNL     1       5.122  -4.423  29.183  0.00  0.00    +0.116 A 
ATOM     18  N   UNL     1       5.715  -5.502  29.720  0.00  0.00    -0.223 NA
ENDBRANCH   1  15
BRANCH   6  19
ATOM     19  C   UNL     1       7.472  -2.070  22.584  0.00  0.00    +0.021 A 
ATOM     20  C   UNL     1       8.819  -2.105  22.187  0.00  0.00    +0.013 A 
ATOM     21  C   UNL     1       9.602  -0.945  22.196  0.00  0.00    +0.021 A 
ATOM     22  C   UNL     1       9.043   0.263  22.603  0.00  0.00    +0.041 A 
ATOM     23 CL   UNL     1       9.999   1.694  22.603  0.00  0.00    -0.084 Cl
ATOM     24  C   UNL     1       7.715   0.318  23.014  0.00  0.00    +0.021 A 
ATOM     25  C   UNL     1       6.938  -0.844  23.012  0.00  0.00    +0.013 A 
ENDBRANCH   6  19
TORSDOF 2
ENDMDL
MODEL 3
REMARK VINA RESULT:      -7.0      5.230      8.779
REMARK  Name = 
REMARK  2 active torsions:
REMARK  status: ('A' for Active; 'I' for Inactive)
REMARK    1  A    between atoms: C_6  and  C_8
REMARK    2  A    between atoms: C_11  and  C_17
REMARK                            x       y       z     vdW  Elec       q    Type
REMARK                         _______ _______ _______ _____ _____    ______ ____
ROOT
ATOM      1  C   UNL     1       5.518  -5.595  25.435  0.00  0.00    +0.001 A 
ATOM      2  C   UNL     1       4.758  -6.296  24.427  0.00  0.00    +0.012 A 
ATOM      3  C   UNL     1       4.752  -5.977  23.045  0.00  0.00    +0.032 A 
ATOM      4  C   UNL     1       5.591  -4.906  22.704  0.00  0.00    +0.114 A 
ATOM      5  C   UNL     1       6.353  -4.219  23.713  0.00  0.00    +0.050 A 
ATOM      6  C   UNL     1       7.090  -3.265  23.058  0.00  0.00    +0.175 A 
ATOM      7  O   UNL     1       6.765  -3.343  21.730  0.00  0.00    -0.353 OA
ATOM      8  N   UNL     1       5.844  -4.352  21.508  0.00  0.00    -0.078 NA
ATOM      9  C   UNL     1       6.343  -4.492  25.081  0.00  0.00    +0.024 A 
ENDROOT
BRANCH   1  15
ATOM     10  N   UNL     1       3.091  -7.649  28.917  0.00  0.00    -0.327 N 
ATOM     11  H   UNL     1       2.652  -8.096  28.127  0.00  0.00    +0.145 HD
ATOM     12  H   UNL     1       3.272  -8.215  29.733  0.00  0.00    +0.145 HD
ATOM     13  C   UNL     1       4.253  -7.024  28.521  0.00  0.00    +0.213 A 
ATOM     14  N   UNL     1       4.352  -6.650  27.244  0.00  0.00    -0.215 NA
ATOM     15  C   UNL     1       5.495  -6.039  26.852  0.00  0.00    +0.076 A 
ATOM     16  C   UNL     1       6.544  -5.847  27.729  0.00  0.00    +0.048 A 
ATOM     17  C   UNL     1       6.347  -6.288  29.014  0.00  0.00    +0.116 A 
ATOM     18  N   UNL     1       5.216  -6.879  29.432  0.00  0.00    -0.223 NA
ENDBRANCH   1  15
BRANCH   6  19
ATOM     19  C   UNL     1       8.096  -2.265  23.397  0.00  0.00    +0.021 A 
ATOM     20  C   UNL     1       8.134  -1.694  24.679  0.00  0.00    +0.013 A 
ATOM     21  C   UNL     1       9.103  -0.742  25.014  0.00  0.00    +0.021 A 
ATOM     22  C   UNL     1      10.046  -0.352  24.067  0.00  0.00    +0.041 A 
ATOM     23 CL   UNL     1      11.247   0.809  24.480  0.00  0.00    -0.084 Cl
ATOM     24  C   UNL     1      10.019  -0.895  22.786  0.00  0.00    +0.021 A 
ATOM     25  C   UNL     1       9.044  -1.840  22.452  0.00  0.00    +0.013 A 
ENDBRANCH   6  19
TORSDOF 2
ENDMDL
MODEL 4
REMARK VINA RESULT:      -7.0      5.885      8.690
REMARK  Name = 
REMARK  2 active torsions:
REMARK  status: ('A' for Active; 'I' for Inactive)
REMARK    1  A    between atoms: C_6  and  C_8
REMARK    2  A    between atoms: C_11  and  C_17
REMARK                            x       y       z     vdW  Elec       q    Type
REMARK                         _______ _______ _______ _____ _____    ______ ____
ROOT
ATOM      1  C   UNL     1       4.041  -5.927  25.060  0.00  0.00    +0.001 A 
ATOM      2  C   UNL     1       4.061  -6.658  26.305  0.00  0.00    +0.012 A 
ATOM      3  C   UNL     1       5.134  -6.656  27.232  0.00  0.00    +0.032 A 
ATOM      4  C   UNL     1       6.212  -5.840  26.854  0.00  0.00    +0.114 A 
ATOM      5  C   UNL     1       6.180  -5.107  25.617  0.00  0.00    +0.050 A 
ATOM      6  C   UNL     1       7.346  -4.387  25.564  0.00  0.00    +0.175 A 
ATOM      7  O   UNL     1       8.064  -4.694  26.690  0.00  0.00    -0.353 OA
ATOM      8  N   UNL     1       7.369  -5.588  27.485  0.00  0.00    -0.078 NA
ATOM      9  C   UNL     1       5.152  -5.126  24.674  0.00  0.00    +0.024 A 
ENDROOT
BRANCH   1  15
ATOM     10  N   UNL     1       1.494  -8.315  21.891  0.00  0.00    -0.327 N 
ATOM     11  H   UNL     1       1.914  -9.091  22.381  0.00  0.00    +0.145 HD
ATOM     12  H   UNL     1       0.529  -8.407  21.611  0.00  0.00    +0.145 HD
ATOM     13  C   UNL     1       1.658  -7.155  22.616  0.00  0.00    +0.213 A 
ATOM     14  N   UNL     1       2.686  -7.093  23.464  0.00  0.00    -0.215 NA
ATOM     15  C   UNL     1       2.846  -5.955  24.179  0.00  0.00    +0.076 A 
ATOM     16  C   UNL     1       1.953  -4.907  24.072  0.00  0.00    +0.048 A 
ATOM     17  C   UNL     1       0.919  -5.082  23.186  0.00  0.00    +0.116 A 
ATOM     18  N   UNL     1       0.749  -6.193  22.451  0.00  0.00    -0.223 NA
ENDBRANCH   1  15
BRANCH   6  19
ATOM     19  C   UNL     1       7.966  -3.410  24.676  0.00  0.00    +0.021 A 
ATOM     20  C   UNL     1       9.358  -3.392  24.491  0.00  0.00    +0.013 A 
ATOM     21  C   UNL     1       9.958  -2.464  23.632  0.00  0.00    +0.021 A 
ATOM     22  C   UNL     1       9.168  -1.543  22.949  0.00  0.00    +0.041 A 
ATOM     23 CL   UNL     1       9.901  -0.410  21.882  0.00  0.00    -0.084 Cl
ATOM     24  C   UNL     1       7.789  -1.533  23.129  0.00  0.00    +0.021 A 
ATOM     25  C   UNL     1       7.193  -2.457  23.994  0.00  0.00    +0.013 A 
ENDBRANCH   6  19
TORSDOF 2
ENDMDL
MODEL 5
REMARK VINA RESULT:      -7.0      1.665      2.165
REMARK  Name = 
REMARK  2 active torsions:
REMARK  status: ('A' for Active; 'I' for Inactive)
REMARK    1  A    between atoms: C_6  and  C_8
REMARK    2  A    between atoms: C_11  and  C_17
REMARK                            x       y       z     vdW  Elec       q    Type
REMARK                         _______ _______ _______ _____ _____    ______ ____
ROOT
ATOM      1  C   UNL     1       8.253   0.655  23.224  0.00  0.00    +0.001 A 
ATOM      2  C   UNL     1       9.688   0.635  23.380  0.00  0.00    +0.012 A 
ATOM      3  C   UNL     1      10.464  -0.528  23.614  0.00  0.00    +0.032 A 
ATOM      4  C   UNL     1       9.715  -1.714  23.658  0.00  0.00    +0.114 A 
ATOM      5  C   UNL     1       8.286  -1.687  23.492  0.00  0.00    +0.050 A 
ATOM      6  C   UNL     1       7.866  -2.992  23.546  0.00  0.00    +0.175 A 
ATOM      7  O   UNL     1       8.974  -3.765  23.771  0.00  0.00    -0.353 OA
ATOM      8  N   UNL     1      10.113  -2.983  23.840  0.00  0.00    -0.078 NA
ATOM      9  C   UNL     1       7.500  -0.550  23.300  0.00  0.00    +0.024 A 
ENDROOT
BRANCH   1  15
ATOM     10  N   UNL     1       4.113   2.837  22.647  0.00  0.00    -0.327 N 
ATOM     11  H   UNL     1       3.822   2.096  23.267  0.00  0.00    +0.145 HD
ATOM     12  H   UNL     1       3.714   3.753  22.794  0.00  0.00    +0.145 HD
ATOM     13  C   UNL     1       5.488   2.929  22.634  0.00  0.00    +0.213 A 
ATOM     14  N   UNL     1       6.186   1.833  22.941  0.00  0.00    -0.215 NA
ATOM     15  C   UNL     1       7.536   1.923  22.932  0.00  0.00    +0.076 A 
ATOM     16  C   UNL     1       8.176   3.115  22.658  0.00  0.00    +0.048 A 
ATOM     17  C   UNL     1       7.364   4.186  22.375  0.00  0.00    +0.116 A 
ATOM     18  N   UNL     1       6.023   4.119  22.359  0.00  0.00    -0.223 NA
ENDBRANCH   1  15
BRANCH   6  19
ATOM     19  C   UNL     1       6.612  -3.723  23.404  0.00  0.00    +0.021 A 
ATOM     20  C   UNL     1       6.529  -4.847  22.566  0.00  0.00    +0.013 A 
ATOM     21  C   UNL     1       5.332  -5.559  22.434  0.00  0.00    +0.021 A 
ATOM     22  C   UNL     1       4.203  -5.151  23.140  0.00  0.00    +0.041 A 
ATOM     23 CL   UNL     1       2.733  -6.031  22.989  0.00  0.00    -0.084 Cl
ATOM     24  C   UNL     1       4.259  -4.031  23.964  0.00  0.00    +0.021 A 
ATOM     25  C   UNL     1       5.455  -3.318  24.088  0.00  0.00    +0.013 A 
ENDBRANCH   6  19
TORSDOF 2
ENDMDL
MODEL 6
REMARK VINA RESULT:      -6.9      4.212      7.426
REMARK  Name = 
REMARK  2 active torsions:
REMARK  status: ('A' for Active; 'I' for Inactive)
REMARK    1  A    between atoms: C_6  and  C_8
REMARK    2  A    between atoms: C_11  and  C_17
REMARK                            x       y       z     vdW  Elec       q    Type
REMARK                         _______ _______ _______ _____ _____    ______ ____
ROOT
ATOM      1  C   UNL     1       6.002  -4.139  23.993  0.00  0.00    +0.001 A 
ATOM      2  C   UNL     1       6.985  -5.138  24.342  0.00  0.00    +0.012 A 
ATOM      3  C   UNL     1       8.387  -4.930  24.354  0.00  0.00    +0.032 A 
ATOM      4  C   UNL     1       8.772  -3.624  24.014  0.00  0.00    +0.114 A 
ATOM      5  C   UNL     1       7.787  -2.632  23.677  0.00  0.00    +0.050 A 
ATOM      6  C   UNL     1       8.476  -1.469  23.438  0.00  0.00    +0.175 A 
ATOM      7  O   UNL     1       9.808  -1.749  23.585  0.00  0.00    -0.353 OA
ATOM      8  N   UNL     1       9.994  -3.074  23.940  0.00  0.00    -0.078 NA
ATOM      9  C   UNL     1       6.406  -2.826  23.622  0.00  0.00    +0.024 A 
ENDROOT
BRANCH   1  15
ATOM     10  N   UNL     1       2.454  -6.918  22.606  0.00  0.00    -0.327 N 
ATOM     11  H   UNL     1       3.216  -7.575  22.530  0.00  0.00    +0.145 HD
ATOM     12  H   UNL     1       1.577  -7.260  22.968  0.00  0.00    +0.145 HD
ATOM     13  C   UNL     1       2.854  -5.815  23.329  0.00  0.00    +0.213 A 
ATOM     14  N   UNL     1       4.156  -5.524  23.348  0.00  0.00    -0.215 NA
ATOM     15  C   UNL     1       4.550  -4.442  24.061  0.00  0.00    +0.076 A 
ATOM     16  C   UNL     1       3.646  -3.688  24.781  0.00  0.00    +0.048 A 
ATOM     17  C   UNL     1       2.334  -4.085  24.710  0.00  0.00    +0.116 A 
ATOM     18  N   UNL     1       1.915  -5.143  23.995  0.00  0.00    -0.223 NA
ENDBRANCH   1  15
BRANCH   6  19
ATOM     19  C   UNL     1       8.161  -0.082  23.114  0.00  0.00    +0.021 A 
ATOM     20  C   UNL     1       8.729   0.537  21.989  0.00  0.00    +0.013 A 
ATOM     21  C   UNL     1       8.423   1.864  21.666  0.00  0.00    +0.021 A 
ATOM     22  C   UNL     1       7.544   2.585  22.469  0.00  0.00    +0.041 A 
ATOM     23 CL   UNL     1       7.156   4.213  22.069  0.00  0.00    -0.084 Cl
ATOM     24  C   UNL     1       6.981   1.997  23.598  0.00  0.00    +0.021 A 
ATOM     25  C   UNL     1       7.295   0.673  23.921  0.00  0.00    +0.013 A 
ENDBRANCH   6  19
TORSDOF 2
ENDMDL
MODEL 7
REMARK VINA RESULT:      -6.9      2.280      2.825
REMARK  Name = 
REMARK  2 active torsions:
REMARK  status: ('A' for Active; 'I' for Inactive)
REMARK    1  A    between atoms: C_6  and  C_8
REMARK    2  A    between atoms: C_11  and  C_17
REMARK                            x       y       z     vdW  Elec       q    Type
REMARK                         _______ _______ _______ _____ _____    ______ ____
ROOT
ATOM      1  C   UNL     1       7.591  -0.197  24.014  0.00  0.00    +0.001 A 
ATOM      2  C   UNL     1       8.997   0.034  23.780  0.00  0.00    +0.012 A 
ATOM      3  C   UNL     1       9.997  -0.971  23.781  0.00  0.00    +0.032 A 
ATOM      4  C   UNL     1       9.504  -2.265  24.007  0.00  0.00    +0.114 A 
ATOM      5  C   UNL     1       8.100  -2.488  24.229  0.00  0.00    +0.050 A 
ATOM      6  C   UNL     1       7.943  -3.844  24.374  0.00  0.00    +0.175 A 
ATOM      7  O   UNL     1       9.187  -4.409  24.284  0.00  0.00    -0.353 OA
ATOM      8  N   UNL     1      10.150  -3.441  24.057  0.00  0.00    -0.078 NA
ATOM      9  C   UNL     1       7.107  -1.510  24.271  0.00  0.00    +0.024 A 
ENDROOT
BRANCH   1  15
ATOM     10  N   UNL     1       6.185   3.718  21.794  0.00  0.00    -0.327 N 
ATOM     11  H   UNL     1       6.637   3.247  21.024  0.00  0.00    +0.145 HD
ATOM     12  H   UNL     1       5.325   4.210  21.600  0.00  0.00    +0.145 HD
ATOM     13  C   UNL     1       5.990   2.838  22.836  0.00  0.00    +0.213 A 
ATOM     14  N   UNL     1       6.806   1.786  22.921  0.00  0.00    -0.215 NA
ATOM     15  C   UNL     1       6.614   0.919  23.942  0.00  0.00    +0.076 A 
ATOM     16  C   UNL     1       5.582   1.088  24.844  0.00  0.00    +0.048 A 
ATOM     17  C   UNL     1       4.788   2.192  24.655  0.00  0.00    +0.116 A 
ATOM     18  N   UNL     1       4.970   3.077  23.660  0.00  0.00    -0.223 NA
ENDBRANCH   1  15
BRANCH   6  19
ATOM     19  C   UNL     1       6.843  -4.783  24.562  0.00  0.00    +0.021 A 
ATOM     20  C   UNL     1       6.509  -5.247  25.845  0.00  0.00    +0.013 A 
ATOM     21  C   UNL     1       5.448  -6.140  26.033  0.00  0.00    +0.021 A 
ATOM     22  C   UNL     1       4.710  -6.578  24.936  0.00  0.00    +0.041 A 
ATOM     23 CL   UNL     1       3.397  -7.665  25.165  0.00  0.00    -0.084 Cl
ATOM     24  C   UNL     1       5.033  -6.142  23.655  0.00  0.00    +0.021 A 
ATOM     25  C   UNL     1       6.099  -5.256  23.470  0.00  0.00    +0.013 A 
ENDBRANCH   6  19
TORSDOF 2
ENDMDL
MODEL 8
REMARK VINA RESULT:      -6.8      2.002      3.055
REMARK  Name = 
REMARK  2 active torsions:
REMARK  status: ('A' for Active; 'I' for Inactive)
REMARK    1  A    between atoms: C_6  and  C_8
REMARK    2  A    between atoms: C_11  and  C_17
REMARK                            x       y       z     vdW  Elec       q    Type
REMARK                         _______ _______ _______ _____ _____    ______ ____
ROOT
ATOM      1  C   UNL     1       8.226  -0.933  23.335  0.00  0.00    +0.001 A 
ATOM      2  C   UNL     1       9.585  -1.383  23.528  0.00  0.00    +0.012 A 
ATOM      3  C   UNL     1       9.960  -2.697  23.909  0.00  0.00    +0.032 A 
ATOM      4  C   UNL     1       8.877  -3.575  24.068  0.00  0.00    +0.114 A 
ATOM      5  C   UNL     1       7.527  -3.121  23.864  0.00  0.00    +0.050 A 
ATOM      6  C   UNL     1       6.720  -4.214  24.053  0.00  0.00    +0.175 A 
ATOM      7  O   UNL     1       7.531  -5.265  24.390  0.00  0.00    -0.353 OA
ATOM      8  N   UNL     1       8.859  -4.875  24.399  0.00  0.00    -0.078 NA
ATOM      9  C   UNL     1       7.135  -1.825  23.527  0.00  0.00    +0.024 A 
ENDROOT
BRANCH   1  15
ATOM     10  N   UNL     1       5.028   2.490  22.802  0.00  0.00    -0.327 N 
ATOM     11  H   UNL     1       4.613   1.999  23.579  0.00  0.00    +0.145 HD
ATOM     12  H   UNL     1       4.991   3.499  22.813  0.00  0.00    +0.145 HD
ATOM     13  C   UNL     1       6.331   2.077  22.624  0.00  0.00    +0.213 A 
ATOM     14  N   UNL     1       6.660   0.859  23.057  0.00  0.00    -0.215 NA
ATOM     15  C   UNL     1       7.940   0.453  22.886  0.00  0.00    +0.076 A 
ATOM     16  C   UNL     1       8.888   1.284  22.323  0.00  0.00    +0.048 A 
ATOM     17  C   UNL     1       8.449   2.524  21.929  0.00  0.00    +0.116 A 
ATOM     18  N   UNL     1       7.180   2.943  22.071  0.00  0.00    -0.223 NA
ENDBRANCH   1  15
BRANCH   6  19
ATOM     19  C   UNL     1       5.298  -4.528  23.962  0.00  0.00    +0.021 A 
ATOM     20  C   UNL     1       4.844  -5.560  23.126  0.00  0.00    +0.013 A 
ATOM     21  C   UNL     1       3.482  -5.873  23.043  0.00  0.00    +0.021 A 
ATOM     22  C   UNL     1       2.560  -5.153  23.797  0.00  0.00    +0.041 A 
ATOM     23 CL   UNL     1       0.887  -5.542  23.707  0.00  0.00    -0.084 Cl
ATOM     24  C   UNL     1       2.986  -4.116  24.621  0.00  0.00    +0.021 A 
ATOM     25  C   UNL     1       4.347  -3.801  24.696  0.00  0.00    +0.013 A 
ENDBRANCH   6  19
TORSDOF 2
ENDMDL
MODEL 9
REMARK VINA RESULT:      -6.8      3.936      7.342
REMARK  Name = 
REMARK  2 active torsions:
REMARK  status: ('A' for Active; 'I' for Inactive)
REMARK    1  A    between atoms: C_6  and  C_8
REMARK    2  A    between atoms: C_11  and  C_17
REMARK                            x       y       z     vdW  Elec       q    Type
REMARK                         _______ _______ _______ _____ _____    ______ ____
ROOT
ATOM      1  C   UNL     1       8.654  -1.692  23.548  0.00  0.00    +0.001 A 
ATOM      2  C   UNL     1       9.409  -1.709  22.318  0.00  0.00    +0.012 A 
ATOM      3  C   UNL     1       9.864  -0.556  21.628  0.00  0.00    +0.032 A 
ATOM      4  C   UNL     1       9.540   0.653  22.263  0.00  0.00    +0.114 A 
ATOM      5  C   UNL     1       8.796   0.660  23.494  0.00  0.00    +0.050 A 
ATOM      6  C   UNL     1       8.683   1.975  23.869  0.00  0.00    +0.175 A 
ATOM      7  O   UNL     1       9.291   2.727  22.900  0.00  0.00    -0.353 OA
ATOM      8  N   UNL     1       9.820   1.917  21.910  0.00  0.00    -0.078 NA
ATOM      9  C   UNL     1       8.306  -0.459  24.168  0.00  0.00    +0.024 A 
ENDROOT
BRANCH   1  15
ATOM     10  N   UNL     1      10.065  -5.698  25.597  0.00  0.00    -0.327 N 
ATOM     11  H   UNL     1      10.873  -5.123  25.788  0.00  0.00    +0.145 HD
ATOM     12  H   UNL     1       9.755  -6.324  26.325  0.00  0.00    +0.145 HD
ATOM     13  C   UNL     1       9.012  -4.910  25.186  0.00  0.00    +0.213 A 
ATOM     14  N   UNL     1       9.299  -3.735  24.622  0.00  0.00    -0.215 NA
ATOM     15  C   UNL     1       8.266  -2.958  24.221  0.00  0.00    +0.076 A 
ATOM     16  C   UNL     1       6.956  -3.344  24.425  0.00  0.00    +0.048 A 
ATOM     17  C   UNL     1       6.771  -4.562  25.032  0.00  0.00    +0.116 A 
ATOM     18  N   UNL     1       7.779  -5.359  25.422  0.00  0.00    -0.223 NA
ENDBRANCH   1  15
BRANCH   6  19
ATOM     19  C   UNL     1       8.133   2.728  24.991  0.00  0.00    +0.021 A 
ATOM     20  C   UNL     1       7.371   2.086  25.980  0.00  0.00    +0.013 A 
ATOM     21  C   UNL     1       6.850   2.800  27.065  0.00  0.00    +0.021 A 
ATOM     22  C   UNL     1       7.088   4.168  27.169  0.00  0.00    +0.041 A 
ATOM     23 CL   UNL     1       6.459   5.048  28.508  0.00  0.00    -0.084 Cl
ATOM     24  C   UNL     1       7.827   4.828  26.193  0.00  0.00    +0.021 A 
ATOM     25  C   UNL     1       8.340   4.112  25.106  0.00  0.00    +0.013 A 
ENDBRANCH   6  19
TORSDOF 2
ENDMDL
