MODEL 1
REMARK VINA RESULT:      -7.8      0.000      0.000
REMARK  Name = 
REMARK  3 active torsions:
REMARK  status: ('A' for Active; 'I' for Inactive)
REMARK    1  A    between atoms: C_5  and  C_6
REMARK    2  A    between atoms: C_6  and  C_7
REMARK    3  A    between atoms: C_19  and  C_20
REMARK                            x       y       z     vdW  Elec       q    Type
REMARK                         _______ _______ _______ _____ _____    ______ ____
ROOT
ATOM      1  F   UNL     1       7.804  -2.254  26.671  0.00  0.00    -0.205 F 
ATOM      2  C   UNL     1       8.573  -1.659  25.748  0.00  0.00    +0.135 A 
ATOM      3  C   UNL     1       8.816  -2.246  24.509  0.00  0.00    +0.072 A 
ATOM      4  C   UNL     1       9.426  -1.447  23.520  0.00  0.00    +0.020 A 
ATOM      5  C   UNL     1       9.810  -0.117  23.770  0.00  0.00    -0.041 A 
ATOM      6  C   UNL     1       9.687   0.383  25.070  0.00  0.00    +0.007 A 
ATOM      7  C   UNL     1       9.066  -0.389  26.053  0.00  0.00    +0.039 A 
ENDROOT
BRANCH   3   8
ATOM      8  C   UNL     1       8.341  -3.594  24.071  0.00  0.00    +0.249 C 
ATOM      9  N   UNL     1       7.011  -3.883  23.720  0.00  0.00    -0.296 N 
ATOM     10  C   UNL     1       6.733  -5.246  23.232  0.00  0.00    +0.123 C 
ATOM     11  C   UNL     1       5.730  -6.003  24.118  0.00  0.00    +0.100 C 
ATOM     12  N   UNL     1       4.308  -5.823  23.802  0.00  0.00    -0.314 NA
ATOM     13  H   UNL     1       4.025  -6.488  23.081  0.00  0.00    +0.122 HD
ATOM     14  C   UNL     1       3.913  -4.482  23.393  0.00  0.00    +0.082 C 
ATOM     15  C   UNL     1       4.565  -3.351  24.183  0.00  0.00    +0.034 C 
ATOM     16  C   UNL     1       5.918  -2.914  23.635  0.00  0.00    +0.109 C 
ATOM     17  O   UNL     1       9.201  -4.480  24.086  0.00  0.00    -0.270 OA
ENDBRANCH   3   8
BRANCH   5  18
ATOM     18  C   UNL     1      10.118   0.800  22.608  0.00  0.00    +0.093 C 
BRANCH  18  19
ATOM     19  C   UNL     1       9.875   2.280  22.823  0.00  0.00    +0.074 A 
ATOM     20  C   UNL     1       8.497   2.818  22.758  0.00  0.00    +0.011 A 
ATOM     21  C   UNL     1       8.307   4.133  23.169  0.00  0.00    +0.050 A 
ATOM     22  C   UNL     1       7.029   4.706  23.161  0.00  0.00    +0.014 A 
ATOM     23  C   UNL     1       5.938   3.952  22.716  0.00  0.00    +0.001 A 
ATOM     24  C   UNL     1       6.126   2.640  22.298  0.00  0.00    +0.001 A 
ATOM     25  C   UNL     1       9.468   4.923  23.604  0.00  0.00    +0.272 A 
ATOM     26  O   UNL     1       9.343   6.064  24.036  0.00  0.00    -0.266 OA
ATOM     27  N   UNL     1      10.693   4.312  23.475  0.00  0.00    -0.242 N 
ATOM     28  H   UNL     1      11.506   4.841  23.779  0.00  0.00    +0.192 HD
ATOM     29  C   UNL     1       7.400   2.065  22.314  0.00  0.00    +0.010 A 
ATOM     30  N   UNL     1      10.904   3.011  23.146  0.00  0.00    -0.175 NA
ENDBRANCH  18  19
ENDBRANCH   5  18
TORSDOF 3
ENDMDL
MODEL 2
REMARK VINA RESULT:      -7.8      2.013      2.817
REMARK  Name = 
REMARK  3 active torsions:
REMARK  status: ('A' for Active; 'I' for Inactive)
REMARK    1  A    between atoms: C_5  and  C_6
REMARK    2  A    between atoms: C_6  and  C_7
REMARK    3  A    between atoms: C_19  and  C_20
REMARK                            x       y       z     vdW  Elec       q    Type
REMARK                         _______ _______ _______ _____ _____    ______ ____
ROOT
ATOM      1  F   UNL     1       8.988  -1.732  26.313  0.00  0.00    -0.205 F 
ATOM      2  C   UNL     1       9.041  -1.146  25.108  0.00  0.00    +0.135 A 
ATOM      3  C   UNL     1       8.001  -1.263  24.191  0.00  0.00    +0.072 A 
ATOM      4  C   UNL     1       8.034  -0.422  23.059  0.00  0.00    +0.020 A 
ATOM      5  C   UNL     1       9.087   0.483  22.835  0.00  0.00    -0.041 A 
ATOM      6  C   UNL     1      10.185   0.460  23.700  0.00  0.00    +0.007 A 
ATOM      7  C   UNL     1      10.157  -0.351  24.835  0.00  0.00    +0.039 A 
ENDROOT
BRANCH   3   8
ATOM      8  C   UNL     1       6.762  -2.080  24.372  0.00  0.00    +0.249 C 
ATOM      9  N   UNL     1       6.604  -3.388  23.881  0.00  0.00    -0.296 N 
ATOM     10  C   UNL     1       5.347  -4.078  24.221  0.00  0.00    +0.123 C 
ATOM     11  C   UNL     1       4.524  -4.463  22.980  0.00  0.00    +0.100 C 
ATOM     12  N   UNL     1       4.829  -5.761  22.366  0.00  0.00    -0.314 NA
ATOM     13  H   UNL     1       4.296  -6.498  22.829  0.00  0.00    +0.122 HD
ATOM     14  C   UNL     1       6.237  -6.136  22.340  0.00  0.00    +0.082 C 
ATOM     15  C   UNL     1       7.199  -5.001  22.003  0.00  0.00    +0.034 C 
ATOM     16  C   UNL     1       7.635  -4.181  23.211  0.00  0.00    +0.109 C 
ATOM     17  O   UNL     1       5.836  -1.503  24.951  0.00  0.00    -0.270 OA
ENDBRANCH   3   8
BRANCH   5  18
ATOM     18  C   UNL     1       8.909   1.598  21.830  0.00  0.00    +0.093 C 
BRANCH  18  19
ATOM     19  C   UNL     1       8.016   2.751  22.241  0.00  0.00    +0.074 A 
ATOM     20  C   UNL     1       8.603   3.934  22.913  0.00  0.00    +0.011 A 
ATOM     21  C   UNL     1       7.782   5.045  23.076  0.00  0.00    +0.050 A 
ATOM     22  C   UNL     1       8.271   6.212  23.679  0.00  0.00    +0.014 A 
ATOM     23  C   UNL     1       9.591   6.249  24.138  0.00  0.00    +0.001 A 
ATOM     24  C   UNL     1      10.412   5.137  23.982  0.00  0.00    +0.001 A 
ATOM     25  C   UNL     1       6.388   4.980  22.617  0.00  0.00    +0.272 A 
ATOM     26  O   UNL     1       5.644   5.954  22.680  0.00  0.00    -0.266 OA
ATOM     27  N   UNL     1       5.968   3.761  22.138  0.00  0.00    -0.242 N 
ATOM     28  H   UNL     1       5.009   3.701  21.809  0.00  0.00    +0.192 HD
ATOM     29  C   UNL     1       9.927   3.976  23.373  0.00  0.00    +0.010 A 
ATOM     30  N   UNL     1       6.760   2.683  21.901  0.00  0.00    -0.175 NA
ENDBRANCH  18  19
ENDBRANCH   5  18
TORSDOF 3
ENDMDL
MODEL 3
REMARK VINA RESULT:      -7.7      1.820      2.109
REMARK  Name = 
REMARK  3 active torsions:
REMARK  status: ('A' for Active; 'I' for Inactive)
REMARK    1  A    between atoms: C_5  and  C_6
REMARK    2  A    between atoms: C_6  and  C_7
REMARK    3  A    between atoms: C_19  and  C_20
REMARK                            x       y       z     vdW  Elec       q    Type
REMARK                         _______ _______ _______ _____ _____    ______ ____
ROOT
ATOM      1  F   UNL     1       8.701  -4.258  25.118  0.00  0.00    -0.205 F 
ATOM      2  C   UNL     1       8.905  -3.466  24.057  0.00  0.00    +0.135 A 
ATOM      3  C   UNL     1       8.045  -3.472  22.962  0.00  0.00    +0.072 A 
ATOM      4  C   UNL     1       8.196  -2.442  22.010  0.00  0.00    +0.020 A 
ATOM      5  C   UNL     1       9.194  -1.458  22.131  0.00  0.00    -0.041 A 
ATOM      6  C   UNL     1      10.131  -1.577  23.162  0.00  0.00    +0.007 A 
ATOM      7  C   UNL     1       9.981  -2.578  24.123  0.00  0.00    +0.039 A 
ENDROOT
BRANCH   3   8
ATOM      8  C   UNL     1       6.865  -4.372  22.781  0.00  0.00    +0.249 C 
ATOM      9  N   UNL     1       5.598  -4.128  23.339  0.00  0.00    -0.296 N 
ATOM     10  C   UNL     1       4.525  -5.077  22.993  0.00  0.00    +0.123 C 
ATOM     11  C   UNL     1       3.946  -5.798  24.222  0.00  0.00    +0.100 C 
ATOM     12  N   UNL     1       2.844  -5.126  24.919  0.00  0.00    -0.314 NA
ATOM     13  H   UNL     1       1.956  -5.369  24.479  0.00  0.00    +0.122 HD
ATOM     14  C   UNL     1       2.945  -3.675  25.018  0.00  0.00    +0.082 C 
ATOM     15  C   UNL     1       4.343  -3.148  25.325  0.00  0.00    +0.034 C 
ATOM     16  C   UNL     1       5.209  -2.934  24.090  0.00  0.00    +0.109 C 
ATOM     17  O   UNL     1       7.088  -5.402  22.137  0.00  0.00    -0.270 OA
ENDBRANCH   3   8
BRANCH   5  18
ATOM     18  C   UNL     1       9.094  -0.192  21.310  0.00  0.00    +0.093 C 
BRANCH  18  19
ATOM     19  C   UNL     1       9.172   1.119  22.065  0.00  0.00    +0.074 A 
ATOM     20  C   UNL     1       8.117   1.469  23.045  0.00  0.00    +0.011 A 
ATOM     21  C   UNL     1       8.344   2.574  23.857  0.00  0.00    +0.050 A 
ATOM     22  C   UNL     1       7.406   2.954  24.826  0.00  0.00    +0.014 A 
ATOM     23  C   UNL     1       6.221   2.224  24.961  0.00  0.00    +0.001 A 
ATOM     24  C   UNL     1       5.988   1.122  24.145  0.00  0.00    +0.001 A 
ATOM     25  C   UNL     1       9.580   3.351  23.682  0.00  0.00    +0.272 A 
ATOM     26  O   UNL     1       9.856   4.294  24.416  0.00  0.00    -0.266 OA
ATOM     27  N   UNL     1      10.388   2.968  22.637  0.00  0.00    -0.242 N 
ATOM     28  H   UNL     1      11.250   3.489  22.507  0.00  0.00    +0.192 HD
ATOM     29  C   UNL     1       6.928   0.738  23.184  0.00  0.00    +0.010 A 
ATOM     30  N   UNL     1      10.230   1.855  21.874  0.00  0.00    -0.175 NA
ENDBRANCH  18  19
ENDBRANCH   5  18
TORSDOF 3
ENDMDL
MODEL 4
REMARK VINA RESULT:      -7.7      3.287      7.985
REMARK  Name = 
REMARK  3 active torsions:
REMARK  status: ('A' for Active; 'I' for Inactive)
REMARK    1  A    between atoms: C_5  and  C_6
REMARK    2  A    between atoms: C_6  and  C_7
REMARK    3  A    between atoms: C_19  and  C_20
REMARK                            x       y       z     vdW  Elec       q    Type
REMARK                         _______ _______ _______ _____ _____    ______ ____
ROOT
ATOM      1  F   UNL     1       7.185  -3.013  21.530  0.00  0.00    -0.205 F 
ATOM      2  C   UNL     1       7.640  -3.549  22.672  0.00  0.00    +0.135 A 
ATOM      3  C   UNL     1       8.691  -2.975  23.382  0.00  0.00    +0.072 A 
ATOM      4  C   UNL     1       8.938  -3.460  24.682  0.00  0.00    +0.020 A 
ATOM      5  C   UNL     1       8.182  -4.506  25.243  0.00  0.00    -0.041 A 
ATOM      6  C   UNL     1       7.239  -5.155  24.441  0.00  0.00    +0.007 A 
ATOM      7  C   UNL     1       6.968  -4.672  23.160  0.00  0.00    +0.039 A 
ENDROOT
BRANCH   3   8
ATOM      8  C   UNL     1       9.480  -1.777  22.961  0.00  0.00    +0.249 C 
ATOM      9  N   UNL     1       9.017  -0.454  23.066  0.00  0.00    -0.296 N 
ATOM     10  C   UNL     1       9.958   0.613  22.680  0.00  0.00    +0.123 C 
ATOM     11  C   UNL     1       9.444   1.465  21.508  0.00  0.00    +0.100 C 
ATOM     12  N   UNL     1       8.603   2.617  21.852  0.00  0.00    -0.314 NA
ATOM     13  H   UNL     1       9.189   3.427  22.058  0.00  0.00    +0.122 HD
ATOM     14  C   UNL     1       7.668   2.415  22.952  0.00  0.00    +0.082 C 
ATOM     15  C   UNL     1       6.971   1.058  22.963  0.00  0.00    +0.034 C 
ATOM     16  C   UNL     1       7.756  -0.035  23.678  0.00  0.00    +0.109 C 
ATOM     17  O   UNL     1      10.577  -2.027  22.451  0.00  0.00    -0.270 OA
ENDBRANCH   3   8
BRANCH   5  18
ATOM     18  C   UNL     1       8.233  -4.744  26.735  0.00  0.00    +0.093 C 
BRANCH  18  19
ATOM     19  C   UNL     1       6.941  -5.168  27.404  0.00  0.00    +0.074 A 
ATOM     20  C   UNL     1       5.797  -4.229  27.458  0.00  0.00    +0.011 A 
ATOM     21  C   UNL     1       4.577  -4.737  27.890  0.00  0.00    +0.050 A 
ATOM     22  C   UNL     1       3.442  -3.918  27.945  0.00  0.00    +0.014 A 
ATOM     23  C   UNL     1       3.545  -2.571  27.581  0.00  0.00    +0.001 A 
ATOM     24  C   UNL     1       4.766  -2.059  27.156  0.00  0.00    +0.001 A 
ATOM     25  C   UNL     1       4.492  -6.145  28.300  0.00  0.00    +0.272 A 
ATOM     26  O   UNL     1       3.425  -6.656  28.627  0.00  0.00    -0.266 OA
ATOM     27  N   UNL     1       5.678  -6.841  28.315  0.00  0.00    -0.242 N 
ATOM     28  H   UNL     1       5.636  -7.819  28.588  0.00  0.00    +0.192 HD
ATOM     29  C   UNL     1       5.896  -2.878  27.092  0.00  0.00    +0.010 A 
ATOM     30  N   UNL     1       6.868  -6.396  27.834  0.00  0.00    -0.175 NA
ENDBRANCH  18  19
ENDBRANCH   5  18
TORSDOF 3
ENDMDL
MODEL 5
REMARK VINA RESULT:      -7.6      2.755      7.924
REMARK  Name = 
REMARK  3 active torsions:
REMARK  status: ('A' for Active; 'I' for Inactive)
REMARK    1  A    between atoms: C_5  and  C_6
REMARK    2  A    between atoms: C_6  and  C_7
REMARK    3  A    between atoms: C_19  and  C_20
REMARK                            x       y       z     vdW  Elec       q    Type
REMARK                         _______ _______ _______ _____ _____    ______ ____
ROOT
ATOM      1  F   UNL     1       7.964   1.549  21.292  0.00  0.00    -0.205 F 
ATOM      2  C   UNL     1       8.604   0.644  22.046  0.00  0.00    +0.135 A 
ATOM      3  C   UNL     1       8.426   0.583  23.425  0.00  0.00    +0.072 A 
ATOM      4  C   UNL     1       8.942  -0.544  24.098  0.00  0.00    +0.020 A 
ATOM      5  C   UNL     1       9.641  -1.560  23.420  0.00  0.00    -0.041 A 
ATOM      6  C   UNL     1       9.928  -1.385  22.063  0.00  0.00    +0.007 A 
ATOM      7  C   UNL     1       9.406  -0.286  21.380  0.00  0.00    +0.039 A 
ENDROOT
BRANCH   3   8
ATOM      8  C   UNL     1       7.594   1.518  24.243  0.00  0.00    +0.249 C 
ATOM      9  N   UNL     1       7.827   2.901  24.334  0.00  0.00    -0.296 N 
ATOM     10  C   UNL     1       6.860   3.688  25.121  0.00  0.00    +0.123 C 
ATOM     11  C   UNL     1       7.506   4.398  26.322  0.00  0.00    +0.100 C 
ATOM     12  N   UNL     1       8.071   5.729  26.072  0.00  0.00    -0.314 NA
ATOM     13  H   UNL     1       7.343   6.439  26.167  0.00  0.00    +0.122 HD
ATOM     14  C   UNL     1       8.742   5.905  24.790  0.00  0.00    +0.082 C 
ATOM     15  C   UNL     1       9.603   4.725  24.348  0.00  0.00    +0.034 C 
ATOM     16  C   UNL     1       8.837   3.651  23.587  0.00  0.00    +0.109 C 
ATOM     17  O   UNL     1       6.694   0.981  24.896  0.00  0.00    -0.270 OA
ENDBRANCH   3   8
BRANCH   5  18
ATOM     18  C   UNL     1       9.852  -2.895  24.096  0.00  0.00    +0.093 C 
BRANCH  18  19
ATOM     19  C   UNL     1       8.651  -3.512  24.783  0.00  0.00    +0.074 A 
ATOM     20  C   UNL     1       7.639  -4.241  23.984  0.00  0.00    +0.011 A 
ATOM     21  C   UNL     1       6.676  -4.962  24.682  0.00  0.00    +0.050 A 
ATOM     22  C   UNL     1       5.701  -5.699  23.998  0.00  0.00    +0.014 A 
ATOM     23  C   UNL     1       5.685  -5.690  22.600  0.00  0.00    +0.001 A 
ATOM     24  C   UNL     1       6.642  -4.964  21.899  0.00  0.00    +0.001 A 
ATOM     25  C   UNL     1       6.686  -4.936  26.152  0.00  0.00    +0.272 A 
ATOM     26  O   UNL     1       5.900  -5.606  26.812  0.00  0.00    -0.266 OA
ATOM     27  N   UNL     1       7.612  -4.101  26.732  0.00  0.00    -0.242 N 
ATOM     28  H   UNL     1       7.639  -4.077  27.748  0.00  0.00    +0.192 HD
ATOM     29  C   UNL     1       7.621  -4.236  22.582  0.00  0.00    +0.010 A 
ATOM     30  N   UNL     1       8.608  -3.441  26.084  0.00  0.00    -0.175 NA
ENDBRANCH  18  19
ENDBRANCH   5  18
TORSDOF 3
ENDMDL
MODEL 6
REMARK VINA RESULT:      -7.6      2.618      8.590
REMARK  Name = 
REMARK  3 active torsions:
REMARK  status: ('A' for Active; 'I' for Inactive)
REMARK    1  A    between atoms: C_5  and  C_6
REMARK    2  A    between atoms: C_6  and  C_7
REMARK    3  A    between atoms: C_19  and  C_20
REMARK                            x       y       z     vdW  Elec       q    Type
REMARK                         _______ _______ _______ _____ _____    ______ ____
ROOT
ATOM      1  F   UNL     1      10.105  -0.436  21.741  0.00  0.00    -0.205 F 
ATOM      2  C   UNL     1       9.117  -1.069  22.389  0.00  0.00    +0.135 A 
ATOM      3  C   UNL     1       8.502  -0.514  23.508  0.00  0.00    +0.072 A 
ATOM      4  C   UNL     1       7.321  -1.128  23.973  0.00  0.00    +0.020 A 
ATOM      5  C   UNL     1       6.789  -2.277  23.360  0.00  0.00    -0.041 A 
ATOM      6  C   UNL     1       7.518  -2.890  22.337  0.00  0.00    +0.007 A 
ATOM      7  C   UNL     1       8.678  -2.282  21.852  0.00  0.00    +0.039 A 
ENDROOT
BRANCH   3   8
ATOM      8  C   UNL     1       8.883   0.773  24.167  0.00  0.00    +0.249 C 
ATOM      9  N   UNL     1       8.335   2.022  23.827  0.00  0.00    -0.296 N 
ATOM     10  C   UNL     1       8.765   3.178  24.635  0.00  0.00    +0.123 C 
ATOM     11  C   UNL     1       9.475   4.257  23.801  0.00  0.00    +0.100 C 
ATOM     12  N   UNL     1       8.620   5.274  23.177  0.00  0.00    -0.314 NA
ATOM     13  H   UNL     1       8.447   6.034  23.836  0.00  0.00    +0.122 HD
ATOM     14  C   UNL     1       7.346   4.798  22.653  0.00  0.00    +0.082 C 
ATOM     15  C   UNL     1       7.407   3.452  21.937  0.00  0.00    +0.034 C 
ATOM     16  C   UNL     1       7.260   2.251  22.863  0.00  0.00    +0.109 C 
ATOM     17  O   UNL     1       9.773   0.680  25.018  0.00  0.00    -0.270 OA
ENDBRANCH   3   8
BRANCH   5  18
ATOM     18  C   UNL     1       5.361  -2.681  23.649  0.00  0.00    +0.093 C 
BRANCH  18  19
ATOM     19  C   UNL     1       5.098  -4.158  23.860  0.00  0.00    +0.074 A 
ATOM     20  C   UNL     1       5.328  -4.765  25.192  0.00  0.00    +0.011 A 
ATOM     21  C   UNL     1       4.873  -6.065  25.386  0.00  0.00    +0.050 A 
ATOM     22  C   UNL     1       5.030  -6.699  26.625  0.00  0.00    +0.014 A 
ATOM     23  C   UNL     1       5.668  -6.021  27.669  0.00  0.00    +0.001 A 
ATOM     24  C   UNL     1       6.129  -4.724  27.476  0.00  0.00    +0.001 A 
ATOM     25  C   UNL     1       4.234  -6.774  24.269  0.00  0.00    +0.272 A 
ATOM     26  O   UNL     1       3.759  -7.897  24.409  0.00  0.00    -0.266 OA
ATOM     27  N   UNL     1       4.222  -6.113  23.063  0.00  0.00    -0.242 N 
ATOM     28  H   UNL     1       3.776  -6.586  22.282  0.00  0.00    +0.192 HD
ATOM     29  C   UNL     1       5.966  -4.089  26.242  0.00  0.00    +0.010 A 
ATOM     30  N   UNL     1       4.591  -4.822  22.859  0.00  0.00    -0.175 NA
ENDBRANCH  18  19
ENDBRANCH   5  18
TORSDOF 3
ENDMDL
MODEL 7
REMARK VINA RESULT:      -7.6      2.153      2.799
REMARK  Name = 
REMARK  3 active torsions:
REMARK  status: ('A' for Active; 'I' for Inactive)
REMARK    1  A    between atoms: C_5  and  C_6
REMARK    2  A    between atoms: C_6  and  C_7
REMARK    3  A    between atoms: C_19  and  C_20
REMARK                            x       y       z     vdW  Elec       q    Type
REMARK                         _______ _______ _______ _____ _____    ______ ____
ROOT
ATOM      1  F   UNL     1       8.622  -4.370  25.011  0.00  0.00    -0.205 F 
ATOM      2  C   UNL     1       8.839  -3.499  24.016  0.00  0.00    +0.135 A 
ATOM      3  C   UNL     1       8.007  -3.438  22.902  0.00  0.00    +0.072 A 
ATOM      4  C   UNL     1       8.164  -2.339  22.032  0.00  0.00    +0.020 A 
ATOM      5  C   UNL     1       9.142  -1.351  22.250  0.00  0.00    -0.041 A 
ATOM      6  C   UNL     1      10.055  -1.530  23.294  0.00  0.00    +0.007 A 
ATOM      7  C   UNL     1       9.898  -2.602  24.175  0.00  0.00    +0.039 A 
ENDROOT
BRANCH   3   8
ATOM      8  C   UNL     1       6.847  -4.340  22.625  0.00  0.00    +0.249 C 
ATOM      9  N   UNL     1       5.672  -4.367  23.395  0.00  0.00    -0.296 N 
ATOM     10  C   UNL     1       4.595  -5.261  22.932  0.00  0.00    +0.123 C 
ATOM     11  C   UNL     1       4.237  -6.347  23.961  0.00  0.00    +0.100 C 
ATOM     12  N   UNL     1       3.229  -5.992  24.967  0.00  0.00    -0.314 NA
ATOM     13  H   UNL     1       2.294  -6.170  24.599  0.00  0.00    +0.122 HD
ATOM     14  C   UNL     1       3.290  -4.627  25.474  0.00  0.00    +0.082 C 
ATOM     15  C   UNL     1       4.698  -4.099  25.731  0.00  0.00    +0.034 C 
ATOM     16  C   UNL     1       5.357  -3.473  24.509  0.00  0.00    +0.109 C 
ATOM     17  O   UNL     1       7.008  -5.122  21.682  0.00  0.00    -0.270 OA
ENDBRANCH   3   8
BRANCH   5  18
ATOM     18  C   UNL     1       9.041  -0.030  21.522  0.00  0.00    +0.093 C 
BRANCH  18  19
ATOM     19  C   UNL     1       8.245   1.066  22.202  0.00  0.00    +0.074 A 
ATOM     20  C   UNL     1       8.946   2.246  22.762  0.00  0.00    +0.011 A 
ATOM     21  C   UNL     1       8.159   3.312  23.182  0.00  0.00    +0.050 A 
ATOM     22  C   UNL     1       8.747   4.473  23.700  0.00  0.00    +0.014 A 
ATOM     23  C   UNL     1      10.139   4.549  23.812  0.00  0.00    +0.001 A 
ATOM     24  C   UNL     1      10.928   3.481  23.399  0.00  0.00    +0.001 A 
ATOM     25  C   UNL     1       6.696   3.205  23.088  0.00  0.00    +0.272 A 
ATOM     26  O   UNL     1       5.962   4.142  23.385  0.00  0.00    -0.266 OA
ATOM     27  N   UNL     1       6.208   1.989  22.670  0.00  0.00    -0.242 N 
ATOM     28  H   UNL     1       5.198   1.901  22.590  0.00  0.00    +0.192 HD
ATOM     29  C   UNL     1      10.341   2.326  22.875  0.00  0.00    +0.010 A 
ATOM     30  N   UNL     1       6.947   0.957  22.187  0.00  0.00    -0.175 NA
ENDBRANCH  18  19
ENDBRANCH   5  18
TORSDOF 3
ENDMDL
MODEL 8
REMARK VINA RESULT:      -7.6      2.216      7.713
REMARK  Name = 
REMARK  3 active torsions:
REMARK  status: ('A' for Active; 'I' for Inactive)
REMARK    1  A    between atoms: C_5  and  C_6
REMARK    2  A    between atoms: C_6  and  C_7
REMARK    3  A    between atoms: C_19  and  C_20
REMARK                            x       y       z     vdW  Elec       q    Type
REMARK                         _______ _______ _______ _____ _____    ______ ____
ROOT
ATOM      1  F   UNL     1       9.049   1.637  20.827  0.00  0.00    -0.205 F 
ATOM      2  C   UNL     1       9.434   0.716  21.722  0.00  0.00    +0.135 A 
ATOM      3  C   UNL     1       9.823   1.065  23.012  0.00  0.00    +0.072 A 
ATOM      4  C   UNL     1       9.975   0.023  23.950  0.00  0.00    +0.020 A 
ATOM      5  C   UNL     1       9.776  -1.326  23.603  0.00  0.00    -0.041 A 
ATOM      6  C   UNL     1       9.535  -1.644  22.263  0.00  0.00    +0.007 A 
ATOM      7  C   UNL     1       9.362  -0.623  21.328  0.00  0.00    +0.039 A 
ENDROOT
BRANCH   3   8
ATOM      8  C   UNL     1       9.937   2.457  23.545  0.00  0.00    +0.249 C 
ATOM      9  N   UNL     1       8.839   3.308  23.758  0.00  0.00    -0.296 N 
ATOM     10  C   UNL     1       9.124   4.621  24.367  0.00  0.00    +0.123 C 
ATOM     11  C   UNL     1       8.727   5.797  23.459  0.00  0.00    +0.100 C 
ATOM     12  N   UNL     1       7.345   6.277  23.570  0.00  0.00    -0.314 NA
ATOM     13  H   UNL     1       7.275   6.961  24.325  0.00  0.00    +0.122 HD
ATOM     14  C   UNL     1       6.330   5.250  23.763  0.00  0.00    +0.082 C 
ATOM     15  C   UNL     1       6.528   3.985  22.933  0.00  0.00    +0.034 C 
ATOM     16  C   UNL     1       7.431   2.949  23.589  0.00  0.00    +0.109 C 
ATOM     17  O   UNL     1      11.092   2.847  23.743  0.00  0.00    -0.270 OA
ENDBRANCH   3   8
BRANCH   5  18
ATOM     18  C   UNL     1       9.592  -2.356  24.694  0.00  0.00    +0.093 C 
BRANCH  18  19
ATOM     19  C   UNL     1       8.495  -3.380  24.488  0.00  0.00    +0.074 A 
ATOM     20  C   UNL     1       7.095  -3.041  24.835  0.00  0.00    +0.011 A 
ATOM     21  C   UNL     1       6.106  -3.932  24.432  0.00  0.00    +0.050 A 
ATOM     22  C   UNL     1       4.756  -3.669  24.700  0.00  0.00    +0.014 A 
ATOM     23  C   UNL     1       4.405  -2.508  25.396  0.00  0.00    +0.001 A 
ATOM     24  C   UNL     1       5.393  -1.619  25.806  0.00  0.00    +0.001 A 
ATOM     25  C   UNL     1       6.494  -5.163  23.729  0.00  0.00    +0.272 A 
ATOM     26  O   UNL     1       5.655  -5.948  23.298  0.00  0.00    -0.266 OA
ATOM     27  N   UNL     1       7.845  -5.387  23.608  0.00  0.00    -0.242 N 
ATOM     28  H   UNL     1       8.130  -6.230  23.117  0.00  0.00    +0.192 HD
ATOM     29  C   UNL     1       6.739  -1.877  25.532  0.00  0.00    +0.010 A 
ATOM     30  N   UNL     1       8.830  -4.507  23.925  0.00  0.00    -0.175 NA
ENDBRANCH  18  19
ENDBRANCH   5  18
TORSDOF 3
ENDMDL
MODEL 9
REMARK VINA RESULT:      -7.5      2.357      2.976
REMARK  Name = 
REMARK  3 active torsions:
REMARK  status: ('A' for Active; 'I' for Inactive)
REMARK    1  A    between atoms: C_5  and  C_6
REMARK    2  A    between atoms: C_6  and  C_7
REMARK    3  A    between atoms: C_19  and  C_20
REMARK                            x       y       z     vdW  Elec       q    Type
REMARK                         _______ _______ _______ _____ _____    ______ ____
ROOT
ATOM      1  F   UNL     1       8.027  -3.722  22.100  0.00  0.00    -0.205 F 
ATOM      2  C   UNL     1       8.270  -2.506  22.608  0.00  0.00    +0.135 A 
ATOM      3  C   UNL     1       7.550  -2.007  23.689  0.00  0.00    +0.072 A 
ATOM      4  C   UNL     1       8.032  -0.834  24.307  0.00  0.00    +0.020 A 
ATOM      5  C   UNL     1       9.178  -0.164  23.840  0.00  0.00    -0.041 A 
ATOM      6  C   UNL     1       9.782  -0.612  22.661  0.00  0.00    +0.007 A 
ATOM      7  C   UNL     1       9.328  -1.783  22.051  0.00  0.00    +0.039 A 
ENDROOT
BRANCH   3   8
ATOM      8  C   UNL     1       6.403  -2.687  24.366  0.00  0.00    +0.249 C 
ATOM      9  N   UNL     1       6.536  -3.518  25.492  0.00  0.00    -0.296 N 
ATOM     10  C   UNL     1       5.291  -4.043  26.081  0.00  0.00    +0.123 C 
ATOM     11  C   UNL     1       5.222  -5.580  26.059  0.00  0.00    +0.100 C 
ATOM     12  N   UNL     1       5.816  -6.281  27.203  0.00  0.00    -0.314 NA
ATOM     13  H   UNL     1       5.132  -6.358  27.956  0.00  0.00    +0.122 HD
ATOM     14  C   UNL     1       7.045  -5.705  27.733  0.00  0.00    +0.082 C 
ATOM     15  C   UNL     1       8.028  -5.205  26.679  0.00  0.00    +0.034 C 
ATOM     16  C   UNL     1       7.775  -3.772  26.227  0.00  0.00    +0.109 C 
ATOM     17  O   UNL     1       5.304  -2.514  23.830  0.00  0.00    -0.270 OA
ENDBRANCH   3   8
BRANCH   5  18
ATOM     18  C   UNL     1       9.859   0.853  24.726  0.00  0.00    +0.093 C 
BRANCH  18  19
ATOM     19  C   UNL     1       9.745   2.306  24.312  0.00  0.00    +0.074 A 
ATOM     20  C   UNL     1       8.714   3.170  24.931  0.00  0.00    +0.011 A 
ATOM     21  C   UNL     1       8.789   4.535  24.674  0.00  0.00    +0.050 A 
ATOM     22  C   UNL     1       7.866   5.421  25.243  0.00  0.00    +0.014 A 
ATOM     23  C   UNL     1       6.848   4.923  26.063  0.00  0.00    +0.001 A 
ATOM     24  C   UNL     1       6.766   3.558  26.316  0.00  0.00    +0.001 A 
ATOM     25  C   UNL     1       9.846   5.039  23.785  0.00  0.00    +0.272 A 
ATOM     26  O   UNL     1       9.993   6.239  23.579  0.00  0.00    -0.266 OA
ATOM     27  N   UNL     1      10.636   4.085  23.188  0.00  0.00    -0.242 N 
ATOM     28  H   UNL     1      11.378   4.418  22.578  0.00  0.00    +0.192 HD
ATOM     29  C   UNL     1       7.692   2.675  25.754  0.00  0.00    +0.010 A 
ATOM     30  N   UNL     1      10.634   2.757  23.473  0.00  0.00    -0.175 NA
ENDBRANCH  18  19
ENDBRANCH   5  18
TORSDOF 3
ENDMDL
