MODEL 1
REMARK VINA RESULT:      -5.0      0.000      0.000
REMARK  Name = 
REMARK  11 active torsions:
REMARK  status: ('A' for Active; 'I' for Inactive)
REMARK    1  A    between atoms: O_1  and  C_2
REMARK    2  A    between atoms: C_2  and  C_3
REMARK    3  A    between atoms: C_3  and  C_4
REMARK    4  A    between atoms: C_4  and  O_6
REMARK    5  A    between atoms: C_4  and  C_7
REMARK    6  A    between atoms: C_7  and  O_9
REMARK    7  A    between atoms: C_7  and  C_10
REMARK    8  A    between atoms: C_10  and  O_11
REMARK    9  A    between atoms: O_11  and  P_12
REMARK   10  A    between atoms: P_12  and  O_13
REMARK   11  A    between atoms: P_12  and  O_14
REMARK                            x       y       z     vdW  Elec       q    Type
REMARK                         _______ _______ _______ _____ _____    ______ ____
ROOT
ATOM      1  C   UNL     1       8.456  -1.967  22.867  0.00  0.00    +0.169 C 
ENDROOT
BRANCH   1   2
ATOM      2  O   UNL     1       7.330  -1.120  23.126  0.00  0.00    -0.387 OA
ATOM      3  H   UNL     1       6.560  -1.695  23.268  0.00  0.00    +0.210 HD
ENDBRANCH   1   2
BRANCH   1   4
ATOM      4  C   UNL     1       9.312  -1.422  21.698  0.00  0.00    +0.147 C 
BRANCH   4   5
ATOM      5  O   UNL     1      10.704  -1.654  21.917  0.00  0.00    -0.389 OA
ATOM      6  H   UNL     1      10.928  -1.220  22.757  0.00  0.00    +0.210 HD
ENDBRANCH   4   5
BRANCH   4   7
ATOM      7  C   UNL     1       9.075   0.087  21.497  0.00  0.00    +0.062 C 
BRANCH   7   8
ATOM      8  C   UNL     1      10.070   0.949  22.244  0.00  0.00    +0.158 C 
BRANCH   8   9
ATOM      9  O   UNL     1      10.198   2.218  21.596  0.00  0.00    -0.395 OA
ATOM     10  H   UNL     1      11.141   2.333  21.380  0.00  0.00    +0.209 HD
ENDBRANCH   8   9
ENDBRANCH   7   8
ENDBRANCH   4   7
ENDBRANCH   1   4
BRANCH   1  11
ATOM     11  C   UNL     1       9.280  -2.225  24.139  0.00  0.00    +0.206 C 
BRANCH  11  12
ATOM     12  O   UNL     1       9.817  -3.549  24.213  0.00  0.00    -0.284 OA
BRANCH  12  13
ATOM     13  P   UNL     1       9.039  -4.725  25.216  0.00  0.00    +0.472 P 
ATOM     14  O   UNL     1       8.343  -5.777  26.113  0.00  0.00    -0.228 OA
BRANCH  13  15
ATOM     15  O   UNL     1      10.471  -5.493  25.383  0.00  0.00    -0.303 OA
ATOM     16  H   UNL     1      10.509  -6.131  24.644  0.00  0.00    +0.222 HD
ENDBRANCH  13  15
BRANCH  13  17
ATOM     17  O   UNL     1       8.501  -5.437  23.842  0.00  0.00    -0.303 OA
ATOM     18  H   UNL     1       9.216  -5.446  23.180  0.00  0.00    +0.222 HD
ENDBRANCH  13  17
ENDBRANCH  12  13
ENDBRANCH  11  12
ENDBRANCH   1  11
TORSDOF 11
ENDMDL
MODEL 2
REMARK VINA RESULT:      -4.9      1.038      1.702
REMARK  Name = 
REMARK  11 active torsions:
REMARK  status: ('A' for Active; 'I' for Inactive)
REMARK    1  A    between atoms: O_1  and  C_2
REMARK    2  A    between atoms: C_2  and  C_3
REMARK    3  A    between atoms: C_3  and  C_4
REMARK    4  A    between atoms: C_4  and  O_6
REMARK    5  A    between atoms: C_4  and  C_7
REMARK    6  A    between atoms: C_7  and  O_9
REMARK    7  A    between atoms: C_7  and  C_10
REMARK    8  A    between atoms: C_10  and  O_11
REMARK    9  A    between atoms: O_11  and  P_12
REMARK   10  A    between atoms: P_12  and  O_13
REMARK   11  A    between atoms: P_12  and  O_14
REMARK                            x       y       z     vdW  Elec       q    Type
REMARK                         _______ _______ _______ _____ _____    ______ ____
ROOT
ATOM      1  C   UNL     1      10.010  -1.519  22.952  0.00  0.00    +0.169 C 
ENDROOT
BRANCH   1   2
ATOM      2  O   UNL     1      10.219  -1.517  21.535  0.00  0.00    -0.387 OA
ATOM      3  H   UNL     1      10.134  -0.598  21.230  0.00  0.00    +0.210 HD
ENDBRANCH   1   2
BRANCH   1   4
ATOM      4  C   UNL     1       9.392  -0.182  23.429  0.00  0.00    +0.147 C 
BRANCH   4   5
ATOM      5  O   UNL     1       8.378   0.274  22.533  0.00  0.00    -0.389 OA
ATOM      6  H   UNL     1       7.539  -0.101  22.849  0.00  0.00    +0.210 HD
ENDBRANCH   4   5
BRANCH   4   7
ATOM      7  C   UNL     1      10.472   0.907  23.570  0.00  0.00    +0.062 C 
BRANCH   7   8
ATOM      8  C   UNL     1      10.059   2.234  22.969  0.00  0.00    +0.158 C 
BRANCH   8   9
ATOM      9  O   UNL     1      10.239   2.204  21.551  0.00  0.00    -0.395 OA
ATOM     10  H   UNL     1       9.428   1.822  21.169  0.00  0.00    +0.209 HD
ENDBRANCH   8   9
ENDBRANCH   7   8
ENDBRANCH   4   7
ENDBRANCH   1   4
BRANCH   1  11
ATOM     11  C   UNL     1       9.203  -2.745  23.407  0.00  0.00    +0.206 C 
BRANCH  11  12
ATOM     12  O   UNL     1       9.919  -3.598  24.306  0.00  0.00    -0.284 OA
BRANCH  12  13
ATOM     13  P   UNL     1       9.045  -4.751  25.256  0.00  0.00    +0.472 P 
ATOM     14  O   UNL     1       8.264  -5.783  26.106  0.00  0.00    -0.228 OA
BRANCH  13  15
ATOM     15  O   UNL     1      10.430  -5.592  25.463  0.00  0.00    -0.303 OA
ATOM     16  H   UNL     1      11.145  -4.981  25.198  0.00  0.00    +0.222 HD
ENDBRANCH  13  15
BRANCH  13  17
ATOM     17  O   UNL     1       8.527  -5.411  23.849  0.00  0.00    -0.303 OA
ATOM     18  H   UNL     1       8.616  -6.380  23.894  0.00  0.00    +0.222 HD
ENDBRANCH  13  17
ENDBRANCH  12  13
ENDBRANCH  11  12
ENDBRANCH   1  11
TORSDOF 11
ENDMDL
MODEL 3
REMARK VINA RESULT:      -4.6      2.927      4.187
REMARK  Name = 
REMARK  11 active torsions:
REMARK  status: ('A' for Active; 'I' for Inactive)
REMARK    1  A    between atoms: O_1  and  C_2
REMARK    2  A    between atoms: C_2  and  C_3
REMARK    3  A    between atoms: C_3  and  C_4
REMARK    4  A    between atoms: C_4  and  O_6
REMARK    5  A    between atoms: C_4  and  C_7
REMARK    6  A    between atoms: C_7  and  O_9
REMARK    7  A    between atoms: C_7  and  C_10
REMARK    8  A    between atoms: C_10  and  O_11
REMARK    9  A    between atoms: O_11  and  P_12
REMARK   10  A    between atoms: P_12  and  O_13
REMARK   11  A    between atoms: P_12  and  O_14
REMARK                            x       y       z     vdW  Elec       q    Type
REMARK                         _______ _______ _______ _____ _____    ______ ____
ROOT
ATOM      1  C   UNL     1      10.166   2.481  23.880  0.00  0.00    +0.169 C 
ENDROOT
BRANCH   1   2
ATOM      2  O   UNL     1      10.707   3.050  22.682  0.00  0.00    -0.387 OA
ATOM      3  H   UNL     1      11.673   3.079  22.784  0.00  0.00    +0.210 HD
ENDBRANCH   1   2
BRANCH   1   4
ATOM      4  C   UNL     1       8.621   2.562  23.892  0.00  0.00    +0.147 C 
BRANCH   4   5
ATOM      5  O   UNL     1       8.033   1.283  24.137  0.00  0.00    -0.389 OA
ATOM      6  H   UNL     1       8.765   0.673  24.323  0.00  0.00    +0.210 HD
ENDBRANCH   4   5
BRANCH   4   7
ATOM      7  C   UNL     1       8.086   3.119  22.559  0.00  0.00    +0.062 C 
BRANCH   7   8
ATOM      8  C   UNL     1       7.613   2.037  21.611  0.00  0.00    +0.158 C 
BRANCH   8   9
ATOM      9  O   UNL     1       8.739   1.373  21.030  0.00  0.00    -0.395 OA
ATOM     10  H   UNL     1       9.537   1.798  21.390  0.00  0.00    +0.209 HD
ENDBRANCH   8   9
ENDBRANCH   7   8
ENDBRANCH   4   7
ENDBRANCH   1   4
BRANCH   1  11
ATOM     11  C   UNL     1      10.690   1.056  24.122  0.00  0.00    +0.206 C 
BRANCH  11  12
ATOM     12  O   UNL     1      10.490   0.177  23.011  0.00  0.00    -0.284 OA
BRANCH  12  13
ATOM     13  P   UNL     1      10.085  -1.479  23.302  0.00  0.00    +0.472 P 
ATOM     14  O   UNL     1       9.721  -2.961  23.564  0.00  0.00    -0.228 OA
BRANCH  13  15
ATOM     15  O   UNL     1       8.649  -1.232  22.565  0.00  0.00    -0.303 OA
ATOM     16  H   UNL     1       8.014  -1.805  23.038  0.00  0.00    +0.222 HD
ENDBRANCH  13  15
BRANCH  13  17
ATOM     17  O   UNL     1       9.691  -1.039  24.831  0.00  0.00    -0.303 OA
ATOM     18  H   UNL     1       9.933  -1.755  25.446  0.00  0.00    +0.222 HD
ENDBRANCH  13  17
ENDBRANCH  12  13
ENDBRANCH  11  12
ENDBRANCH   1  11
TORSDOF 11
ENDMDL
MODEL 4
REMARK VINA RESULT:      -4.5      1.800      2.221
REMARK  Name = 
REMARK  11 active torsions:
REMARK  status: ('A' for Active; 'I' for Inactive)
REMARK    1  A    between atoms: O_1  and  C_2
REMARK    2  A    between atoms: C_2  and  C_3
REMARK    3  A    between atoms: C_3  and  C_4
REMARK    4  A    between atoms: C_4  and  O_6
REMARK    5  A    between atoms: C_4  and  C_7
REMARK    6  A    between atoms: C_7  and  O_9
REMARK    7  A    between atoms: C_7  and  C_10
REMARK    8  A    between atoms: C_10  and  O_11
REMARK    9  A    between atoms: O_11  and  P_12
REMARK   10  A    between atoms: P_12  and  O_13
REMARK   11  A    between atoms: P_12  and  O_14
REMARK                            x       y       z     vdW  Elec       q    Type
REMARK                         _______ _______ _______ _____ _____    ______ ____
ROOT
ATOM      1  C   UNL     1       8.416  -2.062  22.301  0.00  0.00    +0.169 C 
ENDROOT
BRANCH   1   2
ATOM      2  O   UNL     1       7.571  -0.948  22.612  0.00  0.00    -0.387 OA
ATOM      3  H   UNL     1       6.660  -1.201  22.385  0.00  0.00    +0.210 HD
ENDBRANCH   1   2
BRANCH   1   4
ATOM      4  C   UNL     1       9.880  -1.790  22.722  0.00  0.00    +0.147 C 
BRANCH   4   5
ATOM      5  O   UNL     1      10.333  -2.744  23.683  0.00  0.00    -0.389 OA
ATOM      6  H   UNL     1      11.148  -3.133  23.323  0.00  0.00    +0.210 HD
ENDBRANCH   4   5
BRANCH   4   7
ATOM      7  C   UNL     1      10.033  -0.372  23.304  0.00  0.00    +0.062 C 
BRANCH   7   8
ATOM      8  C   UNL     1      10.117  -0.357  24.816  0.00  0.00    +0.158 C 
BRANCH   8   9
ATOM      9  O   UNL     1       8.893  -0.840  25.376  0.00  0.00    -0.395 OA
ATOM     10  H   UNL     1       8.526  -1.484  24.745  0.00  0.00    +0.209 HD
ENDBRANCH   8   9
ENDBRANCH   7   8
ENDBRANCH   4   7
ENDBRANCH   1   4
BRANCH   1  11
ATOM     11  C   UNL     1       7.864  -3.375  22.878  0.00  0.00    +0.206 C 
BRANCH  11  12
ATOM     12  O   UNL     1       7.454  -3.270  24.245  0.00  0.00    -0.284 OA
BRANCH  12  13
ATOM     13  P   UNL     1       7.751  -4.592  25.322  0.00  0.00    +0.472 P 
ATOM     14  O   UNL     1       8.017  -5.774  26.286  0.00  0.00    -0.228 OA
BRANCH  13  15
ATOM     15  O   UNL     1       8.802  -3.652  26.146  0.00  0.00    -0.303 OA
ATOM     16  H   UNL     1       8.401  -2.760  26.151  0.00  0.00    +0.222 HD
ENDBRANCH  13  15
BRANCH  13  17
ATOM     17  O   UNL     1       8.758  -5.201  24.183  0.00  0.00    -0.303 OA
ATOM     18  H   UNL     1       8.351  -5.102  23.304  0.00  0.00    +0.222 HD
ENDBRANCH  13  17
ENDBRANCH  12  13
ENDBRANCH  11  12
ENDBRANCH   1  11
TORSDOF 11
ENDMDL
MODEL 5
REMARK VINA RESULT:      -4.5      2.786      3.489
REMARK  Name = 
REMARK  11 active torsions:
REMARK  status: ('A' for Active; 'I' for Inactive)
REMARK    1  A    between atoms: O_1  and  C_2
REMARK    2  A    between atoms: C_2  and  C_3
REMARK    3  A    between atoms: C_3  and  C_4
REMARK    4  A    between atoms: C_4  and  O_6
REMARK    5  A    between atoms: C_4  and  C_7
REMARK    6  A    between atoms: C_7  and  O_9
REMARK    7  A    between atoms: C_7  and  C_10
REMARK    8  A    between atoms: C_10  and  O_11
REMARK    9  A    between atoms: O_11  and  P_12
REMARK   10  A    between atoms: P_12  and  O_13
REMARK   11  A    between atoms: P_12  and  O_14
REMARK                            x       y       z     vdW  Elec       q    Type
REMARK                         _______ _______ _______ _____ _____    ______ ____
ROOT
ATOM      1  C   UNL     1       9.805  -1.397  22.783  0.00  0.00    +0.169 C 
ENDROOT
BRANCH   1   2
ATOM      2  O   UNL     1       9.948  -1.079  21.394  0.00  0.00    -0.387 OA
ATOM      3  H   UNL     1      10.850  -1.330  21.130  0.00  0.00    +0.210 HD
ENDBRANCH   1   2
BRANCH   1   4
ATOM      4  C   UNL     1       9.354  -0.160  23.598  0.00  0.00    +0.147 C 
BRANCH   4   5
ATOM      5  O   UNL     1       8.144   0.394  23.078  0.00  0.00    -0.389 OA
ATOM      6  H   UNL     1       8.095   1.307  23.406  0.00  0.00    +0.210 HD
ENDBRANCH   4   5
BRANCH   4   7
ATOM      7  C   UNL     1      10.446   0.926  23.605  0.00  0.00    +0.062 C 
BRANCH   7   8
ATOM      8  C   UNL     1      10.022   2.200  22.905  0.00  0.00    +0.158 C 
BRANCH   8   9
ATOM      9  O   UNL     1      10.019   1.999  21.489  0.00  0.00    -0.395 OA
ATOM     10  H   UNL     1       9.871   1.048  21.337  0.00  0.00    +0.209 HD
ENDBRANCH   8   9
ENDBRANCH   7   8
ENDBRANCH   4   7
ENDBRANCH   1   4
BRANCH   1  11
ATOM     11  C   UNL     1       8.896  -2.617  22.999  0.00  0.00    +0.206 C 
BRANCH  11  12
ATOM     12  O   UNL     1       7.694  -2.578  22.224  0.00  0.00    -0.284 OA
BRANCH  12  13
ATOM     13  P   UNL     1       6.188  -2.979  22.975  0.00  0.00    +0.472 P 
ATOM     14  O   UNL     1       4.840  -3.338  23.648  0.00  0.00    -0.228 OA
BRANCH  13  15
ATOM     15  O   UNL     1       5.536  -3.198  21.494  0.00  0.00    -0.303 OA
ATOM     16  H   UNL     1       4.692  -2.705  21.509  0.00  0.00    +0.222 HD
ENDBRANCH  13  15
BRANCH  13  17
ATOM     17  O   UNL     1       5.931  -1.371  23.157  0.00  0.00    -0.303 OA
ATOM     18  H   UNL     1       5.183  -1.097  22.597  0.00  0.00    +0.222 HD
ENDBRANCH  13  17
ENDBRANCH  12  13
ENDBRANCH  11  12
ENDBRANCH   1  11
TORSDOF 11
ENDMDL
MODEL 6
REMARK VINA RESULT:      -4.5      3.523      5.265
REMARK  Name = 
REMARK  11 active torsions:
REMARK  status: ('A' for Active; 'I' for Inactive)
REMARK    1  A    between atoms: O_1  and  C_2
REMARK    2  A    between atoms: C_2  and  C_3
REMARK    3  A    between atoms: C_3  and  C_4
REMARK    4  A    between atoms: C_4  and  O_6
REMARK    5  A    between atoms: C_4  and  C_7
REMARK    6  A    between atoms: C_7  and  O_9
REMARK    7  A    between atoms: C_7  and  C_10
REMARK    8  A    between atoms: C_10  and  O_11
REMARK    9  A    between atoms: O_11  and  P_12
REMARK   10  A    between atoms: P_12  and  O_13
REMARK   11  A    between atoms: P_12  and  O_14
REMARK                            x       y       z     vdW  Elec       q    Type
REMARK                         _______ _______ _______ _____ _____    ______ ____
ROOT
ATOM      1  C   UNL     1       7.587  -5.128  25.817  0.00  0.00    +0.169 C 
ENDROOT
BRANCH   1   2
ATOM      2  O   UNL     1       8.187  -5.894  26.868  0.00  0.00    -0.387 OA
ATOM      3  H   UNL     1       8.137  -6.830  26.610  0.00  0.00    +0.210 HD
ENDBRANCH   1   2
BRANCH   1   4
ATOM      4  C   UNL     1       8.495  -5.088  24.564  0.00  0.00    +0.147 C 
BRANCH   4   5
ATOM      5  O   UNL     1       9.722  -5.785  24.785  0.00  0.00    -0.389 OA
ATOM      6  H   UNL     1       9.545  -6.444  25.476  0.00  0.00    +0.210 HD
ENDBRANCH   4   5
BRANCH   4   7
ATOM      7  C   UNL     1       8.803  -3.637  24.151  0.00  0.00    +0.062 C 
BRANCH   7   8
ATOM      8  C   UNL     1       8.024  -3.188  22.932  0.00  0.00    +0.158 C 
BRANCH   8   9
ATOM      9  O   UNL     1       7.428  -4.319  22.291  0.00  0.00    -0.395 OA
ATOM     10  H   UNL     1       7.045  -4.874  22.994  0.00  0.00    +0.209 HD
ENDBRANCH   8   9
ENDBRANCH   7   8
ENDBRANCH   4   7
ENDBRANCH   1   4
BRANCH   1  11
ATOM     11  C   UNL     1       6.161  -5.606  25.505  0.00  0.00    +0.206 C 
BRANCH  11  12
ATOM     12  O   UNL     1       5.469  -4.771  24.571  0.00  0.00    -0.284 OA
BRANCH  12  13
ATOM     13  P   UNL     1       4.248  -5.462  23.559  0.00  0.00    +0.472 P 
ATOM     14  O   UNL     1       3.154  -6.080  22.653  0.00  0.00    -0.228 OA
BRANCH  13  15
ATOM     15  O   UNL     1       5.357  -6.510  22.977  0.00  0.00    -0.303 OA
ATOM     16  H   UNL     1       6.200  -6.253  23.399  0.00  0.00    +0.222 HD
ENDBRANCH  13  15
BRANCH  13  17
ATOM     17  O   UNL     1       4.487  -4.207  22.534  0.00  0.00    -0.303 OA
ATOM     18  H   UNL     1       5.121  -3.582  22.928  0.00  0.00    +0.222 HD
ENDBRANCH  13  17
ENDBRANCH  12  13
ENDBRANCH  11  12
ENDBRANCH   1  11
TORSDOF 11
ENDMDL
MODEL 7
REMARK VINA RESULT:      -4.4      5.151      7.404
REMARK  Name = 
REMARK  11 active torsions:
REMARK  status: ('A' for Active; 'I' for Inactive)
REMARK    1  A    between atoms: O_1  and  C_2
REMARK    2  A    between atoms: C_2  and  C_3
REMARK    3  A    between atoms: C_3  and  C_4
REMARK    4  A    between atoms: C_4  and  O_6
REMARK    5  A    between atoms: C_4  and  C_7
REMARK    6  A    between atoms: C_7  and  O_9
REMARK    7  A    between atoms: C_7  and  C_10
REMARK    8  A    between atoms: C_10  and  O_11
REMARK    9  A    between atoms: O_11  and  P_12
REMARK   10  A    between atoms: P_12  and  O_13
REMARK   11  A    between atoms: P_12  and  O_14
REMARK                            x       y       z     vdW  Elec       q    Type
REMARK                         _______ _______ _______ _____ _____    ______ ____
ROOT
ATOM      1  C   UNL     1      10.513   2.083  23.669  0.00  0.00    +0.169 C 
ENDROOT
BRANCH   1   2
ATOM      2  O   UNL     1      10.024   1.513  24.889  0.00  0.00    -0.387 OA
ATOM      3  H   UNL     1      10.572   0.735  25.086  0.00  0.00    +0.210 HD
ENDBRANCH   1   2
BRANCH   1   4
ATOM      4  C   UNL     1       9.897   1.380  22.436  0.00  0.00    +0.147 C 
BRANCH   4   5
ATOM      5  O   UNL     1       9.432   2.327  21.472  0.00  0.00    -0.389 OA
ATOM      6  H   UNL     1       9.526   1.905  20.602  0.00  0.00    +0.210 HD
ENDBRANCH   4   5
BRANCH   4   7
ATOM      7  C   UNL     1       8.730   0.462  22.848  0.00  0.00    +0.062 C 
BRANCH   7   8
ATOM      8  C   UNL     1       7.377   0.996  22.425  0.00  0.00    +0.158 C 
BRANCH   8   9
ATOM      9  O   UNL     1       7.008   2.100  23.256  0.00  0.00    -0.395 OA
ATOM     10  H   UNL     1       6.035   2.135  23.267  0.00  0.00    +0.209 HD
ENDBRANCH   8   9
ENDBRANCH   7   8
ENDBRANCH   4   7
ENDBRANCH   1   4
BRANCH   1  11
ATOM     11  C   UNL     1      10.330   3.608  23.639  0.00  0.00    +0.206 C 
BRANCH  11  12
ATOM     12  O   UNL     1       9.023   4.035  24.035  0.00  0.00    -0.284 OA
BRANCH  12  13
ATOM     13  P   UNL     1       8.390   5.520  23.410  0.00  0.00    +0.472 P 
ATOM     14  O   UNL     1       7.826   6.848  22.851  0.00  0.00    -0.228 OA
BRANCH  13  15
ATOM     15  O   UNL     1       7.879   4.715  22.084  0.00  0.00    -0.303 OA
ATOM     16  H   UNL     1       7.141   4.154  22.392  0.00  0.00    +0.222 HD
ENDBRANCH  13  15
BRANCH  13  17
ATOM     17  O   UNL     1       9.916   5.889  22.940  0.00  0.00    -0.303 OA
ATOM     18  H   UNL     1      10.395   6.295  23.684  0.00  0.00    +0.222 HD
ENDBRANCH  13  17
ENDBRANCH  12  13
ENDBRANCH  11  12
ENDBRANCH   1  11
TORSDOF 11
ENDMDL
MODEL 8
REMARK VINA RESULT:      -4.4      3.739      5.881
REMARK  Name = 
REMARK  11 active torsions:
REMARK  status: ('A' for Active; 'I' for Inactive)
REMARK    1  A    between atoms: O_1  and  C_2
REMARK    2  A    between atoms: C_2  and  C_3
REMARK    3  A    between atoms: C_3  and  C_4
REMARK    4  A    between atoms: C_4  and  O_6
REMARK    5  A    between atoms: C_4  and  C_7
REMARK    6  A    between atoms: C_7  and  O_9
REMARK    7  A    between atoms: C_7  and  C_10
REMARK    8  A    between atoms: C_10  and  O_11
REMARK    9  A    between atoms: O_11  and  P_12
REMARK   10  A    between atoms: P_12  and  O_13
REMARK   11  A    between atoms: P_12  and  O_14
REMARK                            x       y       z     vdW  Elec       q    Type
REMARK                         _______ _______ _______ _____ _____    ______ ____
ROOT
ATOM      1  C   UNL     1      10.618   0.769  24.429  0.00  0.00    +0.169 C 
ENDROOT
BRANCH   1   2
ATOM      2  O   UNL     1      10.165   0.274  25.695  0.00  0.00    -0.387 OA
ATOM      3  H   UNL     1      10.437   0.916  26.372  0.00  0.00    +0.210 HD
ENDBRANCH   1   2
BRANCH   1   4
ATOM      4  C   UNL     1      10.518  -0.319  23.333  0.00  0.00    +0.147 C 
BRANCH   4   5
ATOM      5  O   UNL     1       9.776   0.144  22.204  0.00  0.00    -0.389 OA
ATOM      6  H   UNL     1       9.062  -0.499  22.060  0.00  0.00    +0.210 HD
ENDBRANCH   4   5
BRANCH   4   7
ATOM      7  C   UNL     1       9.860  -1.598  23.883  0.00  0.00    +0.062 C 
BRANCH   7   8
ATOM      8  C   UNL     1       8.410  -1.744  23.471  0.00  0.00    +0.158 C 
BRANCH   8   9
ATOM      9  O   UNL     1       7.604  -0.801  24.183  0.00  0.00    -0.395 OA
ATOM     10  H   UNL     1       6.679  -0.973  23.934  0.00  0.00    +0.209 HD
ENDBRANCH   8   9
ENDBRANCH   7   8
ENDBRANCH   4   7
ENDBRANCH   1   4
BRANCH   1  11
ATOM     11  C   UNL     1       9.907   2.075  24.040  0.00  0.00    +0.206 C 
BRANCH  11  12
ATOM     12  O   UNL     1       8.480   1.993  24.114  0.00  0.00    -0.284 OA
BRANCH  12  13
ATOM     13  P   UNL     1       7.521   2.812  22.930  0.00  0.00    +0.472 P 
ATOM     14  O   UNL     1       6.663   3.546  21.870  0.00  0.00    -0.228 OA
BRANCH  13  15
ATOM     15  O   UNL     1       7.010   1.363  22.377  0.00  0.00    -0.303 OA
ATOM     16  H   UNL     1       7.363   1.295  21.469  0.00  0.00    +0.222 HD
ENDBRANCH  13  15
BRANCH  13  17
ATOM     17  O   UNL     1       8.888   2.981  22.043  0.00  0.00    -0.303 OA
ATOM     18  H   UNL     1       9.272   2.104  21.869  0.00  0.00    +0.222 HD
ENDBRANCH  13  17
ENDBRANCH  12  13
ENDBRANCH  11  12
ENDBRANCH   1  11
TORSDOF 11
ENDMDL
MODEL 9
REMARK VINA RESULT:      -4.4      2.322      3.887
REMARK  Name = 
REMARK  11 active torsions:
REMARK  status: ('A' for Active; 'I' for Inactive)
REMARK    1  A    between atoms: O_1  and  C_2
REMARK    2  A    between atoms: C_2  and  C_3
REMARK    3  A    between atoms: C_3  and  C_4
REMARK    4  A    between atoms: C_4  and  O_6
REMARK    5  A    between atoms: C_4  and  C_7
REMARK    6  A    between atoms: C_7  and  O_9
REMARK    7  A    between atoms: C_7  and  C_10
REMARK    8  A    between atoms: C_10  and  O_11
REMARK    9  A    between atoms: O_11  and  P_12
REMARK   10  A    between atoms: P_12  and  O_13
REMARK   11  A    between atoms: P_12  and  O_14
REMARK                            x       y       z     vdW  Elec       q    Type
REMARK                         _______ _______ _______ _____ _____    ______ ____
ROOT
ATOM      1  C   UNL     1      10.023   1.759  22.017  0.00  0.00    +0.169 C 
ENDROOT
BRANCH   1   2
ATOM      2  O   UNL     1       8.779   2.207  21.466  0.00  0.00    -0.387 OA
ATOM      3  H   UNL     1       8.671   1.774  20.603  0.00  0.00    +0.210 HD
ENDBRANCH   1   2
BRANCH   1   4
ATOM      4  C   UNL     1      10.258   2.351  23.428  0.00  0.00    +0.147 C 
BRANCH   4   5
ATOM      5  O   UNL     1      10.701   1.352  24.347  0.00  0.00    -0.389 OA
ATOM      6  H   UNL     1       9.976   0.710  24.428  0.00  0.00    +0.210 HD
ENDBRANCH   4   5
BRANCH   4   7
ATOM      7  C   UNL     1       8.975   3.008  23.972  0.00  0.00    +0.062 C 
BRANCH   7   8
ATOM      8  C   UNL     1       8.348   2.233  25.111  0.00  0.00    +0.158 C 
BRANCH   8   9
ATOM      9  O   UNL     1       7.685   1.072  24.603  0.00  0.00    -0.395 OA
ATOM     10  H   UNL     1       6.804   1.356  24.302  0.00  0.00    +0.209 HD
ENDBRANCH   8   9
ENDBRANCH   7   8
ENDBRANCH   4   7
ENDBRANCH   1   4
BRANCH   1  11
ATOM     11  C   UNL     1      10.140   0.227  21.988  0.00  0.00    +0.206 C 
BRANCH  11  12
ATOM     12  O   UNL     1       9.169  -0.437  22.803  0.00  0.00    -0.284 OA
BRANCH  12  13
ATOM     13  P   UNL     1       9.555  -1.973  23.500  0.00  0.00    +0.472 P 
ATOM     14  O   UNL     1       9.900  -3.347  24.125  0.00  0.00    -0.228 OA
BRANCH  13  15
ATOM     15  O   UNL     1       7.988  -2.407  23.350  0.00  0.00    -0.303 OA
ATOM     16  H   UNL     1       7.771  -2.879  24.178  0.00  0.00    +0.222 HD
ENDBRANCH  13  15
BRANCH  13  17
ATOM     17  O   UNL     1       9.502  -1.242  24.965  0.00  0.00    -0.303 OA
ATOM     18  H   UNL     1       9.656  -0.286  24.856  0.00  0.00    +0.222 HD
ENDBRANCH  13  17
ENDBRANCH  12  13
ENDBRANCH  11  12
ENDBRANCH   1  11
TORSDOF 11
ENDMDL
