MODEL 1
REMARK VINA RESULT:      -6.3      0.000      0.000
REMARK  Name = 
REMARK  7 active torsions:
REMARK  status: ('A' for Active; 'I' for Inactive)
REMARK    1  A    between atoms: O_1  and  C_2
REMARK    2  A    between atoms: C_2  and  C_20
REMARK    3  A    between atoms: N_5  and  C_6
REMARK    4  A    between atoms: C_6  and  C_7
REMARK    5  A    between atoms: C_7  and  C_8
REMARK    6  A    between atoms: C_8  and  C_9
REMARK    7  A    between atoms: C_9  and  C_11
REMARK                            x       y       z     vdW  Elec       q    Type
REMARK                         _______ _______ _______ _____ _____    ______ ____
ROOT
ATOM      1  C   UNL     1       6.152   0.875  24.994  0.00  0.00    +0.093 C 
ATOM      2  C   UNL     1       6.428  -0.306  24.039  0.00  0.00    +0.055 C 
ATOM      3  C   UNL     1       6.107  -1.660  24.676  0.00  0.00    +0.087 C 
ATOM      4  N   UNL     1       6.745  -1.864  25.985  0.00  0.00    -0.302 NA
ATOM      5  C   UNL     1       6.366  -0.786  26.909  0.00  0.00    +0.087 C 
ATOM      6  C   UNL     1       6.725   0.611  26.402  0.00  0.00    +0.055 C 
ENDROOT
BRANCH   1   7
ATOM      7  C   UNL     1       6.710   2.175  24.407  0.00  0.00    -0.016 A 
ATOM      8  C   UNL     1       6.563   2.479  23.039  0.00  0.00    +0.008 A 
ATOM      9  C   UNL     1       7.034   3.689  22.515  0.00  0.00    +0.020 A 
ATOM     10  C   UNL     1       7.661   4.610  23.348  0.00  0.00    +0.041 A 
ATOM     11 CL   UNL     1       8.216   6.107  22.707  0.00  0.00    -0.084 Cl
ATOM     12  C   UNL     1       7.835   4.327  24.696  0.00  0.00    +0.020 A 
ATOM     13  C   UNL     1       7.363   3.120  25.221  0.00  0.00    +0.008 A 
ENDBRANCH   1   7
BRANCH   1  14
ATOM     14  O   UNL     1       4.726   1.012  25.120  0.00  0.00    -0.384 OA
ATOM     15  H   UNL     1       4.375   0.250  25.606  0.00  0.00    +0.211 HD
ENDBRANCH   1  14
BRANCH   4  16
ATOM     16  C   UNL     1       8.201  -2.057  25.854  0.00  0.00    +0.085 C 
BRANCH  16  17
ATOM     17  C   UNL     1       8.604  -3.115  24.823  0.00  0.00    +0.023 C 
BRANCH  17  18
ATOM     18  C   UNL     1       9.814  -2.692  23.990  0.00  0.00    +0.081 C 
BRANCH  18  19
ATOM     19  C   UNL     1       9.410  -1.773  22.855  0.00  0.00    +0.163 C 
ATOM     20  O   UNL     1       8.815  -2.167  21.856  0.00  0.00    -0.292 OA
BRANCH  19  21
ATOM     21  C   UNL     1       9.804  -0.339  22.940  0.00  0.00    +0.018 A 
ATOM     22  C   UNL     1       9.713   0.526  21.840  0.00  0.00    +0.014 A 
ATOM     23  C   UNL     1      10.086   1.867  21.978  0.00  0.00    +0.039 A 
ATOM     24  C   UNL     1      10.538   2.332  23.206  0.00  0.00    +0.123 A 
ATOM     25  F   UNL     1      10.884   3.619  23.336  0.00  0.00    -0.205 F 
ATOM     26  C   UNL     1      10.640   1.483  24.303  0.00  0.00    +0.039 A 
ATOM     27  C   UNL     1      10.280   0.142  24.168  0.00  0.00    +0.014 A 
ENDBRANCH  19  21
ENDBRANCH  18  19
ENDBRANCH  17  18
ENDBRANCH  16  17
ENDBRANCH   4  16
TORSDOF 7
ENDMDL
MODEL 2
REMARK VINA RESULT:      -6.2      3.871      6.098
REMARK  Name = 
REMARK  7 active torsions:
REMARK  status: ('A' for Active; 'I' for Inactive)
REMARK    1  A    between atoms: O_1  and  C_2
REMARK    2  A    between atoms: C_2  and  C_20
REMARK    3  A    between atoms: N_5  and  C_6
REMARK    4  A    between atoms: C_6  and  C_7
REMARK    5  A    between atoms: C_7  and  C_8
REMARK    6  A    between atoms: C_8  and  C_9
REMARK    7  A    between atoms: C_9  and  C_11
REMARK                            x       y       z     vdW  Elec       q    Type
REMARK                         _______ _______ _______ _____ _____    ______ ____
ROOT
ATOM      1  C   UNL     1       8.301  -0.495  26.295  0.00  0.00    +0.093 C 
ATOM      2  C   UNL     1       9.530  -0.577  25.363  0.00  0.00    +0.055 C 
ATOM      3  C   UNL     1      10.059   0.804  24.970  0.00  0.00    +0.087 C 
ATOM      4  N   UNL     1       9.026   1.699  24.425  0.00  0.00    -0.302 NA
ATOM      5  C   UNL     1       7.925   1.852  25.386  0.00  0.00    +0.087 C 
ATOM      6  C   UNL     1       7.268   0.529  25.781  0.00  0.00    +0.055 C 
ENDROOT
BRANCH   1   7
ATOM      7  C   UNL     1       7.669  -1.880  26.463  0.00  0.00    -0.016 A 
ATOM      8  C   UNL     1       6.297  -2.025  26.751  0.00  0.00    +0.008 A 
ATOM      9  C   UNL     1       5.713  -3.293  26.858  0.00  0.00    +0.020 A 
ATOM     10  C   UNL     1       6.491  -4.433  26.685  0.00  0.00    +0.041 A 
ATOM     11 CL   UNL     1       5.766  -5.990  26.792  0.00  0.00    -0.084 Cl
ATOM     12  C   UNL     1       7.849  -4.319  26.419  0.00  0.00    +0.020 A 
ATOM     13  C   UNL     1       8.432  -3.052  26.309  0.00  0.00    +0.008 A 
ENDBRANCH   1   7
BRANCH   1  14
ATOM     14  O   UNL     1       8.758  -0.048  27.583  0.00  0.00    -0.384 OA
ATOM     15  H   UNL     1       8.504  -0.700  28.255  0.00  0.00    +0.211 HD
ENDBRANCH   1  14
BRANCH   4  16
ATOM     16  C   UNL     1       8.595   1.272  23.081  0.00  0.00    +0.085 C 
BRANCH  16  17
ATOM     17  C   UNL     1       9.713   0.678  22.221  0.00  0.00    +0.023 C 
BRANCH  17  18
ATOM     18  C   UNL     1       9.252  -0.536  21.415  0.00  0.00    +0.081 C 
BRANCH  18  19
ATOM     19  C   UNL     1       9.360  -1.812  22.226  0.00  0.00    +0.163 C 
ATOM     20  O   UNL     1      10.435  -2.290  22.578  0.00  0.00    -0.292 OA
BRANCH  19  21
ATOM     21  C   UNL     1       8.104  -2.538  22.560  0.00  0.00    +0.018 A 
ATOM     22  C   UNL     1       8.045  -3.938  22.618  0.00  0.00    +0.014 A 
ATOM     23  C   UNL     1       6.841  -4.569  22.949  0.00  0.00    +0.039 A 
ATOM     24  C   UNL     1       5.715  -3.803  23.222  0.00  0.00    +0.123 A 
ATOM     25  F   UNL     1       4.568  -4.412  23.547  0.00  0.00    -0.205 F 
ATOM     26  C   UNL     1       5.759  -2.414  23.161  0.00  0.00    +0.039 A 
ATOM     27  C   UNL     1       6.954  -1.780  22.821  0.00  0.00    +0.014 A 
ENDBRANCH  19  21
ENDBRANCH  18  19
ENDBRANCH  17  18
ENDBRANCH  16  17
ENDBRANCH   4  16
TORSDOF 7
ENDMDL
MODEL 3
REMARK VINA RESULT:      -6.0      4.050      6.173
REMARK  Name = 
REMARK  7 active torsions:
REMARK  status: ('A' for Active; 'I' for Inactive)
REMARK    1  A    between atoms: O_1  and  C_2
REMARK    2  A    between atoms: C_2  and  C_20
REMARK    3  A    between atoms: N_5  and  C_6
REMARK    4  A    between atoms: C_6  and  C_7
REMARK    5  A    between atoms: C_7  and  C_8
REMARK    6  A    between atoms: C_8  and  C_9
REMARK    7  A    between atoms: C_9  and  C_11
REMARK                            x       y       z     vdW  Elec       q    Type
REMARK                         _______ _______ _______ _____ _____    ______ ____
ROOT
ATOM      1  C   UNL     1       6.027  -3.556  22.407  0.00  0.00    +0.093 C 
ATOM      2  C   UNL     1       6.619  -4.958  22.144  0.00  0.00    +0.055 C 
ATOM      3  C   UNL     1       5.537  -6.027  21.977  0.00  0.00    +0.087 C 
ATOM      4  N   UNL     1       4.555  -6.051  23.072  0.00  0.00    -0.302 NA
ATOM      5  C   UNL     1       3.923  -4.732  23.218  0.00  0.00    +0.087 C 
ATOM      6  C   UNL     1       4.917  -3.600  23.477  0.00  0.00    +0.055 C 
ENDROOT
BRANCH   1   7
ATOM      7  C   UNL     1       7.137  -2.577  22.803  0.00  0.00    -0.016 A 
ATOM      8  C   UNL     1       8.490  -2.969  22.801  0.00  0.00    +0.008 A 
ATOM      9  C   UNL     1       9.505  -2.058  23.119  0.00  0.00    +0.020 A 
ATOM     10  C   UNL     1       9.183  -0.746  23.450  0.00  0.00    +0.041 A 
ATOM     11 CL   UNL     1      10.432   0.378  23.817  0.00  0.00    -0.084 Cl
ATOM     12  C   UNL     1       7.855  -0.339  23.479  0.00  0.00    +0.020 A 
ATOM     13  C   UNL     1       6.841  -1.247  23.158  0.00  0.00    +0.008 A 
ENDBRANCH   1   7
BRANCH   1  14
ATOM     14  O   UNL     1       5.436  -3.094  21.180  0.00  0.00    -0.384 OA
ATOM     15  H   UNL     1       4.935  -2.283  21.354  0.00  0.00    +0.211 HD
ENDBRANCH   1  14
BRANCH   4  16
ATOM     16  C   UNL     1       5.146  -6.574  24.317  0.00  0.00    +0.085 C 
BRANCH  16  17
ATOM     17  C   UNL     1       4.120  -7.015  25.364  0.00  0.00    +0.023 C 
BRANCH  17  18
ATOM     18  C   UNL     1       4.148  -6.142  26.618  0.00  0.00    +0.081 C 
BRANCH  18  19
ATOM     19  C   UNL     1       5.525  -6.125  27.250  0.00  0.00    +0.163 C 
ATOM     20  O   UNL     1       5.929  -7.015  27.994  0.00  0.00    -0.292 OA
BRANCH  19  21
ATOM     21  C   UNL     1       6.400  -4.948  26.994  0.00  0.00    +0.018 A 
ATOM     22  C   UNL     1       5.898  -3.640  26.955  0.00  0.00    +0.014 A 
ATOM     23  C   UNL     1       6.767  -2.568  26.721  0.00  0.00    +0.039 A 
ATOM     24  C   UNL     1       8.122  -2.810  26.536  0.00  0.00    +0.123 A 
ATOM     25  F   UNL     1       8.951  -1.780  26.322  0.00  0.00    -0.205 F 
ATOM     26  C   UNL     1       8.631  -4.104  26.564  0.00  0.00    +0.039 A 
ATOM     27  C   UNL     1       7.768  -5.176  26.786  0.00  0.00    +0.014 A 
ENDBRANCH  19  21
ENDBRANCH  18  19
ENDBRANCH  17  18
ENDBRANCH  16  17
ENDBRANCH   4  16
TORSDOF 7
ENDMDL
MODEL 4
REMARK VINA RESULT:      -6.0      4.855      7.012
REMARK  Name = 
REMARK  7 active torsions:
REMARK  status: ('A' for Active; 'I' for Inactive)
REMARK    1  A    between atoms: O_1  and  C_2
REMARK    2  A    between atoms: C_2  and  C_20
REMARK    3  A    between atoms: N_5  and  C_6
REMARK    4  A    between atoms: C_6  and  C_7
REMARK    5  A    between atoms: C_7  and  C_8
REMARK    6  A    between atoms: C_8  and  C_9
REMARK    7  A    between atoms: C_9  and  C_11
REMARK                            x       y       z     vdW  Elec       q    Type
REMARK                         _______ _______ _______ _____ _____    ______ ____
ROOT
ATOM      1  C   UNL     1       6.732  -5.116  26.994  0.00  0.00    +0.093 C 
ATOM      2  C   UNL     1       5.840  -4.320  27.973  0.00  0.00    +0.055 C 
ATOM      3  C   UNL     1       4.757  -5.190  28.616  0.00  0.00    +0.087 C 
ATOM      4  N   UNL     1       3.952  -5.945  27.643  0.00  0.00    -0.302 NA
ATOM      5  C   UNL     1       4.820  -6.784  26.805  0.00  0.00    +0.087 C 
ATOM      6  C   UNL     1       5.889  -5.995  26.047  0.00  0.00    +0.055 C 
ENDROOT
BRANCH   1   7
ATOM      7  C   UNL     1       7.634  -4.163  26.204  0.00  0.00    -0.016 A 
ATOM      8  C   UNL     1       8.651  -4.653  25.360  0.00  0.00    +0.008 A 
ATOM      9  C   UNL     1       9.443  -3.781  24.604  0.00  0.00    +0.020 A 
ATOM     10  C   UNL     1       9.235  -2.408  24.684  0.00  0.00    +0.041 A 
ATOM     11 CL   UNL     1      10.193  -1.340  23.735  0.00  0.00    -0.084 Cl
ATOM     12  C   UNL     1       8.253  -1.897  25.522  0.00  0.00    +0.020 A 
ATOM     13  C   UNL     1       7.459  -2.768  26.276  0.00  0.00    +0.008 A 
ENDBRANCH   1   7
BRANCH   1  14
ATOM     14  O   UNL     1       7.568  -5.988  27.774  0.00  0.00    -0.384 OA
ATOM     15  H   UNL     1       8.498  -5.798  27.575  0.00  0.00    +0.211 HD
ENDBRANCH   1  14
BRANCH   4  16
ATOM     16  C   UNL     1       3.055  -5.059  26.880  0.00  0.00    +0.085 C 
BRANCH  16  17
ATOM     17  C   UNL     1       2.257  -5.766  25.780  0.00  0.00    +0.023 C 
BRANCH  17  18
ATOM     18  C   UNL     1       2.252  -4.989  24.465  0.00  0.00    +0.081 C 
BRANCH  18  19
ATOM     19  C   UNL     1       3.070  -5.694  23.402  0.00  0.00    +0.163 C 
ATOM     20  O   UNL     1       2.737  -6.767  22.906  0.00  0.00    -0.292 OA
BRANCH  19  21
ATOM     21  C   UNL     1       4.360  -5.077  22.985  0.00  0.00    +0.018 A 
ATOM     22  C   UNL     1       5.318  -5.781  22.242  0.00  0.00    +0.014 A 
ATOM     23  C   UNL     1       6.508  -5.150  21.867  0.00  0.00    +0.039 A 
ATOM     24  C   UNL     1       6.729  -3.827  22.230  0.00  0.00    +0.123 A 
ATOM     25  F   UNL     1       7.866  -3.224  21.860  0.00  0.00    -0.205 F 
ATOM     26  C   UNL     1       5.790  -3.120  22.973  0.00  0.00    +0.039 A 
ATOM     27  C   UNL     1       4.606  -3.749  23.359  0.00  0.00    +0.014 A 
ENDBRANCH  19  21
ENDBRANCH  18  19
ENDBRANCH  17  18
ENDBRANCH  16  17
ENDBRANCH   4  16
TORSDOF 7
ENDMDL
MODEL 5
REMARK VINA RESULT:      -5.9      3.247      5.315
REMARK  Name = 
REMARK  7 active torsions:
REMARK  status: ('A' for Active; 'I' for Inactive)
REMARK    1  A    between atoms: O_1  and  C_2
REMARK    2  A    between atoms: C_2  and  C_20
REMARK    3  A    between atoms: N_5  and  C_6
REMARK    4  A    between atoms: C_6  and  C_7
REMARK    5  A    between atoms: C_7  and  C_8
REMARK    6  A    between atoms: C_8  and  C_9
REMARK    7  A    between atoms: C_9  and  C_11
REMARK                            x       y       z     vdW  Elec       q    Type
REMARK                         _______ _______ _______ _____ _____    ______ ____
ROOT
ATOM      1  C   UNL     1      10.014   0.835  24.090  0.00  0.00    +0.093 C 
ATOM      2  C   UNL     1       8.813   0.149  24.778  0.00  0.00    +0.055 C 
ATOM      3  C   UNL     1       8.820  -1.370  24.586  0.00  0.00    +0.087 C 
ATOM      4  N   UNL     1       8.949  -1.787  23.181  0.00  0.00    -0.302 NA
ATOM      5  C   UNL     1      10.165  -1.213  22.589  0.00  0.00    +0.087 C 
ATOM      6  C   UNL     1      10.218   0.314  22.653  0.00  0.00    +0.055 C 
ENDROOT
BRANCH   1   7
ATOM      7  C   UNL     1       9.836   2.357  24.104  0.00  0.00    -0.016 A 
ATOM      8  C   UNL     1       8.735   2.956  24.748  0.00  0.00    +0.008 A 
ATOM      9  C   UNL     1       8.599   4.348  24.799  0.00  0.00    +0.020 A 
ATOM     10  C   UNL     1       9.558   5.162  24.204  0.00  0.00    +0.041 A 
ATOM     11 CL   UNL     1       9.403   6.873  24.289  0.00  0.00    -0.084 Cl
ATOM     12  C   UNL     1      10.643   4.597  23.546  0.00  0.00    +0.020 A 
ATOM     13  C   UNL     1      10.780   3.206  23.497  0.00  0.00    +0.008 A 
ENDBRANCH   1   7
BRANCH   1  14
ATOM     14  O   UNL     1      11.194   0.512  24.845  0.00  0.00    -0.384 OA
ATOM     15  H   UNL     1      11.044  -0.314  25.332  0.00  0.00    +0.211 HD
ENDBRANCH   1  14
BRANCH   4  16
ATOM     16  C   UNL     1       7.720  -1.504  22.417  0.00  0.00    +0.085 C 
BRANCH  16  17
ATOM     17  C   UNL     1       6.465  -2.188  22.969  0.00  0.00    +0.023 C 
BRANCH  17  18
ATOM     18  C   UNL     1       6.012  -3.367  22.109  0.00  0.00    +0.081 C 
BRANCH  18  19
ATOM     19  C   UNL     1       6.794  -4.623  22.437  0.00  0.00    +0.163 C 
ATOM     20  O   UNL     1       7.205  -5.397  21.577  0.00  0.00    -0.292 OA
BRANCH  19  21
ATOM     21  C   UNL     1       7.023  -4.952  23.871  0.00  0.00    +0.018 A 
ATOM     22  C   UNL     1       8.308  -4.998  24.430  0.00  0.00    +0.014 A 
ATOM     23  C   UNL     1       8.465  -5.302  25.786  0.00  0.00    +0.039 A 
ATOM     24  C   UNL     1       7.346  -5.550  26.570  0.00  0.00    +0.123 A 
ATOM     25  F   UNL     1       7.501  -5.831  27.870  0.00  0.00    -0.205 F 
ATOM     26  C   UNL     1       6.066  -5.516  26.026  0.00  0.00    +0.039 A 
ATOM     27  C   UNL     1       5.904  -5.224  24.671  0.00  0.00    +0.014 A 
ENDBRANCH  19  21
ENDBRANCH  18  19
ENDBRANCH  17  18
ENDBRANCH  16  17
ENDBRANCH   4  16
TORSDOF 7
ENDMDL
MODEL 6
REMARK VINA RESULT:      -5.9      1.654      4.308
REMARK  Name = 
REMARK  7 active torsions:
REMARK  status: ('A' for Active; 'I' for Inactive)
REMARK    1  A    between atoms: O_1  and  C_2
REMARK    2  A    between atoms: C_2  and  C_20
REMARK    3  A    between atoms: N_5  and  C_6
REMARK    4  A    between atoms: C_6  and  C_7
REMARK    5  A    between atoms: C_7  and  C_8
REMARK    6  A    between atoms: C_8  and  C_9
REMARK    7  A    between atoms: C_9  and  C_11
REMARK                            x       y       z     vdW  Elec       q    Type
REMARK                         _______ _______ _______ _____ _____    ______ ____
ROOT
ATOM      1  C   UNL     1       9.318  -1.795  23.308  0.00  0.00    +0.093 C 
ATOM      2  C   UNL     1       8.808  -2.166  24.718  0.00  0.00    +0.055 C 
ATOM      3  C   UNL     1       8.079  -3.511  24.741  0.00  0.00    +0.087 C 
ATOM      4  N   UNL     1       7.012  -3.623  23.734  0.00  0.00    -0.302 NA
ATOM      5  C   UNL     1       7.554  -3.382  22.389  0.00  0.00    +0.087 C 
ATOM      6  C   UNL     1       8.232  -2.020  22.235  0.00  0.00    +0.055 C 
ENDROOT
BRANCH   1   7
ATOM      7  C   UNL     1       9.821  -0.349  23.288  0.00  0.00    -0.016 A 
ATOM      8  C   UNL     1       9.795   0.416  22.105  0.00  0.00    +0.008 A 
ATOM      9  C   UNL     1      10.213   1.753  22.101  0.00  0.00    +0.020 A 
ATOM     10  C   UNL     1      10.666   2.342  23.276  0.00  0.00    +0.041 A 
ATOM     11 CL   UNL     1      11.155   3.992  23.275  0.00  0.00    -0.084 Cl
ATOM     12  C   UNL     1      10.720   1.606  24.452  0.00  0.00    +0.020 A 
ATOM     13  C   UNL     1      10.301   0.271  24.457  0.00  0.00    +0.008 A 
ENDBRANCH   1   7
BRANCH   1  14
ATOM     14  O   UNL     1      10.424  -2.662  23.001  0.00  0.00    -0.384 OA
ATOM     15  H   UNL     1      10.083  -3.513  22.686  0.00  0.00    +0.211 HD
ENDBRANCH   1  14
BRANCH   4  16
ATOM     16  C   UNL     1       5.856  -2.775  24.075  0.00  0.00    +0.085 C 
BRANCH  16  17
ATOM     17  C   UNL     1       5.663  -2.548  25.577  0.00  0.00    +0.023 C 
BRANCH  17  18
ATOM     18  C   UNL     1       5.195  -1.130  25.901  0.00  0.00    +0.081 C 
BRANCH  18  19
ATOM     19  C   UNL     1       6.355  -0.243  26.306  0.00  0.00    +0.163 C 
ATOM     20  O   UNL     1       7.017  -0.433  27.324  0.00  0.00    -0.292 OA
BRANCH  19  21
ATOM     21  C   UNL     1       6.667   0.938  25.454  0.00  0.00    +0.018 A 
ATOM     22  C   UNL     1       7.247   2.102  25.976  0.00  0.00    +0.014 A 
ATOM     23  C   UNL     1       7.529   3.178  25.128  0.00  0.00    +0.039 A 
ATOM     24  C   UNL     1       7.237   3.082  23.774  0.00  0.00    +0.123 A 
ATOM     25  F   UNL     1       7.517   4.111  22.964  0.00  0.00    -0.205 F 
ATOM     26  C   UNL     1       6.654   1.935  23.245  0.00  0.00    +0.039 A 
ATOM     27  C   UNL     1       6.361   0.863  24.088  0.00  0.00    +0.014 A 
ENDBRANCH  19  21
ENDBRANCH  18  19
ENDBRANCH  17  18
ENDBRANCH  16  17
ENDBRANCH   4  16
TORSDOF 7
ENDMDL
MODEL 7
REMARK VINA RESULT:      -5.9      3.386      5.288
REMARK  Name = 
REMARK  7 active torsions:
REMARK  status: ('A' for Active; 'I' for Inactive)
REMARK    1  A    between atoms: O_1  and  C_2
REMARK    2  A    between atoms: C_2  and  C_20
REMARK    3  A    between atoms: N_5  and  C_6
REMARK    4  A    between atoms: C_6  and  C_7
REMARK    5  A    between atoms: C_7  and  C_8
REMARK    6  A    between atoms: C_8  and  C_9
REMARK    7  A    between atoms: C_9  and  C_11
REMARK                            x       y       z     vdW  Elec       q    Type
REMARK                         _______ _______ _______ _____ _____    ______ ____
ROOT
ATOM      1  C   UNL     1       8.759   1.201  22.277  0.00  0.00    +0.093 C 
ATOM      2  C   UNL     1      10.166   0.646  22.594  0.00  0.00    +0.055 C 
ATOM      3  C   UNL     1      10.254  -0.869  22.396  0.00  0.00    +0.087 C 
ATOM      4  N   UNL     1       9.204  -1.619  23.104  0.00  0.00    -0.302 NA
ATOM      5  C   UNL     1       7.875  -1.148  22.691  0.00  0.00    +0.087 C 
ATOM      6  C   UNL     1       7.653   0.346  22.928  0.00  0.00    +0.055 C 
ENDROOT
BRANCH   1   7
ATOM      7  C   UNL     1       8.655   2.665  22.716  0.00  0.00    -0.016 A 
ATOM      8  C   UNL     1       9.636   3.250  23.542  0.00  0.00    +0.008 A 
ATOM      9  C   UNL     1       9.561   4.601  23.903  0.00  0.00    +0.020 A 
ATOM     10  C   UNL     1       8.505   5.384  23.450  0.00  0.00    +0.041 A 
ATOM     11 CL   UNL     1       8.429   7.049  23.875  0.00  0.00    -0.084 Cl
ATOM     12  C   UNL     1       7.515   4.828  22.651  0.00  0.00    +0.020 A 
ATOM     13  C   UNL     1       7.590   3.479  22.287  0.00  0.00    +0.008 A 
ENDBRANCH   1   7
BRANCH   1  14
ATOM     14  O   UNL     1       8.577   1.143  20.852  0.00  0.00    -0.384 OA
ATOM     15  H   UNL     1       7.651   0.935  20.658  0.00  0.00    +0.211 HD
ENDBRANCH   1  14
BRANCH   4  16
ATOM     16  C   UNL     1       9.419  -1.606  24.562  0.00  0.00    +0.085 C 
BRANCH  16  17
ATOM     17  C   UNL     1       8.257  -2.182  25.375  0.00  0.00    +0.023 C 
BRANCH  17  18
ATOM     18  C   UNL     1       8.600  -3.522  26.024  0.00  0.00    +0.081 C 
BRANCH  18  19
ATOM     19  C   UNL     1       8.683  -4.630  24.993  0.00  0.00    +0.163 C 
ATOM     20  O   UNL     1       9.736  -5.185  24.692  0.00  0.00    -0.292 OA
BRANCH  19  21
ATOM     21  C   UNL     1       7.434  -5.021  24.282  0.00  0.00    +0.018 A 
ATOM     22  C   UNL     1       7.380  -5.153  22.887  0.00  0.00    +0.014 A 
ATOM     23  C   UNL     1       6.184  -5.534  22.271  0.00  0.00    +0.039 A 
ATOM     24  C   UNL     1       5.059  -5.784  23.047  0.00  0.00    +0.123 A 
ATOM     25  F   UNL     1       3.919  -6.157  22.453  0.00  0.00    -0.205 F 
ATOM     26  C   UNL     1       5.097  -5.648  24.431  0.00  0.00    +0.039 A 
ATOM     27  C   UNL     1       6.285  -5.258  25.049  0.00  0.00    +0.014 A 
ENDBRANCH  19  21
ENDBRANCH  18  19
ENDBRANCH  17  18
ENDBRANCH  16  17
ENDBRANCH   4  16
TORSDOF 7
ENDMDL
MODEL 8
REMARK VINA RESULT:      -5.9      2.633      5.267
REMARK  Name = 
REMARK  7 active torsions:
REMARK  status: ('A' for Active; 'I' for Inactive)
REMARK    1  A    between atoms: O_1  and  C_2
REMARK    2  A    between atoms: C_2  and  C_20
REMARK    3  A    between atoms: N_5  and  C_6
REMARK    4  A    between atoms: C_6  and  C_7
REMARK    5  A    between atoms: C_7  and  C_8
REMARK    6  A    between atoms: C_8  and  C_9
REMARK    7  A    between atoms: C_9  and  C_11
REMARK                            x       y       z     vdW  Elec       q    Type
REMARK                         _______ _______ _______ _____ _____    ______ ____
ROOT
ATOM      1  C   UNL     1       8.140  -4.408  24.400  0.00  0.00    +0.093 C 
ATOM      2  C   UNL     1       8.838  -4.504  25.775  0.00  0.00    +0.055 C 
ATOM      3  C   UNL     1       8.278  -5.639  26.636  0.00  0.00    +0.087 C 
ATOM      4  N   UNL     1       6.814  -5.610  26.773  0.00  0.00    -0.302 NA
ATOM      5  C   UNL     1       6.177  -5.640  25.449  0.00  0.00    +0.087 C 
ATOM      6  C   UNL     1       6.606  -4.491  24.536  0.00  0.00    +0.055 C 
ENDROOT
BRANCH   1   7
ATOM      7  C   UNL     1       8.561  -3.124  23.679  0.00  0.00    -0.016 A 
ATOM      8  C   UNL     1       7.660  -2.421  22.855  0.00  0.00    +0.008 A 
ATOM      9  C   UNL     1       8.033  -1.223  22.235  0.00  0.00    +0.020 A 
ATOM     10  C   UNL     1       9.313  -0.712  22.425  0.00  0.00    +0.041 A 
ATOM     11 CL   UNL     1       9.762   0.774  21.683  0.00  0.00    -0.084 Cl
ATOM     12  C   UNL     1      10.227  -1.394  23.217  0.00  0.00    +0.020 A 
ATOM     13  C   UNL     1       9.854  -2.590  23.839  0.00  0.00    +0.008 A 
ENDBRANCH   1   7
BRANCH   1  14
ATOM     14  O   UNL     1       8.572  -5.530  23.611  0.00  0.00    -0.384 OA
ATOM     15  H   UNL     1       8.973  -6.193  24.195  0.00  0.00    +0.211 HD
ENDBRANCH   1  14
BRANCH   4  16
ATOM     16  C   UNL     1       6.372  -4.490  27.625  0.00  0.00    +0.085 C 
BRANCH  16  17
ATOM     17  C   UNL     1       4.912  -4.079  27.418  0.00  0.00    +0.023 C 
BRANCH  17  18
ATOM     18  C   UNL     1       4.706  -2.569  27.522  0.00  0.00    +0.081 C 
BRANCH  18  19
ATOM     19  C   UNL     1       4.816  -1.901  26.166  0.00  0.00    +0.163 C 
ATOM     20  O   UNL     1       4.029  -2.120  25.249  0.00  0.00    -0.292 OA
BRANCH  19  21
ATOM     21  C   UNL     1       5.961  -0.980  25.927  0.00  0.00    +0.018 A 
ATOM     22  C   UNL     1       7.210  -1.170  26.535  0.00  0.00    +0.014 A 
ATOM     23  C   UNL     1       8.256  -0.281  26.268  0.00  0.00    +0.039 A 
ATOM     24  C   UNL     1       8.050   0.782  25.397  0.00  0.00    +0.123 A 
ATOM     25  F   UNL     1       9.057   1.625  25.137  0.00  0.00    -0.205 F 
ATOM     26  C   UNL     1       6.813   0.986  24.793  0.00  0.00    +0.039 A 
ATOM     27  C   UNL     1       5.764   0.108  25.065  0.00  0.00    +0.014 A 
ENDBRANCH  19  21
ENDBRANCH  18  19
ENDBRANCH  17  18
ENDBRANCH  16  17
ENDBRANCH   4  16
TORSDOF 7
ENDMDL
MODEL 9
REMARK VINA RESULT:      -5.8      3.518      5.187
REMARK  Name = 
REMARK  7 active torsions:
REMARK  status: ('A' for Active; 'I' for Inactive)
REMARK    1  A    between atoms: O_1  and  C_2
REMARK    2  A    between atoms: C_2  and  C_20
REMARK    3  A    between atoms: N_5  and  C_6
REMARK    4  A    between atoms: C_6  and  C_7
REMARK    5  A    between atoms: C_7  and  C_8
REMARK    6  A    between atoms: C_8  and  C_9
REMARK    7  A    between atoms: C_9  and  C_11
REMARK                            x       y       z     vdW  Elec       q    Type
REMARK                         _______ _______ _______ _____ _____    ______ ____
ROOT
ATOM      1  C   UNL     1       9.091   2.090  22.574  0.00  0.00    +0.093 C 
ATOM      2  C   UNL     1      10.132   1.046  22.113  0.00  0.00    +0.055 C 
ATOM      3  C   UNL     1       9.494  -0.302  21.767  0.00  0.00    +0.087 C 
ATOM      4  N   UNL     1       8.627  -0.835  22.829  0.00  0.00    -0.302 NA
ATOM      5  C   UNL     1       7.573   0.134  23.161  0.00  0.00    +0.087 C 
ATOM      6  C   UNL     1       8.110   1.495  23.605  0.00  0.00    +0.055 C 
ENDROOT
BRANCH   1   7
ATOM      7  C   UNL     1       9.795   3.330  23.133  0.00  0.00    -0.016 A 
ATOM      8  C   UNL     1       9.072   4.340  23.799  0.00  0.00    +0.008 A 
ATOM      9  C   UNL     1       9.724   5.450  24.350  0.00  0.00    +0.020 A 
ATOM     10  C   UNL     1      11.106   5.569  24.239  0.00  0.00    +0.041 A 
ATOM     11 CL   UNL     1      11.909   6.920  24.938  0.00  0.00    -0.084 Cl
ATOM     12  C   UNL     1      11.840   4.597  23.572  0.00  0.00    +0.020 A 
ATOM     13  C   UNL     1      11.189   3.487  23.023  0.00  0.00    +0.008 A 
ENDBRANCH   1   7
BRANCH   1  14
ATOM     14  O   UNL     1       8.328   2.485  21.421  0.00  0.00    -0.384 OA
ATOM     15  H   UNL     1       8.203   3.446  21.437  0.00  0.00    +0.211 HD
ENDBRANCH   1  14
BRANCH   4  16
ATOM     16  C   UNL     1       9.412  -1.290  23.991  0.00  0.00    +0.085 C 
BRANCH  16  17
ATOM     17  C   UNL     1       9.721  -2.790  23.993  0.00  0.00    +0.023 C 
BRANCH  17  18
ATOM     18  C   UNL     1       9.040  -3.529  25.144  0.00  0.00    +0.081 C 
BRANCH  18  19
ATOM     19  C   UNL     1       7.550  -3.675  24.902  0.00  0.00    +0.163 C 
ATOM     20  O   UNL     1       6.707  -3.408  25.754  0.00  0.00    -0.292 OA
BRANCH  19  21
ATOM     21  C   UNL     1       7.102  -4.216  23.589  0.00  0.00    +0.018 A 
ATOM     22  C   UNL     1       6.259  -3.493  22.734  0.00  0.00    +0.014 A 
ATOM     23  C   UNL     1       5.877  -4.044  21.506  0.00  0.00    +0.039 A 
ATOM     24  C   UNL     1       6.342  -5.302  21.142  0.00  0.00    +0.123 A 
ATOM     25  F   UNL     1       5.981  -5.821  19.962  0.00  0.00    -0.205 F 
ATOM     26  C   UNL     1       7.173  -6.032  21.986  0.00  0.00    +0.039 A 
ATOM     27  C   UNL     1       7.547  -5.491  23.216  0.00  0.00    +0.014 A 
ENDBRANCH  19  21
ENDBRANCH  18  19
ENDBRANCH  17  18
ENDBRANCH  16  17
ENDBRANCH   4  16
TORSDOF 7
ENDMDL
