MODEL 1
REMARK VINA RESULT:      -6.2      0.000      0.000
REMARK  Name = 
REMARK  11 active torsions:
REMARK  status: ('A' for Active; 'I' for Inactive)
REMARK    1  A    between atoms: C_1  and  C_2
REMARK    2  A    between atoms: C_2  and  C_3
REMARK    3  A    between atoms: C_3  and  C_4
REMARK    4  A    between atoms: C_4  and  N_5
REMARK    5  A    between atoms: C_6  and  C_7
REMARK    6  A    between atoms: C_7  and  C_8
REMARK    7  A    between atoms: C_10  and  O_11
REMARK    8  A    between atoms: O_11  and  C_12
REMARK    9  A    between atoms: C_15  and  O_16
REMARK   10  A    between atoms: O_16  and  C_17
REMARK   11  A    between atoms: C_20  and  N_21
REMARK                            x       y       z     vdW  Elec       q    Type
REMARK                         _______ _______ _______ _____ _____    ______ ____
ROOT
ATOM      1  N   UNL     1       9.189  -1.490  25.209  0.00  0.00    -0.312 N 
ATOM      2  C   UNL     1       9.570  -0.448  24.401  0.00  0.00    +0.166 A 
ATOM      3  C   UNL     1       9.476  -0.953  23.114  0.00  0.00    +0.148 A 
ATOM      4  C   UNL     1       9.622  -0.025  22.073  0.00  0.00    +0.147 A 
ATOM      5  N   UNL     1       9.995   1.240  22.384  0.00  0.00    -0.219 NA
ATOM      6  C   UNL     1      10.135   1.569  23.686  0.00  0.00    +0.225 A 
ATOM      7  N   UNL     1       9.261  -2.319  23.154  0.00  0.00    -0.227 NA
ATOM      8  N   UNL     1       9.899   0.805  24.768  0.00  0.00    -0.216 NA
ATOM      9  C   UNL     1       9.244  -2.639  24.446  0.00  0.00    +0.116 A 
ENDROOT
BRANCH   4  10
ATOM     10  N   UNL     1       9.407  -0.318  20.738  0.00  0.00    -0.341 N 
ATOM     11  H   UNL     1       8.464  -0.143  20.422  0.00  0.00    +0.144 HD
ATOM     12  H   UNL     1      10.185  -0.143  20.117  0.00  0.00    +0.144 HD
ENDBRANCH   4  10
BRANCH   1  13
ATOM     13  C   UNL     1       8.832  -1.346  26.602  0.00  0.00    +0.125 C 
BRANCH  13  14
ATOM     14  C   UNL     1       7.436  -0.750  26.869  0.00  0.00    +0.021 C 
BRANCH  14  16
ATOM     15  C   UNL     1       5.624  -1.641  25.257  0.00  0.00    +0.004 C 
ATOM     16  C   UNL     1       6.225  -1.666  26.653  0.00  0.00    -0.002 C 
ENDBRANCH  14  16
ENDBRANCH  13  14
ENDBRANCH   1  13
BRANCH   9  17
ATOM     17  C   UNL     1       9.354  -4.043  24.996  0.00  0.00    +0.113 C 
BRANCH  17  18
ATOM     18  C   UNL     1       8.064  -4.673  25.514  0.00  0.00    +0.005 A 
ATOM     19  C   UNL     1       6.991  -5.025  24.666  0.00  0.00    +0.124 A 
ATOM     20  C   UNL     1       5.833  -5.611  25.207  0.00  0.00    +0.049 A 
ATOM     21  C   UNL     1       5.706  -5.843  26.575  0.00  0.00    +0.049 A 
ATOM     22  C   UNL     1       6.732  -5.480  27.439  0.00  0.00    +0.121 A 
ATOM     23  C   UNL     1       7.899  -4.927  26.903  0.00  0.00    +0.053 A 
BRANCH  19  24
ATOM     24  O   UNL     1       6.844  -4.748  23.332  0.00  0.00    -0.495 OA
ATOM     25  C   UNL     1       7.224  -5.729  22.382  0.00  0.00    +0.277 C 
ENDBRANCH  19  24
BRANCH  22  26
ATOM     26  O   UNL     1       6.477  -5.714  28.760  0.00  0.00    -0.495 OA
ATOM     27  C   UNL     1       5.476  -6.679  29.061  0.00  0.00    +0.277 C 
ENDBRANCH  22  26
ENDBRANCH  17  18
ENDBRANCH   9  17
TORSDOF 8
ENDMDL
MODEL 2
REMARK VINA RESULT:      -6.1      1.525      2.846
REMARK  Name = 
REMARK  11 active torsions:
REMARK  status: ('A' for Active; 'I' for Inactive)
REMARK    1  A    between atoms: C_1  and  C_2
REMARK    2  A    between atoms: C_2  and  C_3
REMARK    3  A    between atoms: C_3  and  C_4
REMARK    4  A    between atoms: C_4  and  N_5
REMARK    5  A    between atoms: C_6  and  C_7
REMARK    6  A    between atoms: C_7  and  C_8
REMARK    7  A    between atoms: C_10  and  O_11
REMARK    8  A    between atoms: O_11  and  C_12
REMARK    9  A    between atoms: C_15  and  O_16
REMARK   10  A    between atoms: O_16  and  C_17
REMARK   11  A    between atoms: C_20  and  N_21
REMARK                            x       y       z     vdW  Elec       q    Type
REMARK                         _______ _______ _______ _____ _____    ______ ____
ROOT
ATOM      1  N   UNL     1       8.711  -2.370  25.043  0.00  0.00    -0.312 N 
ATOM      2  C   UNL     1       9.370  -1.289  24.512  0.00  0.00    +0.166 A 
ATOM      3  C   UNL     1       9.247  -1.446  23.140  0.00  0.00    +0.148 A 
ATOM      4  C   UNL     1       9.665  -0.364  22.353  0.00  0.00    +0.147 A 
ATOM      5  N   UNL     1      10.295   0.670  22.962  0.00  0.00    -0.219 NA
ATOM      6  C   UNL     1      10.422   0.647  24.306  0.00  0.00    +0.225 A 
ATOM      7  N   UNL     1       8.724  -2.694  22.850  0.00  0.00    -0.227 NA
ATOM      8  N   UNL     1       9.951  -0.269  25.171  0.00  0.00    -0.216 NA
ATOM      9  C   UNL     1       8.553  -3.291  24.027  0.00  0.00    +0.116 A 
ENDROOT
BRANCH   4  10
ATOM     10  N   UNL     1       9.475  -0.281  20.985  0.00  0.00    -0.341 N 
ATOM     11  H   UNL     1      10.255   0.114  20.481  0.00  0.00    +0.144 HD
ATOM     12  H   UNL     1       8.935  -1.027  20.569  0.00  0.00    +0.144 HD
ENDBRANCH   4  10
BRANCH   1  13
ATOM     13  C   UNL     1       8.309  -2.472  26.427  0.00  0.00    +0.125 C 
BRANCH  13  14
ATOM     14  C   UNL     1       6.848  -2.077  26.722  0.00  0.00    +0.021 C 
BRANCH  14  16
ATOM     15  C   UNL     1       4.530  -2.301  25.601  0.00  0.00    +0.004 C 
ATOM     16  C   UNL     1       5.948  -1.759  25.521  0.00  0.00    -0.002 C 
ENDBRANCH  14  16
ENDBRANCH  13  14
ENDBRANCH   1  13
BRANCH   9  17
ATOM     17  C   UNL     1       8.306  -4.769  24.225  0.00  0.00    +0.113 C 
BRANCH  17  18
ATOM     18  C   UNL     1       6.862  -5.188  24.486  0.00  0.00    +0.005 A 
ATOM     19  C   UNL     1       6.414  -5.643  25.746  0.00  0.00    +0.124 A 
ATOM     20  C   UNL     1       5.067  -6.005  25.922  0.00  0.00    +0.049 A 
ATOM     21  C   UNL     1       4.153  -5.940  24.872  0.00  0.00    +0.049 A 
ATOM     22  C   UNL     1       4.569  -5.525  23.614  0.00  0.00    +0.121 A 
ATOM     23  C   UNL     1       5.901  -5.133  23.441  0.00  0.00    +0.053 A 
BRANCH  19  24
ATOM     24  O   UNL     1       7.165  -5.927  26.856  0.00  0.00    -0.495 OA
ATOM     25  C   UNL     1       6.614  -5.681  28.139  0.00  0.00    +0.277 C 
ENDBRANCH  19  24
BRANCH  22  26
ATOM     26  O   UNL     1       3.598  -5.545  22.654  0.00  0.00    -0.495 OA
ATOM     27  C   UNL     1       2.312  -6.006  23.050  0.00  0.00    +0.277 C 
ENDBRANCH  22  26
ENDBRANCH  17  18
ENDBRANCH   9  17
TORSDOF 8
ENDMDL
MODEL 3
REMARK VINA RESULT:      -5.9      2.044      4.214
REMARK  Name = 
REMARK  11 active torsions:
REMARK  status: ('A' for Active; 'I' for Inactive)
REMARK    1  A    between atoms: C_1  and  C_2
REMARK    2  A    between atoms: C_2  and  C_3
REMARK    3  A    between atoms: C_3  and  C_4
REMARK    4  A    between atoms: C_4  and  N_5
REMARK    5  A    between atoms: C_6  and  C_7
REMARK    6  A    between atoms: C_7  and  C_8
REMARK    7  A    between atoms: C_10  and  O_11
REMARK    8  A    between atoms: O_11  and  C_12
REMARK    9  A    between atoms: C_15  and  O_16
REMARK   10  A    between atoms: O_16  and  C_17
REMARK   11  A    between atoms: C_20  and  N_21
REMARK                            x       y       z     vdW  Elec       q    Type
REMARK                         _______ _______ _______ _____ _____    ______ ____
ROOT
ATOM      1  N   UNL     1       7.325  -2.461  23.160  0.00  0.00    -0.312 N 
ATOM      2  C   UNL     1       8.369  -1.586  22.989  0.00  0.00    +0.166 A 
ATOM      3  C   UNL     1       8.527  -0.988  24.229  0.00  0.00    +0.148 A 
ATOM      4  C   UNL     1       9.666  -0.186  24.389  0.00  0.00    +0.147 A 
ATOM      5  N   UNL     1      10.430   0.072  23.300  0.00  0.00    -0.219 NA
ATOM      6  C   UNL     1      10.104  -0.516  22.129  0.00  0.00    +0.225 A 
ATOM      7  N   UNL     1       7.472  -1.325  25.058  0.00  0.00    -0.227 NA
ATOM      8  N   UNL     1       9.117  -1.397  21.887  0.00  0.00    -0.216 NA
ATOM      9  C   UNL     1       6.677  -2.101  24.325  0.00  0.00    +0.116 A 
ENDROOT
BRANCH   4  10
ATOM     10  N   UNL     1      10.066   0.363  25.595  0.00  0.00    -0.341 N 
ATOM     11  H   UNL     1       9.796   1.327  25.721  0.00  0.00    +0.144 HD
ATOM     12  H   UNL     1      10.067  -0.266  26.386  0.00  0.00    +0.144 HD
ENDBRANCH   4  10
BRANCH   1  13
ATOM     13  C   UNL     1       7.001  -3.526  22.238  0.00  0.00    +0.125 C 
BRANCH  13  14
ATOM     14  C   UNL     1       7.636  -4.893  22.557  0.00  0.00    +0.021 C 
BRANCH  14  16
ATOM     15  C   UNL     1       6.034  -5.936  20.819  0.00  0.00    +0.004 C 
ATOM     16  C   UNL     1       6.914  -6.144  22.041  0.00  0.00    -0.002 C 
ENDBRANCH  14  16
ENDBRANCH  13  14
ENDBRANCH   1  13
BRANCH   9  17
ATOM     17  C   UNL     1       5.252  -2.465  24.675  0.00  0.00    +0.113 C 
BRANCH  17  18
ATOM     18  C   UNL     1       4.921  -3.954  24.716  0.00  0.00    +0.005 A 
ATOM     19  C   UNL     1       5.535  -4.848  25.620  0.00  0.00    +0.124 A 
ATOM     20  C   UNL     1       5.178  -6.208  25.612  0.00  0.00    +0.049 A 
ATOM     21  C   UNL     1       4.235  -6.708  24.717  0.00  0.00    +0.049 A 
ATOM     22  C   UNL     1       3.635  -5.859  23.796  0.00  0.00    +0.121 A 
ATOM     23  C   UNL     1       3.962  -4.499  23.820  0.00  0.00    +0.053 A 
BRANCH  19  24
ATOM     24  O   UNL     1       6.584  -4.604  26.468  0.00  0.00    -0.495 OA
ATOM     25  C   UNL     1       7.841  -5.198  26.193  0.00  0.00    +0.277 C 
ENDBRANCH  19  24
BRANCH  22  26
ATOM     26  O   UNL     1       2.761  -6.468  22.941  0.00  0.00    -0.495 OA
ATOM     27  C   UNL     1       1.460  -5.898  22.838  0.00  0.00    +0.277 C 
ENDBRANCH  22  26
ENDBRANCH  17  18
ENDBRANCH   9  17
TORSDOF 8
ENDMDL
MODEL 4
REMARK VINA RESULT:      -5.9      2.356      3.455
REMARK  Name = 
REMARK  11 active torsions:
REMARK  status: ('A' for Active; 'I' for Inactive)
REMARK    1  A    between atoms: C_1  and  C_2
REMARK    2  A    between atoms: C_2  and  C_3
REMARK    3  A    between atoms: C_3  and  C_4
REMARK    4  A    between atoms: C_4  and  N_5
REMARK    5  A    between atoms: C_6  and  C_7
REMARK    6  A    between atoms: C_7  and  C_8
REMARK    7  A    between atoms: C_10  and  O_11
REMARK    8  A    between atoms: O_11  and  C_12
REMARK    9  A    between atoms: C_15  and  O_16
REMARK   10  A    between atoms: O_16  and  C_17
REMARK   11  A    between atoms: C_20  and  N_21
REMARK                            x       y       z     vdW  Elec       q    Type
REMARK                         _______ _______ _______ _____ _____    ______ ____
ROOT
ATOM      1  N   UNL     1       8.995   0.077  23.973  0.00  0.00    -0.312 N 
ATOM      2  C   UNL     1       8.872   1.439  23.851  0.00  0.00    +0.166 A 
ATOM      3  C   UNL     1       7.893   1.614  22.887  0.00  0.00    +0.148 A 
ATOM      4  C   UNL     1       7.427   2.925  22.710  0.00  0.00    +0.147 A 
ATOM      5  N   UNL     1       8.063   3.929  23.361  0.00  0.00    -0.219 NA
ATOM      6  C   UNL     1       9.065   3.614  24.209  0.00  0.00    +0.225 A 
ATOM      7  N   UNL     1       7.593   0.404  22.288  0.00  0.00    -0.227 NA
ATOM      8  N   UNL     1       9.511   2.393  24.555  0.00  0.00    -0.216 NA
ATOM      9  C   UNL     1       8.393  -0.488  22.866  0.00  0.00    +0.116 A 
ENDROOT
BRANCH   4  10
ATOM     10  N   UNL     1       6.351   3.264  21.908  0.00  0.00    -0.341 N 
ATOM     11  H   UNL     1       6.605   3.720  21.044  0.00  0.00    +0.144 HD
ATOM     12  H   UNL     1       5.568   2.624  21.926  0.00  0.00    +0.144 HD
ENDBRANCH   4  10
BRANCH   1  13
ATOM     13  C   UNL     1       9.667  -0.580  25.071  0.00  0.00    +0.125 C 
BRANCH  13  14
ATOM     14  C   UNL     1       8.852  -0.689  26.375  0.00  0.00    +0.021 C 
BRANCH  14  16
ATOM     15  C   UNL     1       6.284  -0.644  26.086  0.00  0.00    +0.004 C 
ATOM     16  C   UNL     1       7.535  -1.475  26.319  0.00  0.00    -0.002 C 
ENDBRANCH  14  16
ENDBRANCH  13  14
ENDBRANCH   1  13
BRANCH   9  17
ATOM     17  C   UNL     1       8.667  -1.880  22.344  0.00  0.00    +0.113 C 
BRANCH  17  18
ATOM     18  C   UNL     1       7.789  -2.999  22.899  0.00  0.00    +0.005 A 
ATOM     19  C   UNL     1       8.252  -3.931  23.854  0.00  0.00    +0.124 A 
ATOM     20  C   UNL     1       7.388  -4.932  24.331  0.00  0.00    +0.049 A 
ATOM     21  C   UNL     1       6.077  -5.042  23.874  0.00  0.00    +0.049 A 
ATOM     22  C   UNL     1       5.602  -4.158  22.913  0.00  0.00    +0.121 A 
ATOM     23  C   UNL     1       6.445  -3.140  22.458  0.00  0.00    +0.053 A 
BRANCH  19  24
ATOM     24  O   UNL     1       9.530  -4.099  24.318  0.00  0.00    -0.495 OA
ATOM     25  C   UNL     1       9.749  -4.942  25.435  0.00  0.00    +0.277 C 
ENDBRANCH  19  24
BRANCH  22  26
ATOM     26  O   UNL     1       4.318  -4.389  22.508  0.00  0.00    -0.495 OA
ATOM     27  C   UNL     1       3.450  -5.014  23.447  0.00  0.00    +0.277 C 
ENDBRANCH  22  26
ENDBRANCH  17  18
ENDBRANCH   9  17
TORSDOF 8
ENDMDL
MODEL 5
REMARK VINA RESULT:      -5.8      3.040      6.564
REMARK  Name = 
REMARK  11 active torsions:
REMARK  status: ('A' for Active; 'I' for Inactive)
REMARK    1  A    between atoms: C_1  and  C_2
REMARK    2  A    between atoms: C_2  and  C_3
REMARK    3  A    between atoms: C_3  and  C_4
REMARK    4  A    between atoms: C_4  and  N_5
REMARK    5  A    between atoms: C_6  and  C_7
REMARK    6  A    between atoms: C_7  and  C_8
REMARK    7  A    between atoms: C_10  and  O_11
REMARK    8  A    between atoms: O_11  and  C_12
REMARK    9  A    between atoms: C_15  and  O_16
REMARK   10  A    between atoms: O_16  and  C_17
REMARK   11  A    between atoms: C_20  and  N_21
REMARK                            x       y       z     vdW  Elec       q    Type
REMARK                         _______ _______ _______ _____ _____    ______ ____
ROOT
ATOM      1  N   UNL     1       7.072  -1.541  25.672  0.00  0.00    -0.312 N 
ATOM      2  C   UNL     1       6.624  -2.810  25.404  0.00  0.00    +0.166 A 
ATOM      3  C   UNL     1       7.562  -3.641  25.996  0.00  0.00    +0.148 A 
ATOM      4  C   UNL     1       7.238  -5.005  26.042  0.00  0.00    +0.147 A 
ATOM      5  N   UNL     1       6.134  -5.428  25.381  0.00  0.00    -0.219 NA
ATOM      6  C   UNL     1       5.356  -4.509  24.771  0.00  0.00    +0.225 A 
ATOM      7  N   UNL     1       8.655  -2.904  26.414  0.00  0.00    -0.227 NA
ATOM      8  N   UNL     1       5.495  -3.171  24.767  0.00  0.00    -0.216 NA
ATOM      9  C   UNL     1       8.392  -1.647  26.063  0.00  0.00    +0.116 A 
ENDROOT
BRANCH   4  10
ATOM     10  N   UNL     1       7.977  -5.954  26.727  0.00  0.00    -0.341 N 
ATOM     11  H   UNL     1       8.858  -6.186  26.292  0.00  0.00    +0.144 HD
ATOM     12  H   UNL     1       7.907  -5.925  27.735  0.00  0.00    +0.144 HD
ENDBRANCH   4  10
BRANCH   1  13
ATOM     13  C   UNL     1       6.266  -0.350  25.526  0.00  0.00    +0.125 C 
BRANCH  13  14
ATOM     14  C   UNL     1       6.169   0.211  24.094  0.00  0.00    +0.021 C 
BRANCH  14  16
ATOM     15  C   UNL     1       6.426   2.240  22.515  0.00  0.00    +0.004 C 
ATOM     16  C   UNL     1       6.198   1.736  23.930  0.00  0.00    -0.002 C 
ENDBRANCH  14  16
ENDBRANCH  13  14
ENDBRANCH   1  13
BRANCH   9  17
ATOM     17  C   UNL     1       9.405  -0.525  26.019  0.00  0.00    +0.113 C 
BRANCH  17  18
ATOM     18  C   UNL     1       9.623   0.140  24.663  0.00  0.00    +0.005 A 
ATOM     19  C   UNL     1       9.620  -0.580  23.449  0.00  0.00    +0.124 A 
ATOM     20  C   UNL     1       9.818   0.096  22.232  0.00  0.00    +0.049 A 
ATOM     21  C   UNL     1      10.035   1.472  22.191  0.00  0.00    +0.049 A 
ATOM     22  C   UNL     1      10.074   2.204  23.371  0.00  0.00    +0.121 A 
ATOM     23  C   UNL     1       9.845   1.542  24.582  0.00  0.00    +0.053 A 
BRANCH  19  24
ATOM     24  O   UNL     1       9.580  -1.939  23.274  0.00  0.00    -0.495 OA
ATOM     25  C   UNL     1       8.591  -2.493  22.424  0.00  0.00    +0.277 C 
ENDBRANCH  19  24
BRANCH  22  26
ATOM     26  O   UNL     1      10.337   3.534  23.211  0.00  0.00    -0.495 OA
ATOM     27  C   UNL     1       9.398   4.447  23.767  0.00  0.00    +0.277 C 
ENDBRANCH  22  26
ENDBRANCH  17  18
ENDBRANCH   9  17
TORSDOF 8
ENDMDL
MODEL 6
REMARK VINA RESULT:      -5.8      3.388      7.219
REMARK  Name = 
REMARK  11 active torsions:
REMARK  status: ('A' for Active; 'I' for Inactive)
REMARK    1  A    between atoms: C_1  and  C_2
REMARK    2  A    between atoms: C_2  and  C_3
REMARK    3  A    between atoms: C_3  and  C_4
REMARK    4  A    between atoms: C_4  and  N_5
REMARK    5  A    between atoms: C_6  and  C_7
REMARK    6  A    between atoms: C_7  and  C_8
REMARK    7  A    between atoms: C_10  and  O_11
REMARK    8  A    between atoms: O_11  and  C_12
REMARK    9  A    between atoms: C_15  and  O_16
REMARK   10  A    between atoms: O_16  and  C_17
REMARK   11  A    between atoms: C_20  and  N_21
REMARK                            x       y       z     vdW  Elec       q    Type
REMARK                         _______ _______ _______ _____ _____    ______ ____
ROOT
ATOM      1  N   UNL     1       9.616  -1.699  23.966  0.00  0.00    -0.312 N 
ATOM      2  C   UNL     1       9.105  -2.870  24.468  0.00  0.00    +0.166 A 
ATOM      3  C   UNL     1       8.326  -2.475  25.544  0.00  0.00    +0.148 A 
ATOM      4  C   UNL     1       7.522  -3.468  26.122  0.00  0.00    +0.147 A 
ATOM      5  N   UNL     1       7.676  -4.748  25.704  0.00  0.00    -0.219 NA
ATOM      6  C   UNL     1       8.542  -4.997  24.698  0.00  0.00    +0.225 A 
ATOM      7  N   UNL     1       8.538  -1.136  25.820  0.00  0.00    -0.227 NA
ATOM      8  N   UNL     1       9.267  -4.116  23.986  0.00  0.00    -0.216 NA
ATOM      9  C   UNL     1       9.446  -0.731  24.936  0.00  0.00    +0.116 A 
ENDROOT
BRANCH   4  10
ATOM     10  N   UNL     1       6.571  -3.225  27.098  0.00  0.00    -0.341 N 
ATOM     11  H   UNL     1       6.586  -3.883  27.865  0.00  0.00    +0.144 HD
ATOM     12  H   UNL     1       6.360  -2.253  27.276  0.00  0.00    +0.144 HD
ENDBRANCH   4  10
BRANCH   1  13
ATOM     13  C   UNL     1      10.232  -1.576  22.664  0.00  0.00    +0.125 C 
BRANCH  13  14
ATOM     14  C   UNL     1       9.341  -0.959  21.568  0.00  0.00    +0.021 C 
BRANCH  14  16
ATOM     15  C   UNL     1       8.083   1.290  21.375  0.00  0.00    +0.004 C 
ATOM     16  C   UNL     1       9.416   0.561  21.371  0.00  0.00    -0.002 C 
ENDBRANCH  14  16
ENDBRANCH  13  14
ENDBRANCH   1  13
BRANCH   9  17
ATOM     17  C   UNL     1      10.233   0.558  25.025  0.00  0.00    +0.113 C 
BRANCH  17  18
ATOM     18  C   UNL     1       9.478   1.840  24.687  0.00  0.00    +0.005 A 
ATOM     19  C   UNL     1      10.062   2.901  23.961  0.00  0.00    +0.124 A 
ATOM     20  C   UNL     1       9.308   4.053  23.675  0.00  0.00    +0.049 A 
ATOM     21  C   UNL     1       7.989   4.184  24.104  0.00  0.00    +0.049 A 
ATOM     22  C   UNL     1       7.396   3.170  24.845  0.00  0.00    +0.121 A 
ATOM     23  C   UNL     1       8.130   2.009  25.106  0.00  0.00    +0.053 A 
BRANCH  19  24
ATOM     24  O   UNL     1      11.371   3.045  23.583  0.00  0.00    -0.495 OA
ATOM     25  C   UNL     1      11.862   4.341  23.286  0.00  0.00    +0.277 C 
ENDBRANCH  19  24
BRANCH  22  26
ATOM     26  O   UNL     1       6.117   3.428  25.248  0.00  0.00    -0.495 OA
ATOM     27  C   UNL     1       5.368   4.348  24.462  0.00  0.00    +0.277 C 
ENDBRANCH  22  26
ENDBRANCH  17  18
ENDBRANCH   9  17
TORSDOF 8
ENDMDL
MODEL 7
REMARK VINA RESULT:      -5.7      3.111      6.644
REMARK  Name = 
REMARK  11 active torsions:
REMARK  status: ('A' for Active; 'I' for Inactive)
REMARK    1  A    between atoms: C_1  and  C_2
REMARK    2  A    between atoms: C_2  and  C_3
REMARK    3  A    between atoms: C_3  and  C_4
REMARK    4  A    between atoms: C_4  and  N_5
REMARK    5  A    between atoms: C_6  and  C_7
REMARK    6  A    between atoms: C_7  and  C_8
REMARK    7  A    between atoms: C_10  and  O_11
REMARK    8  A    between atoms: O_11  and  C_12
REMARK    9  A    between atoms: C_15  and  O_16
REMARK   10  A    between atoms: O_16  and  C_17
REMARK   11  A    between atoms: C_20  and  N_21
REMARK                            x       y       z     vdW  Elec       q    Type
REMARK                         _______ _______ _______ _____ _____    ______ ____
ROOT
ATOM      1  N   UNL     1       7.192  -2.248  24.325  0.00  0.00    -0.312 N 
ATOM      2  C   UNL     1       7.258  -3.436  25.010  0.00  0.00    +0.166 A 
ATOM      3  C   UNL     1       8.560  -3.873  24.823  0.00  0.00    +0.148 A 
ATOM      4  C   UNL     1       8.958  -4.978  25.589  0.00  0.00    +0.147 A 
ATOM      5  N   UNL     1       8.020  -5.626  26.321  0.00  0.00    -0.219 NA
ATOM      6  C   UNL     1       6.763  -5.133  26.340  0.00  0.00    +0.225 A 
ATOM      7  N   UNL     1       9.193  -3.090  23.874  0.00  0.00    -0.227 NA
ATOM      8  N   UNL     1       6.297  -4.017  25.753  0.00  0.00    -0.216 NA
ATOM      9  C   UNL     1       8.281  -2.204  23.478  0.00  0.00    +0.116 A 
ENDROOT
BRANCH   4  10
ATOM     10  N   UNL     1      10.256  -5.453  25.649  0.00  0.00    -0.341 N 
ATOM     11  H   UNL     1      10.501  -5.880  26.530  0.00  0.00    +0.144 HD
ATOM     12  H   UNL     1      10.628  -5.830  24.788  0.00  0.00    +0.144 HD
ENDBRANCH   4  10
BRANCH   1  13
ATOM     13  C   UNL     1       6.133  -1.278  24.488  0.00  0.00    +0.125 C 
BRANCH  13  14
ATOM     14  C   UNL     1       6.186  -0.454  25.789  0.00  0.00    +0.021 C 
BRANCH  14  16
ATOM     15  C   UNL     1       7.202   1.906  26.069  0.00  0.00    +0.004 C 
ATOM     16  C   UNL     1       7.435   0.404  26.030  0.00  0.00    -0.002 C 
ENDBRANCH  14  16
ENDBRANCH  13  14
ENDBRANCH   1  13
BRANCH   9  17
ATOM     17  C   UNL     1       8.387  -1.341  22.242  0.00  0.00    +0.113 C 
BRANCH  17  18
ATOM     18  C   UNL     1       8.477   0.165  22.470  0.00  0.00    +0.005 A 
ATOM     19  C   UNL     1       9.623   0.788  23.013  0.00  0.00    +0.124 A 
ATOM     20  C   UNL     1       9.644   2.183  23.189  0.00  0.00    +0.049 A 
ATOM     21  C   UNL     1       8.549   2.977  22.853  0.00  0.00    +0.049 A 
ATOM     22  C   UNL     1       7.397   2.390  22.346  0.00  0.00    +0.121 A 
ATOM     23  C   UNL     1       7.381   1.007  22.137  0.00  0.00    +0.053 A 
BRANCH  19  24
ATOM     24  O   UNL     1      10.734   0.191  23.547  0.00  0.00    -0.495 OA
ATOM     25  C   UNL     1      11.090   0.479  24.888  0.00  0.00    +0.277 C 
ENDBRANCH  19  24
BRANCH  22  26
ATOM     26  O   UNL     1       6.374   3.260  22.095  0.00  0.00    -0.495 OA
ATOM     27  C   UNL     1       5.173   3.070  22.834  0.00  0.00    +0.277 C 
ENDBRANCH  22  26
ENDBRANCH  17  18
ENDBRANCH   9  17
TORSDOF 8
ENDMDL
MODEL 8
REMARK VINA RESULT:      -5.6      3.266      7.154
REMARK  Name = 
REMARK  11 active torsions:
REMARK  status: ('A' for Active; 'I' for Inactive)
REMARK    1  A    between atoms: C_1  and  C_2
REMARK    2  A    between atoms: C_2  and  C_3
REMARK    3  A    between atoms: C_3  and  C_4
REMARK    4  A    between atoms: C_4  and  N_5
REMARK    5  A    between atoms: C_6  and  C_7
REMARK    6  A    between atoms: C_7  and  C_8
REMARK    7  A    between atoms: C_10  and  O_11
REMARK    8  A    between atoms: O_11  and  C_12
REMARK    9  A    between atoms: C_15  and  O_16
REMARK   10  A    between atoms: O_16  and  C_17
REMARK   11  A    between atoms: C_20  and  N_21
REMARK                            x       y       z     vdW  Elec       q    Type
REMARK                         _______ _______ _______ _____ _____    ______ ____
ROOT
ATOM      1  N   UNL     1       8.914  -2.334  24.160  0.00  0.00    -0.312 N 
ATOM      2  C   UNL     1       8.034  -3.378  24.022  0.00  0.00    +0.166 A 
ATOM      3  C   UNL     1       6.810  -2.856  24.409  0.00  0.00    +0.148 A 
ATOM      4  C   UNL     1       5.689  -3.665  24.173  0.00  0.00    +0.147 A 
ATOM      5  N   UNL     1       5.890  -4.934  23.743  0.00  0.00    -0.219 NA
ATOM      6  C   UNL     1       7.153  -5.337  23.488  0.00  0.00    +0.225 A 
ATOM      7  N   UNL     1       6.984  -1.605  24.973  0.00  0.00    -0.227 NA
ATOM      8  N   UNL     1       8.286  -4.615  23.554  0.00  0.00    -0.216 NA
ATOM      9  C   UNL     1       8.296  -1.381  24.946  0.00  0.00    +0.116 A 
ENDROOT
BRANCH   4  10
ATOM     10  N   UNL     1       4.382  -3.249  24.351  0.00  0.00    -0.341 N 
ATOM     11  H   UNL     1       3.795  -3.369  23.539  0.00  0.00    +0.144 HD
ATOM     12  H   UNL     1       3.995  -3.390  25.275  0.00  0.00    +0.144 HD
ENDBRANCH   4  10
BRANCH   1  13
ATOM     13  C   UNL     1      10.239  -2.310  23.584  0.00  0.00    +0.125 C 
BRANCH  13  14
ATOM     14  C   UNL     1      10.415  -1.379  22.369  0.00  0.00    +0.021 C 
BRANCH  14  16
ATOM     15  C   UNL     1       9.056   0.543  21.301  0.00  0.00    +0.004 C 
ATOM     16  C   UNL     1       9.145  -0.939  21.628  0.00  0.00    -0.002 C 
ENDBRANCH  14  16
ENDBRANCH  13  14
ENDBRANCH   1  13
BRANCH   9  17
ATOM     17  C   UNL     1       9.011  -0.300  25.725  0.00  0.00    +0.113 C 
BRANCH  17  18
ATOM     18  C   UNL     1       9.073   1.078  25.073  0.00  0.00    +0.005 A 
ATOM     19  C   UNL     1       7.960   1.945  25.011  0.00  0.00    +0.124 A 
ATOM     20  C   UNL     1       8.087   3.207  24.404  0.00  0.00    +0.049 A 
ATOM     21  C   UNL     1       9.291   3.626  23.842  0.00  0.00    +0.049 A 
ATOM     22  C   UNL     1      10.396   2.784  23.860  0.00  0.00    +0.121 A 
ATOM     23  C   UNL     1      10.285   1.541  24.491  0.00  0.00    +0.053 A 
BRANCH  19  24
ATOM     24  O   UNL     1       6.662   1.677  25.358  0.00  0.00    -0.495 OA
ATOM     25  C   UNL     1       6.019   2.511  26.307  0.00  0.00    +0.277 C 
ENDBRANCH  19  24
BRANCH  22  26
ATOM     26  O   UNL     1      11.506   3.283  23.240  0.00  0.00    -0.495 OA
ATOM     27  C   UNL     1      11.752   4.677  23.386  0.00  0.00    +0.277 C 
ENDBRANCH  22  26
ENDBRANCH  17  18
ENDBRANCH   9  17
TORSDOF 8
ENDMDL
MODEL 9
REMARK VINA RESULT:      -5.6      1.773      3.491
REMARK  Name = 
REMARK  11 active torsions:
REMARK  status: ('A' for Active; 'I' for Inactive)
REMARK    1  A    between atoms: C_1  and  C_2
REMARK    2  A    between atoms: C_2  and  C_3
REMARK    3  A    between atoms: C_3  and  C_4
REMARK    4  A    between atoms: C_4  and  N_5
REMARK    5  A    between atoms: C_6  and  C_7
REMARK    6  A    between atoms: C_7  and  C_8
REMARK    7  A    between atoms: C_10  and  O_11
REMARK    8  A    between atoms: O_11  and  C_12
REMARK    9  A    between atoms: C_15  and  O_16
REMARK   10  A    between atoms: O_16  and  C_17
REMARK   11  A    between atoms: C_20  and  N_21
REMARK                            x       y       z     vdW  Elec       q    Type
REMARK                         _______ _______ _______ _____ _____    ______ ____
ROOT
ATOM      1  N   UNL     1       8.025  -1.668  23.846  0.00  0.00    -0.312 N 
ATOM      2  C   UNL     1       7.497  -0.566  24.472  0.00  0.00    +0.166 A 
ATOM      3  C   UNL     1       7.822  -0.737  25.809  0.00  0.00    +0.148 A 
ATOM      4  C   UNL     1       7.571   0.356  26.651  0.00  0.00    +0.147 A 
ATOM      5  N   UNL     1       6.896   1.417  26.146  0.00  0.00    -0.219 NA
ATOM      6  C   UNL     1       6.564   1.407  24.837  0.00  0.00    +0.225 A 
ATOM      7  N   UNL     1       8.335  -2.005  26.015  0.00  0.00    -0.227 NA
ATOM      8  N   UNL     1       6.862   0.479  23.910  0.00  0.00    -0.216 NA
ATOM      9  C   UNL     1       8.301  -2.601  24.826  0.00  0.00    +0.116 A 
ENDROOT
BRANCH   4  10
ATOM     10  N   UNL     1       7.971   0.424  27.974  0.00  0.00    -0.341 N 
ATOM     11  H   UNL     1       7.347  -0.036  28.620  0.00  0.00    +0.144 HD
ATOM     12  H   UNL     1       8.969   0.397  28.135  0.00  0.00    +0.144 HD
ENDBRANCH   4  10
BRANCH   1  13
ATOM     13  C   UNL     1       8.207  -1.777  22.417  0.00  0.00    +0.125 C 
BRANCH  13  14
ATOM     14  C   UNL     1       9.475  -1.102  21.859  0.00  0.00    +0.021 C 
BRANCH  14  16
ATOM     15  C   UNL     1       9.936   1.431  22.084  0.00  0.00    +0.004 C 
ATOM     16  C   UNL     1       9.322   0.305  21.267  0.00  0.00    -0.002 C 
ENDBRANCH  14  16
ENDBRANCH  13  14
ENDBRANCH   1  13
BRANCH   9  17
ATOM     17  C   UNL     1       8.458  -4.086  24.592  0.00  0.00    +0.113 C 
BRANCH  17  18
ATOM     18  C   UNL     1       7.209  -4.941  24.791  0.00  0.00    +0.005 A 
ATOM     19  C   UNL     1       6.329  -5.265  23.735  0.00  0.00    +0.124 A 
ATOM     20  C   UNL     1       5.201  -6.066  23.984  0.00  0.00    +0.049 A 
ATOM     21  C   UNL     1       4.914  -6.543  25.261  0.00  0.00    +0.049 A 
ATOM     22  C   UNL     1       5.744  -6.217  26.326  0.00  0.00    +0.121 A 
ATOM     23  C   UNL     1       6.886  -5.448  26.079  0.00  0.00    +0.053 A 
BRANCH  19  24
ATOM     24  O   UNL     1       6.336  -4.782  22.453  0.00  0.00    -0.495 OA
ATOM     25  C   UNL     1       6.387  -5.700  21.374  0.00  0.00    +0.277 C 
ENDBRANCH  19  24
BRANCH  22  26
ATOM     26  O   UNL     1       5.340  -6.702  27.537  0.00  0.00    -0.495 OA
ATOM     27  C   UNL     1       6.057  -6.254  28.682  0.00  0.00    +0.277 C 
ENDBRANCH  22  26
ENDBRANCH  17  18
ENDBRANCH   9  17
TORSDOF 8
ENDMDL
