MODEL 1
REMARK VINA RESULT:      -6.4      0.000      0.000
REMARK  Name = 
REMARK  4 active torsions:
REMARK  status: ('A' for Active; 'I' for Inactive)
REMARK    1  A    between atoms: C_2  and  C_3
REMARK    2  A    between atoms: C_2  and  C_4
REMARK    3  A    between atoms: C_2  and  C_9
REMARK    4  A    between atoms: C_12  and  O_13
REMARK                            x       y       z     vdW  Elec       q    Type
REMARK                         _______ _______ _______ _____ _____    ______ ____
ROOT
ATOM      1  C   UNL     1       8.324  -1.805  23.486  0.00  0.00    +0.034 C 
ATOM      2  C   UNL     1       9.755  -2.200  23.524  0.00  0.00    +0.265 C 
ATOM      3  O   UNL     1      10.151  -3.282  23.923  0.00  0.00    -0.268 OA
ATOM      4  N   UNL     1      10.525  -1.170  23.037  0.00  0.00    -0.176 NA
ATOM      5  C   UNL     1       9.688  -0.240  22.728  0.00  0.00    +0.065 A 
ATOM      6  C   UNL     1       9.976   1.084  22.144  0.00  0.00    +0.029 A 
ATOM      7  C   UNL     1       8.945   1.910  21.890  0.00  0.00    +0.047 A 
ATOM      8  C   UNL     1       7.568   1.553  22.173  0.00  0.00    +0.118 A 
ATOM      9  C   UNL     1       7.240   0.367  22.706  0.00  0.00    +0.055 A 
ATOM     10  C   UNL     1       8.283  -0.567  22.993  0.00  0.00    +0.010 A 
ENDROOT
BRANCH   1  11
ATOM     11  C   UNL     1       7.248  -2.740  23.942  0.00  0.00    +0.068 C 
ATOM     12  C   UNL     1       5.974  -1.970  24.317  0.00  0.00    +0.019 C 
BRANCH  11  13
ATOM     13  C   UNL     1       6.954  -3.855  22.965  0.00  0.00    +0.023 A 
ATOM     14  N   UNL     1       7.608  -5.064  23.052  0.00  0.00    -0.364 N 
ATOM     15  H   UNL     1       8.301  -5.307  23.751  0.00  0.00    +0.165 HD
ATOM     16  C   UNL     1       7.183  -5.894  22.048  0.00  0.00    +0.083 A 
ATOM     17  C   UNL     1       6.243  -5.219  21.305  0.00  0.00    +0.019 A 
ATOM     18  C   UNL     1       6.088  -3.941  21.888  0.00  0.00    +0.023 A 
ENDBRANCH  11  13
ENDBRANCH   1  11
BRANCH   8  19
ATOM     19  O   UNL     1       6.653   2.523  21.852  0.00  0.00    -0.507 OA
ATOM     20  H   UNL     1       6.156   2.760  22.652  0.00  0.00    +0.292 HD
ENDBRANCH   8  19
TORSDOF 3
ENDMDL
MODEL 2
REMARK VINA RESULT:      -6.4      4.099      6.284
REMARK  Name = 
REMARK  4 active torsions:
REMARK  status: ('A' for Active; 'I' for Inactive)
REMARK    1  A    between atoms: C_2  and  C_3
REMARK    2  A    between atoms: C_2  and  C_4
REMARK    3  A    between atoms: C_2  and  C_9
REMARK    4  A    between atoms: C_12  and  O_13
REMARK                            x       y       z     vdW  Elec       q    Type
REMARK                         _______ _______ _______ _____ _____    ______ ____
ROOT
ATOM      1  C   UNL     1       9.251   3.489  23.532  0.00  0.00    +0.034 C 
ATOM      2  C   UNL     1       8.154   4.290  24.133  0.00  0.00    +0.265 C 
ATOM      3  O   UNL     1       6.998   3.911  24.209  0.00  0.00    -0.268 OA
ATOM      4  N   UNL     1       8.659   5.487  24.582  0.00  0.00    -0.176 NA
ATOM      5  C   UNL     1       9.916   5.450  24.302  0.00  0.00    +0.065 A 
ATOM      6  C   UNL     1      10.941   6.475  24.581  0.00  0.00    +0.029 A 
ATOM      7  C   UNL     1      12.210   6.231  24.207  0.00  0.00    +0.047 A 
ATOM      8  C   UNL     1      12.607   5.007  23.537  0.00  0.00    +0.118 A 
ATOM      9  C   UNL     1      11.724   4.038  23.253  0.00  0.00    +0.055 A 
ATOM     10  C   UNL     1      10.358   4.223  23.631  0.00  0.00    +0.010 A 
ENDROOT
BRANCH   1  11
ATOM     11  C   UNL     1       8.998   2.124  22.972  0.00  0.00    +0.068 C 
ATOM     12  C   UNL     1       9.964   1.814  21.820  0.00  0.00    +0.019 C 
BRANCH  11  13
ATOM     13  C   UNL     1       9.007   1.027  24.012  0.00  0.00    +0.023 A 
ATOM     14  N   UNL     1       7.890   0.250  24.232  0.00  0.00    -0.364 N 
ATOM     15  H   UNL     1       7.011   0.334  23.735  0.00  0.00    +0.165 HD
ATOM     16  C   UNL     1       8.144  -0.652  25.231  0.00  0.00    +0.083 A 
ATOM     17  C   UNL     1       9.436  -0.464  25.659  0.00  0.00    +0.019 A 
ATOM     18  C   UNL     1       9.985   0.583  24.885  0.00  0.00    +0.023 A 
ENDBRANCH  11  13
ENDBRANCH   1  11
BRANCH   8  19
ATOM     19  O   UNL     1      13.941   4.937  23.228  0.00  0.00    -0.507 OA
ATOM     20  H   UNL     1      14.457   5.139  24.026  0.00  0.00    +0.292 HD
ENDBRANCH   8  19
TORSDOF 3
ENDMDL
MODEL 3
REMARK VINA RESULT:      -6.3      3.109      6.042
REMARK  Name = 
REMARK  4 active torsions:
REMARK  status: ('A' for Active; 'I' for Inactive)
REMARK    1  A    between atoms: C_2  and  C_3
REMARK    2  A    between atoms: C_2  and  C_4
REMARK    3  A    between atoms: C_2  and  C_9
REMARK    4  A    between atoms: C_12  and  O_13
REMARK                            x       y       z     vdW  Elec       q    Type
REMARK                         _______ _______ _______ _____ _____    ______ ____
ROOT
ATOM      1  C   UNL     1       7.496  -5.004  25.698  0.00  0.00    +0.034 C 
ATOM      2  C   UNL     1       6.839  -5.742  26.805  0.00  0.00    +0.265 C 
ATOM      3  O   UNL     1       7.293  -5.822  27.933  0.00  0.00    -0.268 OA
ATOM      4  N   UNL     1       5.663  -6.292  26.350  0.00  0.00    -0.176 NA
ATOM      5  C   UNL     1       5.585  -5.945  25.112  0.00  0.00    +0.065 A 
ATOM      6  C   UNL     1       4.512  -6.254  24.147  0.00  0.00    +0.029 A 
ATOM      7  C   UNL     1       4.624  -5.784  22.892  0.00  0.00    +0.047 A 
ATOM      8  C   UNL     1       5.759  -4.995  22.449  0.00  0.00    +0.118 A 
ATOM      9  C   UNL     1       6.768  -4.682  23.276  0.00  0.00    +0.055 A 
ATOM     10  C   UNL     1       6.711  -5.139  24.629  0.00  0.00    +0.010 A 
ENDROOT
BRANCH   1  11
ATOM     11  C   UNL     1       8.792  -4.284  25.907  0.00  0.00    +0.068 C 
ATOM     12  C   UNL     1       9.980  -5.151  25.469  0.00  0.00    +0.019 C 
BRANCH  11  13
ATOM     13  C   UNL     1       8.840  -2.916  25.265  0.00  0.00    +0.023 A 
ATOM     14  N   UNL     1       9.678  -2.661  24.201  0.00  0.00    -0.364 N 
ATOM     15  H   UNL     1      10.296  -3.337  23.767  0.00  0.00    +0.165 HD
ATOM     16  C   UNL     1       9.552  -1.353  23.815  0.00  0.00    +0.083 A 
ATOM     17  C   UNL     1       8.624  -0.754  24.633  0.00  0.00    +0.019 A 
ATOM     18  C   UNL     1       8.165  -1.739  25.537  0.00  0.00    +0.023 A 
ENDBRANCH  11  13
ENDBRANCH   1  11
BRANCH   8  19
ATOM     19  O   UNL     1       5.703  -4.607  21.136  0.00  0.00    -0.507 OA
ATOM     20  H   UNL     1       6.226  -5.230  20.604  0.00  0.00    +0.292 HD
ENDBRANCH   8  19
TORSDOF 3
ENDMDL
MODEL 4
REMARK VINA RESULT:      -6.3      2.101      5.392
REMARK  Name = 
REMARK  4 active torsions:
REMARK  status: ('A' for Active; 'I' for Inactive)
REMARK    1  A    between atoms: C_2  and  C_3
REMARK    2  A    between atoms: C_2  and  C_4
REMARK    3  A    between atoms: C_2  and  C_9
REMARK    4  A    between atoms: C_12  and  O_13
REMARK                            x       y       z     vdW  Elec       q    Type
REMARK                         _______ _______ _______ _____ _____    ______ ____
ROOT
ATOM      1  C   UNL     1       7.708  -1.689  23.524  0.00  0.00    +0.034 C 
ATOM      2  C   UNL     1       8.607  -1.903  24.686  0.00  0.00    +0.265 C 
ATOM      3  O   UNL     1       9.054  -1.002  25.375  0.00  0.00    -0.268 OA
ATOM      4  N   UNL     1       8.830  -3.251  24.847  0.00  0.00    -0.176 NA
ATOM      5  C   UNL     1       8.156  -3.818  23.907  0.00  0.00    +0.065 A 
ATOM      6  C   UNL     1       8.027  -5.262  23.625  0.00  0.00    +0.029 A 
ATOM      7  C   UNL     1       7.260  -5.646  22.588  0.00  0.00    +0.047 A 
ATOM      8  C   UNL     1       6.564  -4.700  21.737  0.00  0.00    +0.118 A 
ATOM      9  C   UNL     1       6.642  -3.376  21.938  0.00  0.00    +0.055 A 
ATOM     10  C   UNL     1       7.430  -2.895  23.029  0.00  0.00    +0.010 A 
ENDROOT
BRANCH   1  11
ATOM     11  C   UNL     1       7.276  -0.314  23.120  0.00  0.00    +0.068 C 
ATOM     12  C   UNL     1       6.301   0.280  24.145  0.00  0.00    +0.019 C 
BRANCH  11  13
ATOM     13  C   UNL     1       8.424   0.628  22.839  0.00  0.00    +0.023 A 
ATOM     14  N   UNL     1       8.814   1.568  23.769  0.00  0.00    -0.364 N 
ATOM     15  H   UNL     1       8.395   1.696  24.683  0.00  0.00    +0.165 HD
ATOM     16  C   UNL     1       9.855   2.307  23.271  0.00  0.00    +0.083 A 
ATOM     17  C   UNL     1      10.146   1.842  22.011  0.00  0.00    +0.019 A 
ATOM     18  C   UNL     1       9.255   0.777  21.742  0.00  0.00    +0.023 A 
ENDBRANCH  11  13
ENDBRANCH   1  11
BRANCH   8  19
ATOM     19  O   UNL     1       5.835  -5.275  20.728  0.00  0.00    -0.507 OA
ATOM     20  H   UNL     1       5.355  -4.577  20.253  0.00  0.00    +0.292 HD
ENDBRANCH   8  19
TORSDOF 3
ENDMDL
MODEL 5
REMARK VINA RESULT:      -6.2      2.909      3.925
REMARK  Name = 
REMARK  4 active torsions:
REMARK  status: ('A' for Active; 'I' for Inactive)
REMARK    1  A    between atoms: C_2  and  C_3
REMARK    2  A    between atoms: C_2  and  C_4
REMARK    3  A    between atoms: C_2  and  C_9
REMARK    4  A    between atoms: C_12  and  O_13
REMARK                            x       y       z     vdW  Elec       q    Type
REMARK                         _______ _______ _______ _____ _____    ______ ____
ROOT
ATOM      1  C   UNL     1       8.221  -3.907  23.924  0.00  0.00    +0.034 C 
ATOM      2  C   UNL     1       7.524  -4.068  22.623  0.00  0.00    +0.265 C 
ATOM      3  O   UNL     1       7.102  -5.133  22.205  0.00  0.00    -0.268 OA
ATOM      4  N   UNL     1       7.434  -2.845  22.000  0.00  0.00    -0.176 NA
ATOM      5  C   UNL     1       8.001  -2.014  22.805  0.00  0.00    +0.065 A 
ATOM      6  C   UNL     1       8.169  -0.557  22.638  0.00  0.00    +0.029 A 
ATOM      7  C   UNL     1       8.791   0.132  23.611  0.00  0.00    +0.047 A 
ATOM      8  C   UNL     1       9.308  -0.500  24.811  0.00  0.00    +0.118 A 
ATOM      9  C   UNL     1       9.189  -1.820  25.022  0.00  0.00    +0.055 A 
ATOM     10  C   UNL     1       8.529  -2.615  24.035  0.00  0.00    +0.010 A 
ENDROOT
BRANCH   1  11
ATOM     11  C   UNL     1       8.449  -5.074  24.833  0.00  0.00    +0.068 C 
ATOM     12  C   UNL     1       9.887  -5.082  25.368  0.00  0.00    +0.019 C 
BRANCH  11  13
ATOM     13  C   UNL     1       7.440  -5.179  25.955  0.00  0.00    +0.023 A 
ATOM     14  N   UNL     1       7.771  -5.779  27.151  0.00  0.00    -0.364 N 
ATOM     15  H   UNL     1       8.677  -6.172  27.378  0.00  0.00    +0.165 HD
ATOM     16  C   UNL     1       6.688  -5.767  27.989  0.00  0.00    +0.083 A 
ATOM     17  C   UNL     1       5.647  -5.152  27.335  0.00  0.00    +0.019 A 
ATOM     18  C   UNL     1       6.122  -4.770  26.059  0.00  0.00    +0.023 A 
ENDBRANCH  11  13
ENDBRANCH   1  11
BRANCH   8  19
ATOM     19  O   UNL     1       9.914   0.360  25.689  0.00  0.00    -0.507 OA
ATOM     20  H   UNL     1      10.866   0.384  25.495  0.00  0.00    +0.292 HD
ENDBRANCH   8  19
TORSDOF 3
ENDMDL
MODEL 6
REMARK VINA RESULT:      -6.1      2.439      3.430
REMARK  Name = 
REMARK  4 active torsions:
REMARK  status: ('A' for Active; 'I' for Inactive)
REMARK    1  A    between atoms: C_2  and  C_3
REMARK    2  A    between atoms: C_2  and  C_4
REMARK    3  A    between atoms: C_2  and  C_9
REMARK    4  A    between atoms: C_12  and  O_13
REMARK                            x       y       z     vdW  Elec       q    Type
REMARK                         _______ _______ _______ _____ _____    ______ ____
ROOT
ATOM      1  C   UNL     1       7.405  -4.082  23.296  0.00  0.00    +0.034 C 
ATOM      2  C   UNL     1       7.573  -4.462  24.722  0.00  0.00    +0.265 C 
ATOM      3  O   UNL     1       7.017  -5.414  25.242  0.00  0.00    -0.268 OA
ATOM      4  N   UNL     1       8.445  -3.587  25.326  0.00  0.00    -0.176 NA
ATOM      5  C   UNL     1       8.786  -2.758  24.401  0.00  0.00    +0.065 A 
ATOM      6  C   UNL     1       9.720  -1.619  24.500  0.00  0.00    +0.029 A 
ATOM      7  C   UNL     1       9.944  -0.877  23.401  0.00  0.00    +0.047 A 
ATOM      8  C   UNL     1       9.301  -1.147  22.129  0.00  0.00    +0.118 A 
ATOM      9  C   UNL     1       8.441  -2.165  21.974  0.00  0.00    +0.055 A 
ATOM     10  C   UNL     1       8.162  -3.004  23.097  0.00  0.00    +0.010 A 
ENDROOT
BRANCH   1  11
ATOM     11  C   UNL     1       6.521  -4.871  22.381  0.00  0.00    +0.068 C 
ATOM     12  C   UNL     1       7.209  -6.170  21.938  0.00  0.00    +0.019 C 
BRANCH  11  13
ATOM     13  C   UNL     1       5.144  -5.139  22.944  0.00  0.00    +0.023 A 
ATOM     14  N   UNL     1       4.707  -6.428  23.165  0.00  0.00    -0.364 N 
ATOM     15  H   UNL     1       5.247  -7.267  22.991  0.00  0.00    +0.165 HD
ATOM     16  C   UNL     1       3.428  -6.405  23.655  0.00  0.00    +0.083 A 
ATOM     17  C   UNL     1       3.033  -5.092  23.757  0.00  0.00    +0.019 A 
ATOM     18  C   UNL     1       4.115  -4.294  23.321  0.00  0.00    +0.023 A 
ENDBRANCH  11  13
ENDBRANCH   1  11
BRANCH   8  19
ATOM     19  O   UNL     1       9.647  -0.282  21.123  0.00  0.00    -0.507 OA
ATOM     20  H   UNL     1       9.024   0.463  21.123  0.00  0.00    +0.292 HD
ENDBRANCH   8  19
TORSDOF 3
ENDMDL
MODEL 7
REMARK VINA RESULT:      -6.0      1.152      1.345
REMARK  Name = 
REMARK  4 active torsions:
REMARK  status: ('A' for Active; 'I' for Inactive)
REMARK    1  A    between atoms: C_2  and  C_3
REMARK    2  A    between atoms: C_2  and  C_4
REMARK    3  A    between atoms: C_2  and  C_9
REMARK    4  A    between atoms: C_12  and  O_13
REMARK                            x       y       z     vdW  Elec       q    Type
REMARK                         _______ _______ _______ _____ _____    ______ ____
ROOT
ATOM      1  C   UNL     1       8.382  -1.868  23.862  0.00  0.00    +0.034 C 
ATOM      2  C   UNL     1       9.769  -2.298  23.552  0.00  0.00    +0.265 C 
ATOM      3  O   UNL     1      10.270  -3.330  23.965  0.00  0.00    -0.268 OA
ATOM      4  N   UNL     1      10.363  -1.364  22.735  0.00  0.00    -0.176 NA
ATOM      5  C   UNL     1       9.466  -0.458  22.551  0.00  0.00    +0.065 A 
ATOM      6  C   UNL     1       9.568   0.770  21.738  0.00  0.00    +0.029 A 
ATOM      7  C   UNL     1       8.501   1.586  21.674  0.00  0.00    +0.047 A 
ATOM      8  C   UNL     1       7.262   1.311  22.376  0.00  0.00    +0.118 A 
ATOM      9  C   UNL     1       7.106   0.215  23.133  0.00  0.00    +0.055 A 
ATOM     10  C   UNL     1       8.195  -0.705  23.239  0.00  0.00    +0.010 A 
ENDROOT
BRANCH   1  11
ATOM     11  C   UNL     1       7.485  -2.702  24.722  0.00  0.00    +0.068 C 
ATOM     12  C   UNL     1       6.741  -1.834  25.746  0.00  0.00    +0.019 C 
BRANCH  11  13
ATOM     13  C   UNL     1       6.530  -3.575  23.939  0.00  0.00    +0.023 A 
ATOM     14  N   UNL     1       5.184  -3.282  23.886  0.00  0.00    -0.364 N 
ATOM     15  H   UNL     1       4.739  -2.489  24.333  0.00  0.00    +0.165 HD
ATOM     16  C   UNL     1       4.534  -4.227  23.137  0.00  0.00    +0.083 A 
ATOM     17  C   UNL     1       5.465  -5.139  22.698  0.00  0.00    +0.019 A 
ATOM     18  C   UNL     1       6.723  -4.723  23.191  0.00  0.00    +0.023 A 
ENDBRANCH  11  13
ENDBRANCH   1  11
BRANCH   8  19
ATOM     19  O   UNL     1       6.286   2.257  22.196  0.00  0.00    -0.507 OA
ATOM     20  H   UNL     1       6.457   3.001  22.798  0.00  0.00    +0.292 HD
ENDBRANCH   8  19
TORSDOF 3
ENDMDL
MODEL 8
REMARK VINA RESULT:      -6.0      2.442      6.164
REMARK  Name = 
REMARK  4 active torsions:
REMARK  status: ('A' for Active; 'I' for Inactive)
REMARK    1  A    between atoms: C_2  and  C_3
REMARK    2  A    between atoms: C_2  and  C_4
REMARK    3  A    between atoms: C_2  and  C_9
REMARK    4  A    between atoms: C_12  and  O_13
REMARK                            x       y       z     vdW  Elec       q    Type
REMARK                         _______ _______ _______ _____ _____    ______ ____
ROOT
ATOM      1  C   UNL     1       8.600  -1.744  23.570  0.00  0.00    +0.034 C 
ATOM      2  C   UNL     1       7.228  -1.179  23.617  0.00  0.00    +0.265 C 
ATOM      3  O   UNL     1       6.903  -0.137  23.075  0.00  0.00    -0.268 OA
ATOM      4  N   UNL     1       6.416  -2.016  24.346  0.00  0.00    -0.176 NA
ATOM      5  C   UNL     1       7.176  -2.989  24.713  0.00  0.00    +0.065 A 
ATOM      6  C   UNL     1       6.811  -4.179  25.507  0.00  0.00    +0.029 A 
ATOM      7  C   UNL     1       7.766  -5.087  25.776  0.00  0.00    +0.047 A 
ATOM      8  C   UNL     1       9.137  -4.939  25.324  0.00  0.00    +0.118 A 
ATOM      9  C   UNL     1       9.533  -3.881  24.601  0.00  0.00    +0.055 A 
ATOM     10  C   UNL     1       8.569  -2.880  24.268  0.00  0.00    +0.010 A 
ENDROOT
BRANCH   1  11
ATOM     11  C   UNL     1       9.700  -1.053  22.827  0.00  0.00    +0.068 C 
ATOM     12  C   UNL     1       9.518  -1.203  21.311  0.00  0.00    +0.019 C 
BRANCH  11  13
ATOM     13  C   UNL     1       9.886   0.395  23.221  0.00  0.00    +0.023 A 
ATOM     14  N   UNL     1       9.603   1.412  22.336  0.00  0.00    -0.364 N 
ATOM     15  H   UNL     1       9.250   1.288  21.394  0.00  0.00    +0.165 HD
ATOM     16  C   UNL     1       9.871   2.622  22.920  0.00  0.00    +0.083 A 
ATOM     17  C   UNL     1      10.329   2.389  24.195  0.00  0.00    +0.019 A 
ATOM     18  C   UNL     1      10.327   0.989  24.391  0.00  0.00    +0.023 A 
ENDBRANCH  11  13
ENDBRANCH   1  11
BRANCH   8  19
ATOM     19  O   UNL     1       9.970  -5.962  25.697  0.00  0.00    -0.507 OA
ATOM     20  H   UNL     1       9.470  -6.795  25.678  0.00  0.00    +0.292 HD
ENDBRANCH   8  19
TORSDOF 3
ENDMDL
MODEL 9
REMARK VINA RESULT:      -5.9      3.487      5.138
REMARK  Name = 
REMARK  4 active torsions:
REMARK  status: ('A' for Active; 'I' for Inactive)
REMARK    1  A    between atoms: C_2  and  C_3
REMARK    2  A    between atoms: C_2  and  C_4
REMARK    3  A    between atoms: C_2  and  C_9
REMARK    4  A    between atoms: C_12  and  O_13
REMARK                            x       y       z     vdW  Elec       q    Type
REMARK                         _______ _______ _______ _____ _____    ______ ____
ROOT
ATOM      1  C   UNL     1       9.904   2.216  23.884  0.00  0.00    +0.034 C 
ATOM      2  C   UNL     1       8.446   2.372  24.120  0.00  0.00    +0.265 C 
ATOM      3  O   UNL     1       7.683   1.439  24.302  0.00  0.00    -0.268 OA
ATOM      4  N   UNL     1       8.124   3.709  24.107  0.00  0.00    -0.176 NA
ATOM      5  C   UNL     1       9.236   4.322  23.892  0.00  0.00    +0.065 A 
ATOM      6  C   UNL     1       9.469   5.777  23.797  0.00  0.00    +0.029 A 
ATOM      7  C   UNL     1      10.722   6.212  23.572  0.00  0.00    +0.047 A 
ATOM      8  C   UNL     1      11.847   5.310  23.411  0.00  0.00    +0.118 A 
ATOM      9  C   UNL     1      11.702   3.978  23.484  0.00  0.00    +0.055 A 
ATOM     10  C   UNL     1      10.400   3.444  23.732  0.00  0.00    +0.010 A 
ENDROOT
BRANCH   1  11
ATOM     11  C   UNL     1      10.547   0.864  23.862  0.00  0.00    +0.068 C 
ATOM     12  C   UNL     1      10.711   0.310  25.284  0.00  0.00    +0.019 C 
BRANCH  11  13
ATOM     13  C   UNL     1       9.850  -0.128  22.959  0.00  0.00    +0.023 A 
ATOM     14  N   UNL     1       9.223  -1.240  23.479  0.00  0.00    -0.364 N 
ATOM     15  H   UNL     1       9.166  -1.474  24.463  0.00  0.00    +0.165 HD
ATOM     16  C   UNL     1       8.689  -1.987  22.462  0.00  0.00    +0.083 A 
ATOM     17  C   UNL     1       8.967  -1.354  21.274  0.00  0.00    +0.019 A 
ATOM     18  C   UNL     1       9.686  -0.177  21.586  0.00  0.00    +0.023 A 
ENDBRANCH  11  13
ENDBRANCH   1  11
BRANCH   8  19
ATOM     19  O   UNL     1      13.046   5.934  23.184  0.00  0.00    -0.507 OA
ATOM     20  H   UNL     1      13.064   6.767  23.683  0.00  0.00    +0.292 HD
ENDBRANCH   8  19
TORSDOF 3
ENDMDL
