MODEL 1
REMARK VINA RESULT:      -6.0      0.000      0.000
REMARK  Name = 
REMARK  17 active torsions:
REMARK  status: ('A' for Active; 'I' for Inactive)
REMARK    1  A    between atoms: C_2  and  C_3
REMARK    2  A    between atoms: C_2  and  C_24
REMARK    3  A    between atoms: C_2  and  C_27
REMARK    4  A    between atoms: C_3  and  P_4
REMARK    5  A    between atoms: P_4  and  O_5
REMARK    6  A    between atoms: P_4  and  C_7
REMARK    7  A    between atoms: C_7  and  N_9
REMARK    8  A    between atoms: C_7  and  C_21
REMARK    9  A    between atoms: N_9  and  S_10
REMARK   10  A    between atoms: S_10  and  C_13
REMARK   11  A    between atoms: C_13  and  C_14
REMARK   12  A    between atoms: C_14  and  C_15
REMARK   13  A    between atoms: C_21  and  C_22
REMARK   14  A    between atoms: C_21  and  C_23
REMARK   15  A    between atoms: C_24  and  O_25
REMARK   16  A    between atoms: C_31  and  C_32
REMARK   17  A    between atoms: C_32  and  N_33
REMARK                            x       y       z     vdW  Elec       q    Type
REMARK                         _______ _______ _______ _____ _____    ______ ____
ROOT
ATOM      1  P   UNL     1       5.911  -1.399  25.267  0.00  0.00    +0.221 P 
ATOM      2  O   UNL     1       7.320  -1.143  25.829  0.00  0.00    -0.289 OA
ENDROOT
BRANCH   1   3
ATOM      3  O   UNL     1       5.987  -1.383  23.617  0.00  0.00    -0.343 OA
ATOM      4  H   UNL     1       5.465  -0.669  23.195  0.00  0.00    +0.218 HD
ENDBRANCH   1   3
BRANCH   1   5
ATOM      5  C   UNL     1       5.557   0.395  25.215  0.00  0.00    +0.118 C 
BRANCH   5   6
ATOM      6  C   UNL     1       6.787   1.332  25.405  0.00  0.00    +0.137 C 
BRANCH   6   7
ATOM      7  C   UNL     1       7.020   2.314  24.263  0.00  0.00    -0.033 A 
ATOM      8  C   UNL     1       7.748   3.498  24.441  0.00  0.00    +0.009 A 
ATOM      9  C   UNL     1       7.805   4.466  23.426  0.00  0.00    -0.034 A 
ATOM     10  C   UNL     1       7.211   4.186  22.185  0.00  0.00    +0.005 A 
ATOM     11  C   UNL     1       6.558   2.978  21.969  0.00  0.00    +0.001 A 
ATOM     12  C   UNL     1       6.449   2.053  23.008  0.00  0.00    +0.004 A 
BRANCH   9  13
ATOM     13  C   UNL     1       8.314   5.845  23.750  0.00  0.00    +0.113 C 
BRANCH  13  14
ATOM     14  N   UNL     1       9.642   6.133  23.225  0.00  0.00    -0.326 NA
ATOM     15  H   UNL     1      10.115   5.252  23.039  0.00  0.00    +0.119 HD
ATOM     16  H   UNL     1       9.536   6.597  22.323  0.00  0.00    +0.119 HD
ENDBRANCH  13  14
ENDBRANCH   9  13
ENDBRANCH   6   7
BRANCH   6  17
ATOM     17  C   UNL     1       6.708   2.032  26.760  0.00  0.00    +0.313 C 
ATOM     18  O   UNL     1       5.925   2.923  27.050  0.00  0.00    -0.250 OA
BRANCH  17  19
ATOM     19  O   UNL     1       7.571   1.528  27.680  0.00  0.00    -0.480 OA
ATOM     20  H   UNL     1       7.318   0.605  27.941  0.00  0.00    +0.295 HD
ENDBRANCH  17  19
ENDBRANCH   6  17
ENDBRANCH   5   6
ENDBRANCH   1   5
BRANCH   1  21
ATOM     21  C   UNL     1       6.265  -3.194  25.320  0.00  0.00    +0.165 C 
BRANCH  21  22
ATOM     22  C   UNL     1       5.448  -4.054  26.357  0.00  0.00    +0.011 C 
ATOM     23  C   UNL     1       6.286  -4.527  27.555  0.00  0.00    +0.009 C 
ATOM     24  C   UNL     1       4.815  -5.307  25.729  0.00  0.00    +0.009 C 
ENDBRANCH  21  22
BRANCH  21  25
ATOM     25  N   UNL     1       7.750  -3.426  25.558  0.00  0.00    -0.182 NA
ATOM     26  H   UNL     1       7.830  -4.129  26.292  0.00  0.00    +0.149 HD
BRANCH  25  27
ATOM     27  S   UNL     1       8.545  -3.998  24.173  0.00  0.00    +0.030 S 
ATOM     28  O   UNL     1       7.541  -4.016  23.131  0.00  0.00    -0.158 OA
ATOM     29  O   UNL     1       9.236  -5.202  24.576  0.00  0.00    -0.158 OA
BRANCH  27  30
ATOM     30  C   UNL     1       9.739  -2.709  23.843  0.00  0.00    +0.189 C 
BRANCH  30  31
ATOM     31  C   UNL     1       9.290  -1.815  22.695  0.00  0.00    +0.059 C 
BRANCH  31  32
ATOM     32  C   UNL     1       9.767  -0.403  22.869  0.00  0.00    -0.046 A 
ATOM     33  C   UNL     1       9.641   0.518  21.819  0.00  0.00    +0.004 A 
ATOM     34  C   UNL     1      10.089   1.829  21.982  0.00  0.00    +0.000 A 
ATOM     35  C   UNL     1      10.660   2.225  23.193  0.00  0.00    +0.000 A 
ATOM     36  C   UNL     1      10.782   1.317  24.243  0.00  0.00    +0.000 A 
ATOM     37  C   UNL     1      10.334   0.008  24.083  0.00  0.00    +0.004 A 
ENDBRANCH  31  32
ENDBRANCH  30  31
ENDBRANCH  27  30
ENDBRANCH  25  27
ENDBRANCH  21  25
ENDBRANCH   1  21
TORSDOF 15
ENDMDL
MODEL 2
REMARK VINA RESULT:      -6.0      2.808      6.702
REMARK  Name = 
REMARK  17 active torsions:
REMARK  status: ('A' for Active; 'I' for Inactive)
REMARK    1  A    between atoms: C_2  and  C_3
REMARK    2  A    between atoms: C_2  and  C_24
REMARK    3  A    between atoms: C_2  and  C_27
REMARK    4  A    between atoms: C_3  and  P_4
REMARK    5  A    between atoms: P_4  and  O_5
REMARK    6  A    between atoms: P_4  and  C_7
REMARK    7  A    between atoms: C_7  and  N_9
REMARK    8  A    between atoms: C_7  and  C_21
REMARK    9  A    between atoms: N_9  and  S_10
REMARK   10  A    between atoms: S_10  and  C_13
REMARK   11  A    between atoms: C_13  and  C_14
REMARK   12  A    between atoms: C_14  and  C_15
REMARK   13  A    between atoms: C_21  and  C_22
REMARK   14  A    between atoms: C_21  and  C_23
REMARK   15  A    between atoms: C_24  and  O_25
REMARK   16  A    between atoms: C_31  and  C_32
REMARK   17  A    between atoms: C_32  and  N_33
REMARK                            x       y       z     vdW  Elec       q    Type
REMARK                         _______ _______ _______ _____ _____    ______ ____
ROOT
ATOM      1  P   UNL     1       7.832   0.644  26.019  0.00  0.00    +0.221 P 
ATOM      2  O   UNL     1       6.996   0.086  24.855  0.00  0.00    -0.289 OA
ENDROOT
BRANCH   1   3
ATOM      3  O   UNL     1       9.147  -0.330  26.243  0.00  0.00    -0.343 OA
ATOM      4  H   UNL     1       9.236  -0.689  27.151  0.00  0.00    +0.218 HD
ENDBRANCH   1   3
BRANCH   1   5
ATOM      5  C   UNL     1       6.927  -0.392  27.225  0.00  0.00    +0.118 C 
BRANCH   5   6
ATOM      6  C   UNL     1       5.888  -1.382  26.620  0.00  0.00    +0.137 C 
BRANCH   6   7
ATOM      7  C   UNL     1       6.351  -2.833  26.564  0.00  0.00    -0.033 A 
ATOM      8  C   UNL     1       7.706  -3.182  26.645  0.00  0.00    +0.009 A 
ATOM      9  C   UNL     1       8.123  -4.503  26.420  0.00  0.00    -0.034 A 
ATOM     10  C   UNL     1       7.152  -5.497  26.220  0.00  0.00    +0.005 A 
ATOM     11  C   UNL     1       5.799  -5.177  26.223  0.00  0.00    +0.001 A 
ATOM     12  C   UNL     1       5.401  -3.849  26.379  0.00  0.00    +0.004 A 
BRANCH   9  13
ATOM     13  C   UNL     1       9.583  -4.788  26.197  0.00  0.00    +0.113 C 
BRANCH  13  14
ATOM     14  N   UNL     1       9.847  -5.849  25.234  0.00  0.00    -0.326 NA
ATOM     15  H   UNL     1      10.769  -5.702  24.832  0.00  0.00    +0.119 HD
ATOM     16  H   UNL     1       9.893  -6.735  25.737  0.00  0.00    +0.119 HD
ENDBRANCH  13  14
ENDBRANCH   9  13
ENDBRANCH   6   7
BRANCH   6  17
ATOM     17  C   UNL     1       4.545  -1.232  27.331  0.00  0.00    +0.313 C 
ATOM     18  O   UNL     1       4.377  -1.278  28.540  0.00  0.00    -0.250 OA
BRANCH  17  19
ATOM     19  O   UNL     1       3.512  -0.975  26.487  0.00  0.00    -0.480 OA
ATOM     20  H   UNL     1       2.882  -1.742  26.448  0.00  0.00    +0.295 HD
ENDBRANCH  17  19
ENDBRANCH   6  17
ENDBRANCH   5   6
ENDBRANCH   1   5
BRANCH   1  21
ATOM     21  C   UNL     1       8.738   1.681  24.813  0.00  0.00    +0.165 C 
BRANCH  21  22
ATOM     22  C   UNL     1       8.522   3.239  24.904  0.00  0.00    +0.011 C 
ATOM     23  C   UNL     1       7.507   3.655  25.980  0.00  0.00    +0.009 C 
ATOM     24  C   UNL     1       8.049   3.856  23.577  0.00  0.00    +0.009 C 
ENDBRANCH  21  22
BRANCH  21  25
ATOM     25  N   UNL     1       8.421   1.227  23.395  0.00  0.00    -0.182 NA
ATOM     26  H   UNL     1       8.228   2.066  22.848  0.00  0.00    +0.149 HD
BRANCH  25  27
ATOM     27  S   UNL     1       9.716   0.401  22.676  0.00  0.00    +0.030 S 
ATOM     28  O   UNL     1      10.606   0.057  23.763  0.00  0.00    -0.158 OA
ATOM     29  O   UNL     1      10.155   1.225  21.573  0.00  0.00    -0.158 OA
BRANCH  27  30
ATOM     30  C   UNL     1       8.936  -1.077  22.041  0.00  0.00    +0.189 C 
BRANCH  30  31
ATOM     31  C   UNL     1       8.851  -2.163  23.104  0.00  0.00    +0.059 C 
BRANCH  31  32
ATOM     32  C   UNL     1       7.660  -3.052  22.901  0.00  0.00    -0.046 A 
ATOM     33  C   UNL     1       6.371  -2.504  22.855  0.00  0.00    +0.004 A 
ATOM     34  C   UNL     1       5.264  -3.334  22.670  0.00  0.00    +0.000 A 
ATOM     35  C   UNL     1       5.442  -4.711  22.526  0.00  0.00    +0.000 A 
ATOM     36  C   UNL     1       6.722  -5.262  22.562  0.00  0.00    +0.000 A 
ATOM     37  C   UNL     1       7.828  -4.435  22.746  0.00  0.00    +0.004 A 
ENDBRANCH  31  32
ENDBRANCH  30  31
ENDBRANCH  27  30
ENDBRANCH  25  27
ENDBRANCH  21  25
ENDBRANCH   1  21
TORSDOF 15
ENDMDL
MODEL 3
REMARK VINA RESULT:      -5.9      2.568      5.450
REMARK  Name = 
REMARK  17 active torsions:
REMARK  status: ('A' for Active; 'I' for Inactive)
REMARK    1  A    between atoms: C_2  and  C_3
REMARK    2  A    between atoms: C_2  and  C_24
REMARK    3  A    between atoms: C_2  and  C_27
REMARK    4  A    between atoms: C_3  and  P_4
REMARK    5  A    between atoms: P_4  and  O_5
REMARK    6  A    between atoms: P_4  and  C_7
REMARK    7  A    between atoms: C_7  and  N_9
REMARK    8  A    between atoms: C_7  and  C_21
REMARK    9  A    between atoms: N_9  and  S_10
REMARK   10  A    between atoms: S_10  and  C_13
REMARK   11  A    between atoms: C_13  and  C_14
REMARK   12  A    between atoms: C_14  and  C_15
REMARK   13  A    between atoms: C_21  and  C_22
REMARK   14  A    between atoms: C_21  and  C_23
REMARK   15  A    between atoms: C_24  and  O_25
REMARK   16  A    between atoms: C_31  and  C_32
REMARK   17  A    between atoms: C_32  and  N_33
REMARK                            x       y       z     vdW  Elec       q    Type
REMARK                         _______ _______ _______ _____ _____    ______ ____
ROOT
ATOM      1  P   UNL     1       9.286  -0.953  23.302  0.00  0.00    +0.221 P 
ATOM      2  O   UNL     1      10.201  -1.329  24.479  0.00  0.00    -0.289 OA
ENDROOT
BRANCH   1   3
ATOM      3  O   UNL     1      10.054  -1.333  21.890  0.00  0.00    -0.343 OA
ATOM      4  H   UNL     1      10.608  -2.141  21.935  0.00  0.00    +0.218 HD
ENDBRANCH   1   3
BRANCH   1   5
ATOM      5  C   UNL     1      10.031   0.714  23.195  0.00  0.00    +0.118 C 
BRANCH   5   6
ATOM      6  C   UNL     1       9.026   1.904  23.200  0.00  0.00    +0.137 C 
BRANCH   6   7
ATOM      7  C   UNL     1       9.668   3.276  23.364  0.00  0.00    -0.033 A 
ATOM      8  C   UNL     1      11.023   3.499  23.086  0.00  0.00    +0.009 A 
ATOM      9  C   UNL     1      11.632   4.722  23.406  0.00  0.00    -0.034 A 
ATOM     10  C   UNL     1      10.838   5.764  23.911  0.00  0.00    +0.005 A 
ATOM     11  C   UNL     1       9.474   5.584  24.112  0.00  0.00    +0.001 A 
ATOM     12  C   UNL     1       8.895   4.340  23.854  0.00  0.00    +0.004 A 
BRANCH   9  13
ATOM     13  C   UNL     1      13.133   4.824  23.396  0.00  0.00    +0.113 C 
BRANCH  13  14
ATOM     14  N   UNL     1      13.673   5.615  22.298  0.00  0.00    -0.326 NA
ATOM     15  H   UNL     1      12.969   6.287  22.005  0.00  0.00    +0.119 HD
ATOM     16  H   UNL     1      14.459   6.160  22.651  0.00  0.00    +0.119 HD
ENDBRANCH  13  14
ENDBRANCH   9  13
ENDBRANCH   6   7
BRANCH   6  17
ATOM     17  C   UNL     1       8.124   1.833  21.970  0.00  0.00    +0.313 C 
ATOM     18  O   UNL     1       6.943   2.146  21.941  0.00  0.00    -0.250 OA
BRANCH  17  19
ATOM     19  O   UNL     1       8.772   1.435  20.845  0.00  0.00    -0.480 OA
ATOM     20  H   UNL     1       8.133   1.257  20.107  0.00  0.00    +0.295 HD
ENDBRANCH  17  19
ENDBRANCH   6  17
ENDBRANCH   5   6
ENDBRANCH   1   5
BRANCH   1  21
ATOM     21  C   UNL     1       8.540  -2.622  23.408  0.00  0.00    +0.165 C 
BRANCH  21  22
ATOM     22  C   UNL     1       7.420  -2.974  22.356  0.00  0.00    +0.011 C 
ATOM     23  C   UNL     1       6.024  -2.476  22.759  0.00  0.00    +0.009 C 
ATOM     24  C   UNL     1       7.301  -4.484  22.092  0.00  0.00    +0.009 C 
ENDBRANCH  21  22
BRANCH  21  25
ATOM     25  N   UNL     1       7.986  -2.856  24.806  0.00  0.00    -0.182 NA
ATOM     26  H   UNL     1       6.985  -3.029  24.707  0.00  0.00    +0.149 HD
BRANCH  25  27
ATOM     27  S   UNL     1       8.692  -4.198  25.565  0.00  0.00    +0.030 S 
ATOM     28  O   UNL     1       9.020  -3.758  26.903  0.00  0.00    -0.158 OA
ATOM     29  O   UNL     1       9.709  -4.682  24.658  0.00  0.00    -0.158 OA
BRANCH  27  30
ATOM     30  C   UNL     1       7.345  -5.371  25.625  0.00  0.00    +0.189 C 
BRANCH  30  31
ATOM     31  C   UNL     1       6.072  -4.730  26.161  0.00  0.00    +0.059 C 
BRANCH  31  32
ATOM     32  C   UNL     1       4.916  -4.913  25.222  0.00  0.00    -0.046 A 
ATOM     33  C   UNL     1       4.954  -5.918  24.245  0.00  0.00    +0.004 A 
ATOM     34  C   UNL     1       3.879  -6.084  23.371  0.00  0.00    +0.000 A 
ATOM     35  C   UNL     1       2.763  -5.250  23.472  0.00  0.00    +0.000 A 
ATOM     36  C   UNL     1       2.716  -4.254  24.445  0.00  0.00    +0.000 A 
ATOM     37  C   UNL     1       3.787  -4.087  25.320  0.00  0.00    +0.004 A 
ENDBRANCH  31  32
ENDBRANCH  30  31
ENDBRANCH  27  30
ENDBRANCH  25  27
ENDBRANCH  21  25
ENDBRANCH   1  21
TORSDOF 15
ENDMDL
MODEL 4
REMARK VINA RESULT:      -5.9      2.850      5.124
REMARK  Name = 
REMARK  17 active torsions:
REMARK  status: ('A' for Active; 'I' for Inactive)
REMARK    1  A    between atoms: C_2  and  C_3
REMARK    2  A    between atoms: C_2  and  C_24
REMARK    3  A    between atoms: C_2  and  C_27
REMARK    4  A    between atoms: C_3  and  P_4
REMARK    5  A    between atoms: P_4  and  O_5
REMARK    6  A    between atoms: P_4  and  C_7
REMARK    7  A    between atoms: C_7  and  N_9
REMARK    8  A    between atoms: C_7  and  C_21
REMARK    9  A    between atoms: N_9  and  S_10
REMARK   10  A    between atoms: S_10  and  C_13
REMARK   11  A    between atoms: C_13  and  C_14
REMARK   12  A    between atoms: C_14  and  C_15
REMARK   13  A    between atoms: C_21  and  C_22
REMARK   14  A    between atoms: C_21  and  C_23
REMARK   15  A    between atoms: C_24  and  O_25
REMARK   16  A    between atoms: C_31  and  C_32
REMARK   17  A    between atoms: C_32  and  N_33
REMARK                            x       y       z     vdW  Elec       q    Type
REMARK                         _______ _______ _______ _____ _____    ______ ____
ROOT
ATOM      1  P   UNL     1       8.437   1.349  23.532  0.00  0.00    +0.221 P 
ATOM      2  O   UNL     1       9.925   1.342  23.919  0.00  0.00    -0.289 OA
ENDROOT
BRANCH   1   3
ATOM      3  O   UNL     1       8.274   0.658  22.041  0.00  0.00    -0.343 OA
ATOM      4  H   UNL     1       9.119   0.386  21.625  0.00  0.00    +0.218 HD
ENDBRANCH   1   3
BRANCH   1   5
ATOM      5  C   UNL     1       8.614   2.970  22.702  0.00  0.00    +0.118 C 
BRANCH   5   6
ATOM      6  C   UNL     1       8.351   4.218  23.596  0.00  0.00    +0.137 C 
BRANCH   6   7
ATOM      7  C   UNL     1       9.588   5.055  23.897  0.00  0.00    -0.033 A 
ATOM      8  C   UNL     1      10.804   4.846  23.233  0.00  0.00    +0.009 A 
ATOM      9  C   UNL     1      11.971   5.508  23.645  0.00  0.00    -0.034 A 
ATOM     10  C   UNL     1      11.884   6.469  24.664  0.00  0.00    +0.005 A 
ATOM     11  C   UNL     1      10.665   6.748  25.273  0.00  0.00    +0.001 A 
ATOM     12  C   UNL     1       9.526   6.033  24.902  0.00  0.00    +0.004 A 
BRANCH   9  13
ATOM     13  C   UNL     1      13.306   5.035  23.136  0.00  0.00    +0.113 C 
BRANCH  13  14
ATOM     14  N   UNL     1      13.953   5.953  22.207  0.00  0.00    -0.326 NA
ATOM     15  H   UNL     1      13.311   6.713  22.002  0.00  0.00    +0.119 HD
ATOM     16  H   UNL     1      14.754   6.374  22.678  0.00  0.00    +0.119 HD
ENDBRANCH  13  14
ENDBRANCH   9  13
ENDBRANCH   6   7
BRANCH   6  17
ATOM     17  C   UNL     1       7.217   5.055  23.007  0.00  0.00    +0.313 C 
ATOM     18  O   UNL     1       6.215   5.409  23.609  0.00  0.00    -0.250 OA
BRANCH  17  19
ATOM     19  O   UNL     1       7.442   5.446  21.726  0.00  0.00    -0.480 OA
ATOM     20  H   UNL     1       8.405   5.377  21.494  0.00  0.00    +0.295 HD
ENDBRANCH  17  19
ENDBRANCH   6  17
ENDBRANCH   5   6
ENDBRANCH   1   5
BRANCH   1  21
ATOM     21  C   UNL     1       8.260  -0.273  24.362  0.00  0.00    +0.165 C 
BRANCH  21  22
ATOM     22  C   UNL     1       7.624  -0.273  25.804  0.00  0.00    +0.011 C 
ATOM     23  C   UNL     1       7.428   1.134  26.387  0.00  0.00    +0.009 C 
ATOM     24  C   UNL     1       8.454  -1.071  26.823  0.00  0.00    +0.009 C 
ENDBRANCH  21  22
BRANCH  21  25
ATOM     25  N   UNL     1       9.608  -0.976  24.424  0.00  0.00    -0.182 NA
ATOM     26  H   UNL     1       9.715  -1.337  25.372  0.00  0.00    +0.149 HD
BRANCH  25  27
ATOM     27  S   UNL     1       9.710  -2.276  23.338  0.00  0.00    +0.030 S 
ATOM     28  O   UNL     1      10.350  -3.345  24.074  0.00  0.00    -0.158 OA
ATOM     29  O   UNL     1      10.288  -1.741  22.126  0.00  0.00    -0.158 OA
BRANCH  27  30
ATOM     30  C   UNL     1       7.993  -2.681  23.049  0.00  0.00    +0.189 C 
BRANCH  30  31
ATOM     31  C   UNL     1       7.685  -4.118  23.449  0.00  0.00    +0.059 C 
BRANCH  31  32
ATOM     32  C   UNL     1       7.143  -4.205  24.845  0.00  0.00    -0.046 A 
ATOM     33  C   UNL     1       5.983  -3.501  25.196  0.00  0.00    +0.004 A 
ATOM     34  C   UNL     1       5.483  -3.581  26.497  0.00  0.00    +0.000 A 
ATOM     35  C   UNL     1       6.138  -4.366  27.448  0.00  0.00    +0.000 A 
ATOM     36  C   UNL     1       7.287  -5.074  27.104  0.00  0.00    +0.000 A 
ATOM     37  C   UNL     1       7.787  -4.997  25.806  0.00  0.00    +0.004 A 
ENDBRANCH  31  32
ENDBRANCH  30  31
ENDBRANCH  27  30
ENDBRANCH  25  27
ENDBRANCH  21  25
ENDBRANCH   1  21
TORSDOF 15
ENDMDL
MODEL 5
REMARK VINA RESULT:      -5.8      2.659      6.761
REMARK  Name = 
REMARK  17 active torsions:
REMARK  status: ('A' for Active; 'I' for Inactive)
REMARK    1  A    between atoms: C_2  and  C_3
REMARK    2  A    between atoms: C_2  and  C_24
REMARK    3  A    between atoms: C_2  and  C_27
REMARK    4  A    between atoms: C_3  and  P_4
REMARK    5  A    between atoms: P_4  and  O_5
REMARK    6  A    between atoms: P_4  and  C_7
REMARK    7  A    between atoms: C_7  and  N_9
REMARK    8  A    between atoms: C_7  and  C_21
REMARK    9  A    between atoms: N_9  and  S_10
REMARK   10  A    between atoms: S_10  and  C_13
REMARK   11  A    between atoms: C_13  and  C_14
REMARK   12  A    between atoms: C_14  and  C_15
REMARK   13  A    between atoms: C_21  and  C_22
REMARK   14  A    between atoms: C_21  and  C_23
REMARK   15  A    between atoms: C_24  and  O_25
REMARK   16  A    between atoms: C_31  and  C_32
REMARK   17  A    between atoms: C_32  and  N_33
REMARK                            x       y       z     vdW  Elec       q    Type
REMARK                         _______ _______ _______ _____ _____    ______ ____
ROOT
ATOM      1  P   UNL     1       6.533  -1.101  24.088  0.00  0.00    +0.221 P 
ATOM      2  O   UNL     1       5.233  -1.289  24.889  0.00  0.00    -0.289 OA
ENDROOT
BRANCH   1   3
ATOM      3  O   UNL     1       6.263   0.003  22.890  0.00  0.00    -0.343 OA
ATOM      4  H   UNL     1       5.571  -0.258  22.247  0.00  0.00    +0.218 HD
ENDBRANCH   1   3
BRANCH   1   5
ATOM      5  C   UNL     1       6.051  -2.416  22.911  0.00  0.00    +0.118 C 
BRANCH   5   6
ATOM      6  C   UNL     1       7.040  -3.613  22.794  0.00  0.00    +0.137 C 
BRANCH   6   7
ATOM      7  C   UNL     1       7.513  -4.178  24.128  0.00  0.00    -0.033 A 
ATOM      8  C   UNL     1       6.626  -4.760  25.043  0.00  0.00    +0.009 A 
ATOM      9  C   UNL     1       7.053  -5.117  26.332  0.00  0.00    -0.034 A 
ATOM     10  C   UNL     1       8.412  -4.983  26.658  0.00  0.00    +0.005 A 
ATOM     11  C   UNL     1       9.319  -4.486  25.728  0.00  0.00    +0.001 A 
ATOM     12  C   UNL     1       8.869  -4.071  24.475  0.00  0.00    +0.004 A 
BRANCH   9  13
ATOM     13  C   UNL     1       6.029  -5.435  27.387  0.00  0.00    +0.113 C 
BRANCH  13  14
ATOM     14  N   UNL     1       6.586  -5.668  28.713  0.00  0.00    -0.326 NA
ATOM     15  H   UNL     1       7.558  -5.371  28.713  0.00  0.00    +0.119 HD
ATOM     16  H   UNL     1       6.102  -5.062  29.375  0.00  0.00    +0.119 HD
ENDBRANCH  13  14
ENDBRANCH   9  13
ENDBRANCH   6   7
BRANCH   6  17
ATOM     17  C   UNL     1       6.452  -4.692  21.887  0.00  0.00    +0.313 C 
ATOM     18  O   UNL     1       5.300  -4.723  21.481  0.00  0.00    -0.250 OA
BRANCH  17  19
ATOM     19  O   UNL     1       7.359  -5.627  21.499  0.00  0.00    -0.480 OA
ATOM     20  H   UNL     1       8.264  -5.411  21.844  0.00  0.00    +0.295 HD
ENDBRANCH  17  19
ENDBRANCH   6  17
ENDBRANCH   5   6
ENDBRANCH   1   5
BRANCH   1  21
ATOM     21  C   UNL     1       7.016   0.214  25.266  0.00  0.00    +0.165 C 
BRANCH  21  22
ATOM     22  C   UNL     1       7.191  -0.206  26.775  0.00  0.00    +0.011 C 
ATOM     23  C   UNL     1       6.984   0.954  27.761  0.00  0.00    +0.009 C 
ATOM     24  C   UNL     1       8.575  -0.806  27.072  0.00  0.00    +0.009 C 
ENDBRANCH  21  22
BRANCH  21  25
ATOM     25  N   UNL     1       6.025   1.368  25.194  0.00  0.00    -0.182 NA
ATOM     26  H   UNL     1       5.703   1.546  26.145  0.00  0.00    +0.149 HD
BRANCH  25  27
ATOM     27  S   UNL     1       6.729   2.786  24.586  0.00  0.00    +0.030 S 
ATOM     28  O   UNL     1       6.207   3.858  25.406  0.00  0.00    -0.158 OA
ATOM     29  O   UNL     1       6.518   2.758  23.156  0.00  0.00    -0.158 OA
BRANCH  27  30
ATOM     30  C   UNL     1       8.465   2.545  24.935  0.00  0.00    +0.189 C 
BRANCH  30  31
ATOM     31  C   UNL     1       9.303   2.607  23.665  0.00  0.00    +0.059 C 
BRANCH  31  32
ATOM     32  C   UNL     1       9.593   1.240  23.121  0.00  0.00    -0.046 A 
ATOM     33  C   UNL     1       9.242   0.917  21.802  0.00  0.00    +0.004 A 
ATOM     34  C   UNL     1       9.509  -0.357  21.300  0.00  0.00    +0.000 A 
ATOM     35  C   UNL     1      10.132  -1.310  22.109  0.00  0.00    +0.000 A 
ATOM     36  C   UNL     1      10.490  -0.993  23.418  0.00  0.00    +0.000 A 
ATOM     37  C   UNL     1      10.225   0.279  23.922  0.00  0.00    +0.004 A 
ENDBRANCH  31  32
ENDBRANCH  30  31
ENDBRANCH  27  30
ENDBRANCH  25  27
ENDBRANCH  21  25
ENDBRANCH   1  21
TORSDOF 15
ENDMDL
MODEL 6
REMARK VINA RESULT:      -5.8      2.503      5.066
REMARK  Name = 
REMARK  17 active torsions:
REMARK  status: ('A' for Active; 'I' for Inactive)
REMARK    1  A    between atoms: C_2  and  C_3
REMARK    2  A    between atoms: C_2  and  C_24
REMARK    3  A    between atoms: C_2  and  C_27
REMARK    4  A    between atoms: C_3  and  P_4
REMARK    5  A    between atoms: P_4  and  O_5
REMARK    6  A    between atoms: P_4  and  C_7
REMARK    7  A    between atoms: C_7  and  N_9
REMARK    8  A    between atoms: C_7  and  C_21
REMARK    9  A    between atoms: N_9  and  S_10
REMARK   10  A    between atoms: S_10  and  C_13
REMARK   11  A    between atoms: C_13  and  C_14
REMARK   12  A    between atoms: C_14  and  C_15
REMARK   13  A    between atoms: C_21  and  C_22
REMARK   14  A    between atoms: C_21  and  C_23
REMARK   15  A    between atoms: C_24  and  O_25
REMARK   16  A    between atoms: C_31  and  C_32
REMARK   17  A    between atoms: C_32  and  N_33
REMARK                            x       y       z     vdW  Elec       q    Type
REMARK                         _______ _______ _______ _____ _____    ______ ____
ROOT
ATOM      1  P   UNL     1       8.115  -0.482  22.968  0.00  0.00    +0.221 P 
ATOM      2  O   UNL     1       8.669  -1.143  21.694  0.00  0.00    -0.289 OA
ENDROOT
BRANCH   1   3
ATOM      3  O   UNL     1       6.631   0.160  22.630  0.00  0.00    -0.343 OA
ATOM      4  H   UNL     1       6.606   0.719  21.825  0.00  0.00    +0.218 HD
ENDBRANCH   1   3
BRANCH   1   5
ATOM      5  C   UNL     1       8.856   1.126  22.511  0.00  0.00    +0.118 C 
BRANCH   5   6
ATOM      6  C   UNL     1       9.875   1.715  23.531  0.00  0.00    +0.137 C 
BRANCH   6   7
ATOM      7  C   UNL     1      10.026   3.230  23.476  0.00  0.00    -0.033 A 
ATOM      8  C   UNL     1      11.280   3.847  23.379  0.00  0.00    +0.009 A 
ATOM      9  C   UNL     1      11.408   5.240  23.502  0.00  0.00    -0.034 A 
ATOM     10  C   UNL     1      10.247   6.021  23.615  0.00  0.00    +0.005 A 
ATOM     11  C   UNL     1       8.990   5.427  23.627  0.00  0.00    +0.001 A 
ATOM     12  C   UNL     1       8.881   4.037  23.573  0.00  0.00    +0.004 A 
BRANCH   9  13
ATOM     13  C   UNL     1      12.772   5.839  23.714  0.00  0.00    +0.113 C 
BRANCH  13  14
ATOM     14  N   UNL     1      13.863   5.068  23.132  0.00  0.00    -0.326 NA
ATOM     15  H   UNL     1      14.567   4.911  23.848  0.00  0.00    +0.119 HD
ATOM     16  H   UNL     1      13.504   4.148  22.877  0.00  0.00    +0.119 HD
ENDBRANCH  13  14
ENDBRANCH   9  13
ENDBRANCH   6   7
BRANCH   6  17
ATOM     17  C   UNL     1       9.554   1.218  24.939  0.00  0.00    +0.313 C 
ATOM     18  O   UNL     1       8.513   1.431  25.542  0.00  0.00    -0.250 OA
BRANCH  17  19
ATOM     19  O   UNL     1      10.529   0.438  25.473  0.00  0.00    -0.480 OA
ATOM     20  H   UNL     1      10.863  -0.222  24.811  0.00  0.00    +0.295 HD
ENDBRANCH  17  19
ENDBRANCH   6  17
ENDBRANCH   5   6
ENDBRANCH   1   5
BRANCH   1  21
ATOM     21  C   UNL     1       7.373  -2.092  23.426  0.00  0.00    +0.165 C 
BRANCH  21  22
ATOM     22  C   UNL     1       7.996  -2.841  24.665  0.00  0.00    +0.011 C 
ATOM     23  C   UNL     1       7.911  -2.038  25.971  0.00  0.00    +0.009 C 
ATOM     24  C   UNL     1       9.474  -3.210  24.459  0.00  0.00    +0.009 C 
ENDBRANCH  21  22
BRANCH  21  25
ATOM     25  N   UNL     1       7.390  -3.033  22.229  0.00  0.00    -0.182 NA
ATOM     26  H   UNL     1       8.168  -3.677  22.366  0.00  0.00    +0.149 HD
BRANCH  25  27
ATOM     27  S   UNL     1       5.960  -3.934  22.095  0.00  0.00    +0.030 S 
ATOM     28  O   UNL     1       5.809  -4.213  20.684  0.00  0.00    -0.158 OA
ATOM     29  O   UNL     1       4.955  -3.204  22.833  0.00  0.00    -0.158 OA
BRANCH  27  30
ATOM     30  C   UNL     1       6.361  -5.440  22.971  0.00  0.00    +0.189 C 
BRANCH  30  31
ATOM     31  C   UNL     1       5.228  -5.867  23.894  0.00  0.00    +0.059 C 
BRANCH  31  32
ATOM     32  C   UNL     1       5.471  -5.436  25.311  0.00  0.00    -0.046 A 
ATOM     33  C   UNL     1       6.680  -5.750  25.946  0.00  0.00    +0.004 A 
ATOM     34  C   UNL     1       6.901  -5.352  27.266  0.00  0.00    +0.000 A 
ATOM     35  C   UNL     1       5.917  -4.636  27.952  0.00  0.00    +0.000 A 
ATOM     36  C   UNL     1       4.716  -4.315  27.323  0.00  0.00    +0.000 A 
ATOM     37  C   UNL     1       4.494  -4.710  26.006  0.00  0.00    +0.004 A 
ENDBRANCH  31  32
ENDBRANCH  30  31
ENDBRANCH  27  30
ENDBRANCH  25  27
ENDBRANCH  21  25
ENDBRANCH   1  21
TORSDOF 15
ENDMDL
MODEL 7
REMARK VINA RESULT:      -5.7      2.580      5.011
REMARK  Name = 
REMARK  17 active torsions:
REMARK  status: ('A' for Active; 'I' for Inactive)
REMARK    1  A    between atoms: C_2  and  C_3
REMARK    2  A    between atoms: C_2  and  C_24
REMARK    3  A    between atoms: C_2  and  C_27
REMARK    4  A    between atoms: C_3  and  P_4
REMARK    5  A    between atoms: P_4  and  O_5
REMARK    6  A    between atoms: P_4  and  C_7
REMARK    7  A    between atoms: C_7  and  N_9
REMARK    8  A    between atoms: C_7  and  C_21
REMARK    9  A    between atoms: N_9  and  S_10
REMARK   10  A    between atoms: S_10  and  C_13
REMARK   11  A    between atoms: C_13  and  C_14
REMARK   12  A    between atoms: C_14  and  C_15
REMARK   13  A    between atoms: C_21  and  C_22
REMARK   14  A    between atoms: C_21  and  C_23
REMARK   15  A    between atoms: C_24  and  O_25
REMARK   16  A    between atoms: C_31  and  C_32
REMARK   17  A    between atoms: C_32  and  N_33
REMARK                            x       y       z     vdW  Elec       q    Type
REMARK                         _______ _______ _______ _____ _____    ______ ____
ROOT
ATOM      1  P   UNL     1       8.690   0.199  24.434  0.00  0.00    +0.221 P 
ATOM      2  O   UNL     1       9.602  -0.205  25.605  0.00  0.00    -0.289 OA
ENDROOT
BRANCH   1   3
ATOM      3  O   UNL     1       9.360  -0.348  23.027  0.00  0.00    -0.343 OA
ATOM      4  H   UNL     1       9.347   0.301  22.293  0.00  0.00    +0.218 HD
ENDBRANCH   1   3
BRANCH   1   5
ATOM      5  C   UNL     1       9.608   1.764  24.199  0.00  0.00    +0.118 C 
BRANCH   5   6
ATOM      6  C   UNL     1       8.740   3.012  23.861  0.00  0.00    +0.137 C 
BRANCH   6   7
ATOM      7  C   UNL     1       9.379   4.347  24.223  0.00  0.00    -0.033 A 
ATOM      8  C   UNL     1      10.605   4.754  23.680  0.00  0.00    +0.009 A 
ATOM      9  C   UNL     1      11.256   5.903  24.155  0.00  0.00    -0.034 A 
ATOM     10  C   UNL     1      10.610   6.704  25.110  0.00  0.00    +0.005 A 
ATOM     11  C   UNL     1       9.355   6.356  25.596  0.00  0.00    +0.001 A 
ATOM     12  C   UNL     1       8.749   5.175  25.166  0.00  0.00    +0.004 A 
BRANCH   9  13
ATOM     13  C   UNL     1      12.697   6.138  23.790  0.00  0.00    +0.113 C 
BRANCH  13  14
ATOM     14  N   UNL     1      13.427   4.932  23.423  0.00  0.00    -0.326 NA
ATOM     15  H   UNL     1      14.398   5.179  23.252  0.00  0.00    +0.119 HD
ATOM     16  H   UNL     1      13.430   4.303  24.226  0.00  0.00    +0.119 HD
ENDBRANCH  13  14
ENDBRANCH   9  13
ENDBRANCH   6   7
BRANCH   6  17
ATOM     17  C   UNL     1       8.296   2.962  22.400  0.00  0.00    +0.313 C 
ATOM     18  O   UNL     1       7.264   3.445  21.959  0.00  0.00    -0.250 OA
BRANCH  17  19
ATOM     19  O   UNL     1       9.201   2.367  21.580  0.00  0.00    -0.480 OA
ATOM     20  H   UNL     1       9.732   1.685  22.068  0.00  0.00    +0.295 HD
ENDBRANCH  17  19
ENDBRANCH   6  17
ENDBRANCH   5   6
ENDBRANCH   1   5
BRANCH   1  21
ATOM     21  C   UNL     1       7.771  -1.367  24.669  0.00  0.00    +0.165 C 
BRANCH  21  22
ATOM     22  C   UNL     1       6.347  -1.268  25.336  0.00  0.00    +0.011 C 
ATOM     23  C   UNL     1       5.820   0.171  25.442  0.00  0.00    +0.009 C 
ATOM     24  C   UNL     1       6.306  -1.868  26.751  0.00  0.00    +0.009 C 
ENDBRANCH  21  22
BRANCH  21  25
ATOM     25  N   UNL     1       8.615  -2.351  25.466  0.00  0.00    -0.182 NA
ATOM     26  H   UNL     1       8.008  -2.760  26.177  0.00  0.00    +0.149 HD
BRANCH  25  27
ATOM     27  S   UNL     1       9.234  -3.602  24.502  0.00  0.00    +0.030 S 
ATOM     28  O   UNL     1       9.396  -4.732  25.391  0.00  0.00    -0.158 OA
ATOM     29  O   UNL     1      10.355  -3.038  23.785  0.00  0.00    -0.158 OA
BRANCH  27  30
ATOM     30  C   UNL     1       7.895  -3.916  23.359  0.00  0.00    +0.189 C 
BRANCH  30  31
ATOM     31  C   UNL     1       7.148  -5.194  23.715  0.00  0.00    +0.059 C 
BRANCH  31  32
ATOM     32  C   UNL     1       5.875  -4.908  24.455  0.00  0.00    -0.046 A 
ATOM     33  C   UNL     1       4.872  -4.131  23.859  0.00  0.00    +0.004 A 
ATOM     34  C   UNL     1       3.690  -3.863  24.552  0.00  0.00    +0.000 A 
ATOM     35  C   UNL     1       3.505  -4.374  25.838  0.00  0.00    +0.000 A 
ATOM     36  C   UNL     1       4.495  -5.154  26.433  0.00  0.00    +0.000 A 
ATOM     37  C   UNL     1       5.675  -5.423  25.743  0.00  0.00    +0.004 A 
ENDBRANCH  31  32
ENDBRANCH  30  31
ENDBRANCH  27  30
ENDBRANCH  25  27
ENDBRANCH  21  25
ENDBRANCH   1  21
TORSDOF 15
ENDMDL
MODEL 8
REMARK VINA RESULT:      -5.6      2.704      7.477
REMARK  Name = 
REMARK  17 active torsions:
REMARK  status: ('A' for Active; 'I' for Inactive)
REMARK    1  A    between atoms: C_2  and  C_3
REMARK    2  A    between atoms: C_2  and  C_24
REMARK    3  A    between atoms: C_2  and  C_27
REMARK    4  A    between atoms: C_3  and  P_4
REMARK    5  A    between atoms: P_4  and  O_5
REMARK    6  A    between atoms: P_4  and  C_7
REMARK    7  A    between atoms: C_7  and  N_9
REMARK    8  A    between atoms: C_7  and  C_21
REMARK    9  A    between atoms: N_9  and  S_10
REMARK   10  A    between atoms: S_10  and  C_13
REMARK   11  A    between atoms: C_13  and  C_14
REMARK   12  A    between atoms: C_14  and  C_15
REMARK   13  A    between atoms: C_21  and  C_22
REMARK   14  A    between atoms: C_21  and  C_23
REMARK   15  A    between atoms: C_24  and  O_25
REMARK   16  A    between atoms: C_31  and  C_32
REMARK   17  A    between atoms: C_32  and  N_33
REMARK                            x       y       z     vdW  Elec       q    Type
REMARK                         _______ _______ _______ _____ _____    ______ ____
ROOT
ATOM      1  P   UNL     1       8.856  -1.359  24.050  0.00  0.00    +0.221 P 
ATOM      2  O   UNL     1      10.181  -0.947  24.715  0.00  0.00    -0.289 OA
ENDROOT
BRANCH   1   3
ATOM      3  O   UNL     1       7.727  -1.611  25.228  0.00  0.00    -0.343 OA
ATOM      4  H   UNL     1       7.009  -2.229  24.975  0.00  0.00    +0.218 HD
ENDBRANCH   1   3
BRANCH   1   5
ATOM      5  C   UNL     1       9.296  -3.131  24.167  0.00  0.00    +0.118 C 
BRANCH   5   6
ATOM      6  C   UNL     1       8.214  -4.054  24.800  0.00  0.00    +0.137 C 
BRANCH   6   7
ATOM      7  C   UNL     1       7.242  -4.670  23.801  0.00  0.00    -0.033 A 
ATOM      8  C   UNL     1       5.899  -4.908  24.123  0.00  0.00    +0.009 A 
ATOM      9  C   UNL     1       5.068  -5.630  23.252  0.00  0.00    -0.034 A 
ATOM     10  C   UNL     1       5.570  -6.019  22.000  0.00  0.00    +0.005 A 
ATOM     11  C   UNL     1       6.876  -5.714  21.634  0.00  0.00    +0.001 A 
ATOM     12  C   UNL     1       7.713  -5.056  22.536  0.00  0.00    +0.004 A 
BRANCH   9  13
ATOM     13  C   UNL     1       3.744  -6.143  23.752  0.00  0.00    +0.113 C 
BRANCH  13  14
ATOM     14  N   UNL     1       3.659  -7.595  23.840  0.00  0.00    -0.326 NA
ATOM     15  H   UNL     1       3.218  -7.842  24.723  0.00  0.00    +0.119 HD
ATOM     16  H   UNL     1       3.032  -7.925  23.107  0.00  0.00    +0.119 HD
ENDBRANCH  13  14
ENDBRANCH   9  13
ENDBRANCH   6   7
BRANCH   6  17
ATOM     17  C   UNL     1       8.876  -5.108  25.685  0.00  0.00    +0.313 C 
ATOM     18  O   UNL     1       8.347  -5.666  26.635  0.00  0.00    -0.250 OA
BRANCH  17  19
ATOM     19  O   UNL     1      10.132  -5.438  25.287  0.00  0.00    -0.480 OA
ATOM     20  H   UNL     1      10.217  -6.417  25.146  0.00  0.00    +0.295 HD
ENDBRANCH  17  19
ENDBRANCH   6  17
ENDBRANCH   5   6
ENDBRANCH   1   5
BRANCH   1  21
ATOM     21  C   UNL     1       8.416   0.414  23.932  0.00  0.00    +0.165 C 
BRANCH  21  22
ATOM     22  C   UNL     1       9.119   1.253  22.798  0.00  0.00    +0.011 C 
ATOM     23  C   UNL     1      10.084   2.320  23.335  0.00  0.00    +0.009 C 
ATOM     24  C   UNL     1       8.119   1.972  21.878  0.00  0.00    +0.009 C 
ENDBRANCH  21  22
BRANCH  21  25
ATOM     25  N   UNL     1       8.661   1.102  25.268  0.00  0.00    -0.182 NA
ATOM     26  H   UNL     1       9.050   2.022  25.065  0.00  0.00    +0.149 HD
BRANCH  25  27
ATOM     27  S   UNL     1       7.233   1.305  26.161  0.00  0.00    +0.030 S 
ATOM     28  O   UNL     1       7.429   0.551  27.381  0.00  0.00    -0.158 OA
ATOM     29  O   UNL     1       6.147   1.006  25.255  0.00  0.00    -0.158 OA
BRANCH  27  30
ATOM     30  C   UNL     1       7.241   3.056  26.522  0.00  0.00    +0.189 C 
BRANCH  30  31
ATOM     31  C   UNL     1       6.573   3.856  25.413  0.00  0.00    +0.059 C 
BRANCH  31  32
ATOM     32  C   UNL     1       7.546   4.758  24.712  0.00  0.00    -0.046 A 
ATOM     33  C   UNL     1       8.749   5.118  25.335  0.00  0.00    +0.004 A 
ATOM     34  C   UNL     1       9.650   5.961  24.683  0.00  0.00    +0.000 A 
ATOM     35  C   UNL     1       9.354   6.443  23.406  0.00  0.00    +0.000 A 
ATOM     36  C   UNL     1       8.164   6.083  22.778  0.00  0.00    +0.000 A 
ATOM     37  C   UNL     1       7.263   5.241  23.427  0.00  0.00    +0.004 A 
ENDBRANCH  31  32
ENDBRANCH  30  31
ENDBRANCH  27  30
ENDBRANCH  25  27
ENDBRANCH  21  25
ENDBRANCH   1  21
TORSDOF 15
ENDMDL
MODEL 9
REMARK VINA RESULT:      -5.5      2.859      7.361
REMARK  Name = 
REMARK  17 active torsions:
REMARK  status: ('A' for Active; 'I' for Inactive)
REMARK    1  A    between atoms: C_2  and  C_3
REMARK    2  A    between atoms: C_2  and  C_24
REMARK    3  A    between atoms: C_2  and  C_27
REMARK    4  A    between atoms: C_3  and  P_4
REMARK    5  A    between atoms: P_4  and  O_5
REMARK    6  A    between atoms: P_4  and  C_7
REMARK    7  A    between atoms: C_7  and  N_9
REMARK    8  A    between atoms: C_7  and  C_21
REMARK    9  A    between atoms: N_9  and  S_10
REMARK   10  A    between atoms: S_10  and  C_13
REMARK   11  A    between atoms: C_13  and  C_14
REMARK   12  A    between atoms: C_14  and  C_15
REMARK   13  A    between atoms: C_21  and  C_22
REMARK   14  A    between atoms: C_21  and  C_23
REMARK   15  A    between atoms: C_24  and  O_25
REMARK   16  A    between atoms: C_31  and  C_32
REMARK   17  A    between atoms: C_32  and  N_33
REMARK                            x       y       z     vdW  Elec       q    Type
REMARK                         _______ _______ _______ _____ _____    ______ ____
ROOT
ATOM      1  P   UNL     1       7.762  -1.711  23.991  0.00  0.00    +0.221 P 
ATOM      2  O   UNL     1       7.303  -1.712  22.523  0.00  0.00    -0.289 OA
ENDROOT
BRANCH   1   3
ATOM      3  O   UNL     1       9.380  -1.384  24.040  0.00  0.00    -0.343 OA
ATOM      4  H   UNL     1       9.790  -1.233  23.162  0.00  0.00    +0.218 HD
ENDBRANCH   1   3
BRANCH   1   5
ATOM      5  C   UNL     1       8.179  -3.491  23.908  0.00  0.00    +0.118 C 
BRANCH   5   6
ATOM      6  C   UNL     1       7.939  -4.302  25.215  0.00  0.00    +0.137 C 
BRANCH   6   7
ATOM      7  C   UNL     1       6.638  -5.095  25.240  0.00  0.00    -0.033 A 
ATOM      8  C   UNL     1       6.009  -5.450  26.441  0.00  0.00    +0.009 A 
ATOM      9  C   UNL     1       4.910  -6.324  26.446  0.00  0.00    -0.034 A 
ATOM     10  C   UNL     1       4.377  -6.753  25.220  0.00  0.00    +0.005 A 
ATOM     11  C   UNL     1       4.941  -6.338  24.018  0.00  0.00    +0.001 A 
ATOM     12  C   UNL     1       6.075  -5.526  24.028  0.00  0.00    +0.004 A 
BRANCH   9  13
ATOM     13  C   UNL     1       4.460  -6.935  27.745  0.00  0.00    +0.113 C 
BRANCH  13  14
ATOM     14  N   UNL     1       5.529  -7.555  28.518  0.00  0.00    -0.326 NA
ATOM     15  H   UNL     1       5.234  -8.490  28.787  0.00  0.00    +0.119 HD
ATOM     16  H   UNL     1       6.337  -7.675  27.908  0.00  0.00    +0.119 HD
ENDBRANCH  13  14
ENDBRANCH   9  13
ENDBRANCH   6   7
BRANCH   6  17
ATOM     17  C   UNL     1       9.153  -5.176  25.521  0.00  0.00    +0.313 C 
ATOM     18  O   UNL     1       9.662  -5.973  24.748  0.00  0.00    -0.250 OA
BRANCH  17  19
ATOM     19  O   UNL     1       9.686  -4.951  26.750  0.00  0.00    -0.480 OA
ATOM     20  H   UNL     1       9.881  -5.805  27.217  0.00  0.00    +0.295 HD
ENDBRANCH  17  19
ENDBRANCH   6  17
ENDBRANCH   5   6
ENDBRANCH   1   5
BRANCH   1  21
ATOM     21  C   UNL     1       7.345   0.069  24.074  0.00  0.00    +0.165 C 
BRANCH  21  22
ATOM     22  C   UNL     1       6.258   0.501  25.131  0.00  0.00    +0.011 C 
ATOM     23  C   UNL     1       5.334  -0.647  25.563  0.00  0.00    +0.009 C 
ATOM     24  C   UNL     1       5.355   1.640  24.629  0.00  0.00    +0.009 C 
ENDBRANCH  21  22
BRANCH  21  25
ATOM     25  N   UNL     1       6.914   0.568  22.701  0.00  0.00    -0.182 NA
ATOM     26  H   UNL     1       6.034   1.068  22.827  0.00  0.00    +0.149 HD
BRANCH  25  27
ATOM     27  S   UNL     1       8.046   1.630  22.016  0.00  0.00    +0.030 S 
ATOM     28  O   UNL     1       7.281   2.776  21.573  0.00  0.00    -0.158 OA
ATOM     29  O   UNL     1       8.828   0.841  21.092  0.00  0.00    -0.158 OA
BRANCH  27  30
ATOM     30  C   UNL     1       9.059   2.082  23.418  0.00  0.00    +0.189 C 
BRANCH  30  31
ATOM     31  C   UNL     1       8.768   3.504  23.879  0.00  0.00    +0.059 C 
BRANCH  31  32
ATOM     32  C   UNL     1      10.002   4.356  23.874  0.00  0.00    -0.046 A 
ATOM     33  C   UNL     1       9.976   5.639  24.438  0.00  0.00    +0.004 A 
ATOM     34  C   UNL     1      11.125   6.432  24.427  0.00  0.00    +0.000 A 
ATOM     35  C   UNL     1      12.303   5.944  23.857  0.00  0.00    +0.000 A 
ATOM     36  C   UNL     1      12.338   4.667  23.301  0.00  0.00    +0.000 A 
ATOM     37  C   UNL     1      11.193   3.874  23.312  0.00  0.00    +0.004 A 
ENDBRANCH  31  32
ENDBRANCH  30  31
ENDBRANCH  27  30
ENDBRANCH  25  27
ENDBRANCH  21  25
ENDBRANCH   1  21
TORSDOF 15
ENDMDL
