MODEL 1
REMARK VINA RESULT:      -3.1      0.000      0.000
REMARK  Name = 
REMARK  5 active torsions:
REMARK  status: ('A' for Active; 'I' for Inactive)
REMARK    1  A    between atoms: C_1  and  C_2
REMARK    2  A    between atoms: C_2  and  O_3
REMARK    3  A    between atoms: O_3  and  C_4
REMARK    4  A    between atoms: C_4  and  C_5
REMARK    5  A    between atoms: C_5  and  O_6
REMARK                            x       y       z     vdW  Elec       q    Type
REMARK                         _______ _______ _______ _____ _____    ______ ____
ROOT
ATOM      1  C   UNL     1      12.162   5.759  23.800  0.00  0.00    +0.187 C 
ENDROOT
BRANCH   1   2
ATOM      2  O   UNL     1      10.938   5.022  23.675  0.00  0.00    -0.378 OA
BRANCH   2   4
ATOM      3  C   UNL     1       9.953   2.844  23.726  0.00  0.00    +0.034 C 
ATOM      4  C   UNL     1      11.190   3.648  23.380  0.00  0.00    +0.156 C 
ENDBRANCH   2   4
ENDBRANCH   1   2
BRANCH   1   5
ATOM      5  C   UNL     1      13.076   5.373  22.642  0.00  0.00    +0.184 C 
BRANCH   5   6
ATOM      6  O   UNL     1      14.387   5.096  23.130  0.00  0.00    -0.393 OA
ATOM      7  H   UNL     1      14.357   5.325  24.080  0.00  0.00    +0.209 HD
ENDBRANCH   5   6
ENDBRANCH   1   5
TORSDOF 4
ENDMDL
MODEL 2
REMARK VINA RESULT:      -2.9      1.800      2.404
REMARK  Name = 
REMARK  5 active torsions:
REMARK  status: ('A' for Active; 'I' for Inactive)
REMARK    1  A    between atoms: C_1  and  C_2
REMARK    2  A    between atoms: C_2  and  O_3
REMARK    3  A    between atoms: O_3  and  C_4
REMARK    4  A    between atoms: C_4  and  C_5
REMARK    5  A    between atoms: C_5  and  O_6
REMARK                            x       y       z     vdW  Elec       q    Type
REMARK                         _______ _______ _______ _____ _____    ______ ____
ROOT
ATOM      1  C   UNL     1      12.109   5.877  23.989  0.00  0.00    +0.187 C 
ENDROOT
BRANCH   1   2
ATOM      2  O   UNL     1      10.806   6.104  23.436  0.00  0.00    -0.378 OA
BRANCH   2   4
ATOM      3  C   UNL     1      10.670   7.044  25.631  0.00  0.00    +0.034 C 
ATOM      4  C   UNL     1       9.885   6.531  24.440  0.00  0.00    +0.156 C 
ENDBRANCH   2   4
ENDBRANCH   1   2
BRANCH   1   5
ATOM      5  C   UNL     1      12.860   4.918  23.072  0.00  0.00    +0.184 C 
BRANCH   5   6
ATOM      6  O   UNL     1      14.264   5.147  23.175  0.00  0.00    -0.393 OA
ATOM      7  H   UNL     1      14.400   6.047  22.817  0.00  0.00    +0.209 HD
ENDBRANCH   5   6
ENDBRANCH   1   5
TORSDOF 4
ENDMDL
MODEL 3
REMARK VINA RESULT:      -2.9      7.636      9.169
REMARK  Name = 
REMARK  5 active torsions:
REMARK  status: ('A' for Active; 'I' for Inactive)
REMARK    1  A    between atoms: C_1  and  C_2
REMARK    2  A    between atoms: C_2  and  O_3
REMARK    3  A    between atoms: O_3  and  C_4
REMARK    4  A    between atoms: C_4  and  C_5
REMARK    5  A    between atoms: C_5  and  O_6
REMARK                            x       y       z     vdW  Elec       q    Type
REMARK                         _______ _______ _______ _____ _____    ______ ____
ROOT
ATOM      1  C   UNL     1       8.791  -4.024  24.552  0.00  0.00    +0.187 C 
ENDROOT
BRANCH   1   2
ATOM      2  O   UNL     1      10.009  -3.404  24.118  0.00  0.00    -0.378 OA
BRANCH   2   4
ATOM      3  C   UNL     1      10.280  -1.607  22.562  0.00  0.00    +0.034 C 
ATOM      4  C   UNL     1       9.845  -1.994  23.962  0.00  0.00    +0.156 C 
ENDBRANCH   2   4
ENDBRANCH   1   2
BRANCH   1   5
ATOM      5  C   UNL     1       9.130  -5.389  25.140  0.00  0.00    +0.184 C 
BRANCH   5   6
ATOM      6  O   UNL     1      10.534  -5.484  25.371  0.00  0.00    -0.393 OA
ATOM      7  H   UNL     1      10.751  -4.710  25.928  0.00  0.00    +0.209 HD
ENDBRANCH   5   6
ENDBRANCH   1   5
TORSDOF 4
ENDMDL
MODEL 4
REMARK VINA RESULT:      -2.9     10.536     11.012
REMARK  Name = 
REMARK  5 active torsions:
REMARK  status: ('A' for Active; 'I' for Inactive)
REMARK    1  A    between atoms: C_1  and  C_2
REMARK    2  A    between atoms: C_2  and  O_3
REMARK    3  A    between atoms: O_3  and  C_4
REMARK    4  A    between atoms: C_4  and  C_5
REMARK    5  A    between atoms: C_5  and  O_6
REMARK                            x       y       z     vdW  Elec       q    Type
REMARK                         _______ _______ _______ _____ _____    ______ ____
ROOT
ATOM      1  C   UNL     1       9.470  -5.153  25.584  0.00  0.00    +0.187 C 
ENDROOT
BRANCH   1   2
ATOM      2  O   UNL     1       9.107  -5.476  24.235  0.00  0.00    -0.378 OA
BRANCH   2   4
ATOM      3  C   UNL     1       7.341  -5.578  22.625  0.00  0.00    +0.034 C 
ATOM      4  C   UNL     1       7.842  -4.911  23.890  0.00  0.00    +0.156 C 
ENDBRANCH   2   4
ENDBRANCH   1   2
BRANCH   1   5
ATOM      5  C   UNL     1       8.194  -4.863  26.368  0.00  0.00    +0.184 C 
BRANCH   5   6
ATOM      6  O   UNL     1       8.033  -5.827  27.407  0.00  0.00    -0.393 OA
ATOM      7  H   UNL     1       8.937  -6.145  27.599  0.00  0.00    +0.209 HD
ENDBRANCH   5   6
ENDBRANCH   1   5
TORSDOF 4
ENDMDL
MODEL 5
REMARK VINA RESULT:      -2.8      4.767      6.094
REMARK  Name = 
REMARK  5 active torsions:
REMARK  status: ('A' for Active; 'I' for Inactive)
REMARK    1  A    between atoms: C_1  and  C_2
REMARK    2  A    between atoms: C_2  and  O_3
REMARK    3  A    between atoms: O_3  and  C_4
REMARK    4  A    between atoms: C_4  and  C_5
REMARK    5  A    between atoms: C_5  and  O_6
REMARK                            x       y       z     vdW  Elec       q    Type
REMARK                         _______ _______ _______ _____ _____    ______ ____
ROOT
ATOM      1  C   UNL     1       9.450  -0.199  21.416  0.00  0.00    +0.187 C 
ENDROOT
BRANCH   1   2
ATOM      2  O   UNL     1      10.003  -1.393  21.987  0.00  0.00    -0.378 OA
BRANCH   2   4
ATOM      3  C   UNL     1       9.771  -2.702  23.974  0.00  0.00    +0.034 C 
ATOM      4  C   UNL     1       9.046  -2.064  22.806  0.00  0.00    +0.156 C 
ENDBRANCH   2   4
ENDBRANCH   1   2
BRANCH   1   5
ATOM      5  C   UNL     1       9.980   0.998  22.199  0.00  0.00    +0.184 C 
BRANCH   5   6
ATOM      6  O   UNL     1       9.830   2.188  21.428  0.00  0.00    -0.393 OA
ATOM      7  H   UNL     1      10.594   2.192  20.818  0.00  0.00    +0.209 HD
ENDBRANCH   5   6
ENDBRANCH   1   5
TORSDOF 4
ENDMDL
MODEL 6
REMARK VINA RESULT:      -2.8     10.376     10.633
REMARK  Name = 
REMARK  5 active torsions:
REMARK  status: ('A' for Active; 'I' for Inactive)
REMARK    1  A    between atoms: C_1  and  C_2
REMARK    2  A    between atoms: C_2  and  O_3
REMARK    3  A    between atoms: O_3  and  C_4
REMARK    4  A    between atoms: C_4  and  C_5
REMARK    5  A    between atoms: C_5  and  O_6
REMARK                            x       y       z     vdW  Elec       q    Type
REMARK                         _______ _______ _______ _____ _____    ______ ____
ROOT
ATOM      1  C   UNL     1       8.107  -4.682  25.064  0.00  0.00    +0.187 C 
ENDROOT
BRANCH   1   2
ATOM      2  O   UNL     1       8.454  -5.170  23.761  0.00  0.00    -0.378 OA
BRANCH   2   4
ATOM      3  C   UNL     1       7.173  -6.014  21.926  0.00  0.00    +0.034 C 
ATOM      4  C   UNL     1       7.468  -4.807  22.794  0.00  0.00    +0.156 C 
ENDBRANCH   2   4
ENDBRANCH   1   2
BRANCH   1   5
ATOM      5  C   UNL     1       9.302  -4.887  25.988  0.00  0.00    +0.184 C 
BRANCH   5   6
ATOM      6  O   UNL     1      10.333  -5.591  25.299  0.00  0.00    -0.393 OA
ATOM      7  H   UNL     1      11.114  -5.005  25.347  0.00  0.00    +0.209 HD
ENDBRANCH   5   6
ENDBRANCH   1   5
TORSDOF 4
ENDMDL
MODEL 7
REMARK VINA RESULT:      -2.7      4.273      5.773
REMARK  Name = 
REMARK  5 active torsions:
REMARK  status: ('A' for Active; 'I' for Inactive)
REMARK    1  A    between atoms: C_1  and  C_2
REMARK    2  A    between atoms: C_2  and  O_3
REMARK    3  A    between atoms: O_3  and  C_4
REMARK    4  A    between atoms: C_4  and  C_5
REMARK    5  A    between atoms: C_5  and  O_6
REMARK                            x       y       z     vdW  Elec       q    Type
REMARK                         _______ _______ _______ _____ _____    ______ ____
ROOT
ATOM      1  C   UNL     1       9.714  -0.548  23.646  0.00  0.00    +0.187 C 
ENDROOT
BRANCH   1   2
ATOM      2  O   UNL     1      10.826   0.336  23.840  0.00  0.00    -0.378 OA
BRANCH   2   4
ATOM      3  C   UNL     1      10.051   1.885  22.191  0.00  0.00    +0.034 C 
ATOM      4  C   UNL     1      10.444   1.697  23.643  0.00  0.00    +0.156 C 
ENDBRANCH   2   4
ENDBRANCH   1   2
BRANCH   1   5
ATOM      5  C   UNL     1      10.214  -1.799  22.932  0.00  0.00    +0.184 C 
BRANCH   5   6
ATOM      6  O   UNL     1      10.209  -1.588  21.522  0.00  0.00    -0.393 OA
ATOM      7  H   UNL     1      10.150  -2.483  21.132  0.00  0.00    +0.209 HD
ENDBRANCH   5   6
ENDBRANCH   1   5
TORSDOF 4
ENDMDL
MODEL 8
REMARK VINA RESULT:      -2.7      7.073      8.118
REMARK  Name = 
REMARK  5 active torsions:
REMARK  status: ('A' for Active; 'I' for Inactive)
REMARK    1  A    between atoms: C_1  and  C_2
REMARK    2  A    between atoms: C_2  and  O_3
REMARK    3  A    between atoms: O_3  and  C_4
REMARK    4  A    between atoms: C_4  and  C_5
REMARK    5  A    between atoms: C_5  and  O_6
REMARK                            x       y       z     vdW  Elec       q    Type
REMARK                         _______ _______ _______ _____ _____    ______ ____
ROOT
ATOM      1  C   UNL     1       9.926  -1.972  23.750  0.00  0.00    +0.187 C 
ENDROOT
BRANCH   1   2
ATOM      2  O   UNL     1      10.051  -3.369  24.048  0.00  0.00    -0.378 OA
BRANCH   2   4
ATOM      3  C   UNL     1       8.328  -5.015  24.250  0.00  0.00    +0.034 C 
ATOM      4  C   UNL     1       8.991  -3.814  24.894  0.00  0.00    +0.156 C 
ENDBRANCH   2   4
ENDBRANCH   1   2
BRANCH   1   5
ATOM      5  C   UNL     1       9.204  -1.828  22.415  0.00  0.00    +0.184 C 
BRANCH   5   6
ATOM      6  O   UNL     1      10.144  -1.530  21.384  0.00  0.00    -0.393 OA
ATOM      7  H   UNL     1       9.618  -1.511  20.561  0.00  0.00    +0.209 HD
ENDBRANCH   5   6
ENDBRANCH   1   5
TORSDOF 4
ENDMDL
MODEL 9
REMARK VINA RESULT:      -2.6      5.192      6.558
REMARK  Name = 
REMARK  5 active torsions:
REMARK  status: ('A' for Active; 'I' for Inactive)
REMARK    1  A    between atoms: C_1  and  C_2
REMARK    2  A    between atoms: C_2  and  O_3
REMARK    3  A    between atoms: O_3  and  C_4
REMARK    4  A    between atoms: C_4  and  C_5
REMARK    5  A    between atoms: C_5  and  O_6
REMARK                            x       y       z     vdW  Elec       q    Type
REMARK                         _______ _______ _______ _____ _____    ______ ____
ROOT
ATOM      1  C   UNL     1       8.828  -1.567  23.522  0.00  0.00    +0.187 C 
ENDROOT
BRANCH   1   2
ATOM      2  O   UNL     1      10.126  -1.219  24.022  0.00  0.00    -0.378 OA
BRANCH   2   4
ATOM      3  C   UNL     1      10.723   1.074  24.350  0.00  0.00    +0.034 C 
ATOM      4  C   UNL     1      10.048  -0.141  24.955  0.00  0.00    +0.156 C 
ENDBRANCH   2   4
ENDBRANCH   1   2
BRANCH   1   5
ATOM      5  C   UNL     1       8.915  -1.689  22.004  0.00  0.00    +0.184 C 
BRANCH   5   6
ATOM      6  O   UNL     1      10.271  -1.555  21.583  0.00  0.00    -0.393 OA
ATOM      7  H   UNL     1      10.238  -1.602  20.607  0.00  0.00    +0.209 HD
ENDBRANCH   5   6
ENDBRANCH   1   5
TORSDOF 4
ENDMDL
