MODEL 1
REMARK VINA RESULT:      -7.1      0.000      0.000
REMARK  Name = 
REMARK  14 active torsions:
REMARK  status: ('A' for Active; 'I' for Inactive)
REMARK    1  A    between atoms: N_10  and  C_11
REMARK    2  A    between atoms: C_13  and  C_14
REMARK    3  A    between atoms: C_14  and  O_15
REMARK    4  A    between atoms: O_15  and  P_16
REMARK    5  A    between atoms: P_16  and  O_17
REMARK    6  A    between atoms: P_16  and  O_19
REMARK    7  A    between atoms: O_19  and  P_20
REMARK    8  A    between atoms: P_20  and  O_21
REMARK    9  A    between atoms: P_20  and  O_23
REMARK   10  A    between atoms: O_23  and  P_24
REMARK   11  A    between atoms: P_24  and  O_25
REMARK   12  A    between atoms: P_24  and  O_26
REMARK   13  A    between atoms: C_33  and  N_44
REMARK   14  A    between atoms: C_37  and  N_38
REMARK                            x       y       z     vdW  Elec       q    Type
REMARK                         _______ _______ _______ _____ _____    ______ ____
ROOT
ATOM      1  C   UNL     1       8.534  -0.059  25.169  0.00  0.00    +0.254 C 
ATOM      2  C   UNL     1       9.335  -1.382  25.301  0.00  0.00    +0.204 C 
ATOM      3  C   UNL     1       9.482  -1.899  23.883  0.00  0.00    +0.187 C 
ATOM      4  O   UNL     1       8.591  -3.026  23.759  0.00  0.00    -0.323 OA
ATOM      5  C   UNL     1       8.051  -3.299  25.040  0.00  0.00    +0.358 C 
ATOM      6  C   UNL     1       6.574  -3.029  25.187  0.00  0.00    +0.322 C 
ATOM      7  C   UNL     1       5.820  -3.495  26.196  0.00  0.00    +0.114 C 
ATOM      8  C   UNL     1       6.457  -4.510  27.070  0.00  0.00    +0.088 C 
ATOM      9  N   UNL     1       5.891  -4.835  28.377  0.00  0.00    -0.186 N 
ATOM     10  O   UNL     1       6.473  -5.709  29.025  0.00  0.00    -0.173 OA
ATOM     11  O   UNL     1       4.886  -4.205  28.716  0.00  0.00    -0.777 OA
ATOM     12  C   UNL     1       7.606  -5.284  26.529  0.00  0.00    +0.114 C 
ATOM     13  C   UNL     1       8.304  -4.694  25.541  0.00  0.00    +0.322 C 
ATOM     14  C   UNL     1       8.996  -0.746  23.018  0.00  0.00    +0.178 C 
ATOM     15  O   UNL     1       8.699  -2.442  25.997  0.00  0.00    -0.322 OA
ATOM     16  O   UNL     1       8.009  -0.083  23.821  0.00  0.00    -0.346 OA
ENDROOT
BRANCH   1  24
ATOM     17  N   UNL     1       3.733   2.117  28.112  0.00  0.00    -0.341 N 
ATOM     18  H   UNL     1       3.804   1.391  28.815  0.00  0.00    +0.144 HD
ATOM     19  H   UNL     1       2.822   2.501  27.906  0.00  0.00    +0.144 HD
ATOM     20  C   UNL     1       4.497   1.902  26.974  0.00  0.00    +0.147 A 
ATOM     21  C   UNL     1       5.634   1.072  26.958  0.00  0.00    +0.147 A 
ATOM     22  N   UNL     1       6.205   0.264  27.902  0.00  0.00    -0.231 NA
ATOM     23  C   UNL     1       7.284  -0.221  27.317  0.00  0.00    +0.203 A 
ATOM     24  N   UNL     1       7.448   0.280  26.047  0.00  0.00    -0.286 N 
ATOM     25  C   UNL     1       6.346   1.032  25.765  0.00  0.00    +0.167 A 
ATOM     26  N   UNL     1       6.030   1.625  24.607  0.00  0.00    -0.216 NA
ATOM     27  C   UNL     1       4.896   2.342  24.728  0.00  0.00    +0.225 A 
ATOM     28  N   UNL     1       4.138   2.527  25.833  0.00  0.00    -0.219 NA
ENDBRANCH   1  24
BRANCH   6  29
ATOM     29  N   UNL     1       5.891  -2.259  24.177  0.00  0.00    +0.081 N 
ATOM     30  O   UNL     1       6.145  -2.506  22.995  0.00  0.00    +0.041 OA
ATOM     31  O   UNL     1       5.036  -1.454  24.560  0.00  0.00    -0.576 OA
ENDBRANCH   6  29
BRANCH  13  32
ATOM     32  N   UNL     1       9.373  -5.454  24.955  0.00  0.00    +0.081 N 
ATOM     33  O   UNL     1       9.106  -6.204  24.011  0.00  0.00    +0.041 OA
ATOM     34  O   UNL     1      10.511  -5.280  25.420  0.00  0.00    -0.576 OA
ENDBRANCH  13  32
BRANCH  14  35
ATOM     35  C   UNL     1      10.081   0.270  22.714  0.00  0.00    +0.206 C 
BRANCH  35  36
ATOM     36  O   UNL     1       9.520   1.392  22.071  0.00  0.00    -0.284 OA
BRANCH  36  37
ATOM     37  P   UNL     1       9.767   2.901  22.880  0.00  0.00    +0.483 P 
ATOM     38  O   UNL     1      10.677   2.228  23.908  0.00  0.00    -0.227 OA
BRANCH  37  39
ATOM     39  O   UNL     1       8.229   2.899  23.425  0.00  0.00    -0.302 OA
ATOM     40  H   UNL     1       8.089   3.394  24.256  0.00  0.00    +0.222 HD
ENDBRANCH  37  39
BRANCH  37  41
ATOM     41  O   UNL     1      10.013   4.410  23.688  0.00  0.00    -0.186 OA
BRANCH  41  42
ATOM     42  P   UNL     1       8.958   5.840  23.596  0.00  0.00    +0.492 P 
ATOM     43  O   UNL     1       9.701   6.933  24.315  0.00  0.00    -0.226 OA
BRANCH  42  44
ATOM     44  O   UNL     1       7.772   5.355  24.580  0.00  0.00    -0.302 OA
ATOM     45  H   UNL     1       7.977   5.696  25.480  0.00  0.00    +0.222 HD
ENDBRANCH  42  44
BRANCH  42  46
ATOM     46  O   UNL     1       7.856   6.698  22.242  0.00  0.00    -0.186 OA
BRANCH  46  47
ATOM     47  P   UNL     1       6.332   6.090  22.789  0.00  0.00    +0.481 P 
ATOM     48  O   UNL     1       4.967   5.547  23.279  0.00  0.00    -0.227 OA
BRANCH  47  49
ATOM     49  O   UNL     1       6.671   4.769  21.881  0.00  0.00    -0.302 OA
ATOM     50  H   UNL     1       7.481   4.384  22.269  0.00  0.00    +0.222 HD
ENDBRANCH  47  49
BRANCH  47  51
ATOM     51  O   UNL     1       5.716   6.930  21.519  0.00  0.00    -0.302 OA
ATOM     52  H   UNL     1       6.174   6.744  20.682  0.00  0.00    +0.222 HD
ENDBRANCH  47  51
ENDBRANCH  46  47
ENDBRANCH  42  46
ENDBRANCH  41  42
ENDBRANCH  37  41
ENDBRANCH  36  37
ENDBRANCH  35  36
ENDBRANCH  14  35
TORSDOF 14
ENDMDL
MODEL 2
REMARK VINA RESULT:      -7.1      2.902      4.852
REMARK  Name = 
REMARK  14 active torsions:
REMARK  status: ('A' for Active; 'I' for Inactive)
REMARK    1  A    between atoms: N_10  and  C_11
REMARK    2  A    between atoms: C_13  and  C_14
REMARK    3  A    between atoms: C_14  and  O_15
REMARK    4  A    between atoms: O_15  and  P_16
REMARK    5  A    between atoms: P_16  and  O_17
REMARK    6  A    between atoms: P_16  and  O_19
REMARK    7  A    between atoms: O_19  and  P_20
REMARK    8  A    between atoms: P_20  and  O_21
REMARK    9  A    between atoms: P_20  and  O_23
REMARK   10  A    between atoms: O_23  and  P_24
REMARK   11  A    between atoms: P_24  and  O_25
REMARK   12  A    between atoms: P_24  and  O_26
REMARK   13  A    between atoms: C_33  and  N_44
REMARK   14  A    between atoms: C_37  and  N_38
REMARK                            x       y       z     vdW  Elec       q    Type
REMARK                         _______ _______ _______ _____ _____    ______ ____
ROOT
ATOM      1  C   UNL     1       7.332  -3.529  26.568  0.00  0.00    +0.254 C 
ATOM      2  C   UNL     1       7.601  -4.431  25.334  0.00  0.00    +0.204 C 
ATOM      3  C   UNL     1       7.869  -3.470  24.193  0.00  0.00    +0.187 C 
ATOM      4  O   UNL     1       6.703  -3.499  23.343  0.00  0.00    -0.323 OA
ATOM      5  C   UNL     1       5.843  -4.518  23.821  0.00  0.00    +0.358 C 
ATOM      6  C   UNL     1       4.543  -4.035  24.418  0.00  0.00    +0.322 C 
ATOM      7  C   UNL     1       3.480  -4.823  24.644  0.00  0.00    +0.114 C 
ATOM      8  C   UNL     1       3.540  -6.184  24.057  0.00  0.00    +0.088 C 
ATOM      9  N   UNL     1       2.632  -7.235  24.506  0.00  0.00    -0.186 N 
ATOM     10  O   UNL     1       2.738  -8.329  23.945  0.00  0.00    -0.173 OA
ATOM     11  O   UNL     1       1.845  -6.937  25.408  0.00  0.00    -0.777 OA
ATOM     12  C   UNL     1       4.455  -6.414  22.907  0.00  0.00    +0.114 C 
ATOM     13  C   UNL     1       5.504  -5.577  22.808  0.00  0.00    +0.322 C 
ATOM     14  C   UNL     1       7.991  -2.115  24.872  0.00  0.00    +0.178 C 
ATOM     15  O   UNL     1       6.516  -5.223  24.879  0.00  0.00    -0.322 OA
ATOM     16  O   UNL     1       7.132  -2.207  26.017  0.00  0.00    -0.346 OA
ENDROOT
BRANCH   1  24
ATOM     17  N   UNL     1       3.147  -5.610  30.389  0.00  0.00    -0.341 N 
ATOM     18  H   UNL     1       2.828  -4.669  30.590  0.00  0.00    +0.144 HD
ATOM     19  H   UNL     1       3.052  -6.315  31.106  0.00  0.00    +0.144 HD
ATOM     20  C   UNL     1       4.360  -5.681  29.720  0.00  0.00    +0.147 A 
ATOM     21  C   UNL     1       4.871  -4.627  28.940  0.00  0.00    +0.147 A 
ATOM     22  N   UNL     1       4.435  -3.352  28.706  0.00  0.00    -0.231 NA
ATOM     23  C   UNL     1       5.306  -2.854  27.848  0.00  0.00    +0.203 A 
ATOM     24  N   UNL     1       6.259  -3.778  27.490  0.00  0.00    -0.286 N 
ATOM     25  C   UNL     1       6.053  -4.887  28.257  0.00  0.00    +0.167 A 
ATOM     26  N   UNL     1       6.805  -5.994  28.320  0.00  0.00    -0.216 NA
ATOM     27  C   UNL     1       6.247  -6.907  29.139  0.00  0.00    +0.225 A 
ATOM     28  N   UNL     1       5.078  -6.822  29.812  0.00  0.00    -0.219 NA
ENDBRANCH   1  24
BRANCH   6  29
ATOM     29  N   UNL     1       4.389  -2.638  24.739  0.00  0.00    +0.081 N 
ATOM     30  O   UNL     1       5.025  -1.819  24.071  0.00  0.00    +0.041 OA
ATOM     31  O   UNL     1       3.566  -2.346  25.614  0.00  0.00    -0.576 OA
ENDBRANCH   6  29
BRANCH  13  32
ATOM     32  N   UNL     1       6.360  -5.737  21.666  0.00  0.00    +0.081 N 
ATOM     33  O   UNL     1       7.457  -6.280  21.830  0.00  0.00    +0.041 OA
ATOM     34  O   UNL     1       5.922  -5.344  20.573  0.00  0.00    -0.576 OA
ENDBRANCH  13  32
BRANCH  14  35
ATOM     35  C   UNL     1       9.390  -1.829  25.385  0.00  0.00    +0.206 C 
BRANCH  35  36
ATOM     36  O   UNL     1      10.025  -0.890  24.546  0.00  0.00    -0.284 OA
BRANCH  36  37
ATOM     37  P   UNL     1       9.003   0.372  23.951  0.00  0.00    +0.483 P 
ATOM     38  O   UNL     1       9.730   0.360  22.606  0.00  0.00    -0.227 OA
BRANCH  37  39
ATOM     39  O   UNL     1       9.706   1.458  24.945  0.00  0.00    -0.302 OA
ATOM     40  H   UNL     1       9.621   1.257  25.897  0.00  0.00    +0.222 HD
ENDBRANCH  37  39
BRANCH  37  41
ATOM     41  O   UNL     1       7.980   1.634  23.357  0.00  0.00    -0.186 OA
BRANCH  41  42
ATOM     42  P   UNL     1       8.372   3.369  23.296  0.00  0.00    +0.492 P 
ATOM     43  O   UNL     1       7.462   3.949  22.249  0.00  0.00    -0.226 OA
BRANCH  42  44
ATOM     44  O   UNL     1       9.845   3.282  22.638  0.00  0.00    -0.302 OA
ATOM     45  H   UNL     1      10.483   3.093  23.364  0.00  0.00    +0.222 HD
ENDBRANCH  42  44
BRANCH  42  46
ATOM     46  O   UNL     1       8.731   4.782  24.584  0.00  0.00    -0.186 OA
BRANCH  46  47
ATOM     47  P   UNL     1      10.228   5.319  23.902  0.00  0.00    +0.481 P 
ATOM     48  O   UNL     1      11.568   5.799  23.293  0.00  0.00    -0.227 OA
BRANCH  47  49
ATOM     49  O   UNL     1      10.184   6.493  25.045  0.00  0.00    -0.302 OA
ATOM     50  H   UNL     1      10.850   6.235  25.712  0.00  0.00    +0.222 HD
ENDBRANCH  47  49
BRANCH  47  51
ATOM     51  O   UNL     1       9.274   6.157  22.860  0.00  0.00    -0.302 OA
ATOM     52  H   UNL     1       8.723   6.825  23.303  0.00  0.00    +0.222 HD
ENDBRANCH  47  51
ENDBRANCH  46  47
ENDBRANCH  42  46
ENDBRANCH  41  42
ENDBRANCH  37  41
ENDBRANCH  36  37
ENDBRANCH  35  36
ENDBRANCH  14  35
TORSDOF 14
ENDMDL
MODEL 3
REMARK VINA RESULT:      -7.0      3.587      8.798
REMARK  Name = 
REMARK  14 active torsions:
REMARK  status: ('A' for Active; 'I' for Inactive)
REMARK    1  A    between atoms: N_10  and  C_11
REMARK    2  A    between atoms: C_13  and  C_14
REMARK    3  A    between atoms: C_14  and  O_15
REMARK    4  A    between atoms: O_15  and  P_16
REMARK    5  A    between atoms: P_16  and  O_17
REMARK    6  A    between atoms: P_16  and  O_19
REMARK    7  A    between atoms: O_19  and  P_20
REMARK    8  A    between atoms: P_20  and  O_21
REMARK    9  A    between atoms: P_20  and  O_23
REMARK   10  A    between atoms: O_23  and  P_24
REMARK   11  A    between atoms: P_24  and  O_25
REMARK   12  A    between atoms: P_24  and  O_26
REMARK   13  A    between atoms: C_33  and  N_44
REMARK   14  A    between atoms: C_37  and  N_38
REMARK                            x       y       z     vdW  Elec       q    Type
REMARK                         _______ _______ _______ _____ _____    ______ ____
ROOT
ATOM      1  C   UNL     1       6.888   0.508  26.048  0.00  0.00    +0.254 C 
ATOM      2  C   UNL     1       6.798   1.797  26.907  0.00  0.00    +0.204 C 
ATOM      3  C   UNL     1       5.353   2.244  26.799  0.00  0.00    +0.187 C 
ATOM      4  O   UNL     1       5.341   3.404  25.942  0.00  0.00    -0.323 OA
ATOM      5  C   UNL     1       6.686   3.757  25.667  0.00  0.00    +0.358 C 
ATOM      6  C   UNL     1       7.123   3.561  24.236  0.00  0.00    +0.322 C 
ATOM      7  C   UNL     1       8.231   4.104  23.707  0.00  0.00    +0.114 C 
ATOM      8  C   UNL     1       8.916   5.126  24.535  0.00  0.00    +0.088 C 
ATOM      9  N   UNL     1      10.287   5.534  24.241  0.00  0.00    -0.186 N 
ATOM     10  O   UNL     1      10.768   6.408  24.967  0.00  0.00    -0.173 OA
ATOM     11  O   UNL     1      10.843   4.965  23.297  0.00  0.00    -0.777 OA
ATOM     12  C   UNL     1       8.128   5.823  25.586  0.00  0.00    +0.114 C 
ATOM     13  C   UNL     1       7.057   5.160  26.061  0.00  0.00    +0.322 C 
ATOM     14  C   UNL     1       4.656   1.078  26.116  0.00  0.00    +0.178 C 
ATOM     15  O   UNL     1       7.546   2.914  26.454  0.00  0.00    -0.322 OA
ATOM     16  O   UNL     1       5.664   0.496  25.277  0.00  0.00    -0.346 OA
ENDROOT
BRANCH   1  24
ATOM     17  N   UNL     1      10.872  -1.427  21.945  0.00  0.00    -0.341 N 
ATOM     18  H   UNL     1      11.431  -0.589  22.057  0.00  0.00    +0.144 HD
ATOM     19  H   UNL     1      10.878  -1.894  21.050  0.00  0.00    +0.144 HD
ATOM     20  C   UNL     1       9.606  -1.361  22.509  0.00  0.00    +0.147 A 
ATOM     21  C   UNL     1       9.276  -0.479  23.555  0.00  0.00    +0.147 A 
ATOM     22  N   UNL     1       9.977   0.510  24.189  0.00  0.00    -0.231 NA
ATOM     23  C   UNL     1       9.156   0.954  25.123  0.00  0.00    +0.203 A 
ATOM     24  N   UNL     1       7.972   0.257  25.138  0.00  0.00    -0.286 N 
ATOM     25  C   UNL     1       7.993  -0.597  24.076  0.00  0.00    +0.167 A 
ATOM     26  N   UNL     1       7.009  -1.396  23.643  0.00  0.00    -0.216 NA
ATOM     27  C   UNL     1       7.422  -2.150  22.606  0.00  0.00    +0.225 A 
ATOM     28  N   UNL     1       8.650  -2.191  22.040  0.00  0.00    -0.219 NA
ENDBRANCH   1  24
BRANCH   6  29
ATOM     29  N   UNL     1       6.302   2.779  23.346  0.00  0.00    +0.081 N 
ATOM     30  O   UNL     1       5.091   3.019  23.319  0.00  0.00    +0.041 OA
ATOM     31  O   UNL     1       6.875   1.972  22.608  0.00  0.00    -0.576 OA
ENDBRANCH   6  29
BRANCH  13  32
ATOM     32  N   UNL     1       6.242   5.844  27.025  0.00  0.00    +0.081 N 
ATOM     33  O   UNL     1       6.403   5.577  28.220  0.00  0.00    +0.041 OA
ATOM     34  O   UNL     1       5.445   6.691  26.591  0.00  0.00    -0.576 OA
ENDBRANCH  13  32
BRANCH  14  35
ATOM     35  C   UNL     1       4.206   0.002  27.085  0.00  0.00    +0.206 C 
BRANCH  35  36
ATOM     36  O   UNL     1       3.440  -0.966  26.404  0.00  0.00    -0.284 OA
BRANCH  36  37
ATOM     37  P   UNL     1       4.049  -2.583  26.499  0.00  0.00    +0.483 P 
ATOM     38  O   UNL     1       4.970  -2.194  27.656  0.00  0.00    -0.227 OA
BRANCH  37  39
ATOM     39  O   UNL     1       4.841  -2.404  25.084  0.00  0.00    -0.302 OA
ATOM     40  H   UNL     1       4.285  -2.508  24.287  0.00  0.00    +0.222 HD
ENDBRANCH  37  39
BRANCH  37  41
ATOM     41  O   UNL     1       4.657  -4.199  26.592  0.00  0.00    -0.186 OA
BRANCH  41  42
ATOM     42  P   UNL     1       6.356  -4.675  26.821  0.00  0.00    +0.492 P 
ATOM     43  O   UNL     1       6.550  -4.766  28.310  0.00  0.00    -0.226 OA
BRANCH  42  44
ATOM     44  O   UNL     1       7.077  -3.312  26.339  0.00  0.00    -0.302 OA
ATOM     45  H   UNL     1       6.824  -3.159  25.400  0.00  0.00    +0.222 HD
ENDBRANCH  42  44
BRANCH  42  46
ATOM     46  O   UNL     1       7.590  -5.940  26.009  0.00  0.00    -0.186 OA
BRANCH  46  47
ATOM     47  P   UNL     1       8.751  -4.783  25.456  0.00  0.00    +0.481 P 
ATOM     48  O   UNL     1       9.790  -3.747  24.960  0.00  0.00    -0.227 OA
BRANCH  47  49
ATOM     49  O   UNL     1       9.666  -6.080  25.048  0.00  0.00    -0.302 OA
ATOM     50  H   UNL     1      10.535  -5.932  25.471  0.00  0.00    +0.222 HD
ENDBRANCH  47  49
BRANCH  47  51
ATOM     51  O   UNL     1       9.266  -4.784  27.015  0.00  0.00    -0.302 OA
ATOM     52  H   UNL     1      10.071  -5.311  27.150  0.00  0.00    +0.222 HD
ENDBRANCH  47  51
ENDBRANCH  46  47
ENDBRANCH  42  46
ENDBRANCH  41  42
ENDBRANCH  37  41
ENDBRANCH  36  37
ENDBRANCH  35  36
ENDBRANCH  14  35
TORSDOF 14
ENDMDL
MODEL 4
REMARK VINA RESULT:      -6.8      2.765      5.228
REMARK  Name = 
REMARK  14 active torsions:
REMARK  status: ('A' for Active; 'I' for Inactive)
REMARK    1  A    between atoms: N_10  and  C_11
REMARK    2  A    between atoms: C_13  and  C_14
REMARK    3  A    between atoms: C_14  and  O_15
REMARK    4  A    between atoms: O_15  and  P_16
REMARK    5  A    between atoms: P_16  and  O_17
REMARK    6  A    between atoms: P_16  and  O_19
REMARK    7  A    between atoms: O_19  and  P_20
REMARK    8  A    between atoms: P_20  and  O_21
REMARK    9  A    between atoms: P_20  and  O_23
REMARK   10  A    between atoms: O_23  and  P_24
REMARK   11  A    between atoms: P_24  and  O_25
REMARK   12  A    between atoms: P_24  and  O_26
REMARK   13  A    between atoms: C_33  and  N_44
REMARK   14  A    between atoms: C_37  and  N_38
REMARK                            x       y       z     vdW  Elec       q    Type
REMARK                         _______ _______ _______ _____ _____    ______ ____
ROOT
ATOM      1  C   UNL     1       5.864  -0.526  25.713  0.00  0.00    +0.254 C 
ATOM      2  C   UNL     1       4.478  -1.171  25.980  0.00  0.00    +0.204 C 
ATOM      3  C   UNL     1       4.486  -1.530  27.453  0.00  0.00    +0.187 C 
ATOM      4  O   UNL     1       4.619  -2.965  27.529  0.00  0.00    -0.323 OA
ATOM      5  C   UNL     1       4.535  -3.480  26.212  0.00  0.00    +0.358 C 
ATOM      6  C   UNL     1       5.810  -4.084  25.674  0.00  0.00    +0.322 C 
ATOM      7  C   UNL     1       5.868  -4.882  24.596  0.00  0.00    +0.114 C 
ATOM      8  C   UNL     1       4.567  -5.357  24.065  0.00  0.00    +0.088 C 
ATOM      9  N   UNL     1       4.468  -5.931  22.726  0.00  0.00    -0.186 N 
ATOM     10  O   UNL     1       3.351  -6.322  22.377  0.00  0.00    -0.173 OA
ATOM     11  O   UNL     1       5.508  -5.969  22.063  0.00  0.00    -0.777 OA
ATOM     12  C   UNL     1       3.393  -5.359  24.979  0.00  0.00    +0.114 C 
ATOM     13  C   UNL     1       3.439  -4.489  26.004  0.00  0.00    +0.322 C 
ATOM     14  C   UNL     1       5.739  -0.857  27.990  0.00  0.00    +0.178 C 
ATOM     15  O   UNL     1       4.212  -2.398  25.320  0.00  0.00    -0.322 OA
ATOM     16  O   UNL     1       6.650  -0.853  26.882  0.00  0.00    -0.346 OA
ENDROOT
BRANCH   1  24
ATOM     17  N   UNL     1       9.944  -1.223  21.318  0.00  0.00    -0.341 N 
ATOM     18  H   UNL     1       9.366  -1.917  20.858  0.00  0.00    +0.144 HD
ATOM     19  H   UNL     1      10.946  -1.283  21.211  0.00  0.00    +0.144 HD
ATOM     20  C   UNL     1       9.558  -0.912  22.614  0.00  0.00    +0.147 A 
ATOM     21  C   UNL     1       8.251  -1.109  23.094  0.00  0.00    +0.147 A 
ATOM     22  N   UNL     1       7.135  -1.673  22.540  0.00  0.00    -0.231 NA
ATOM     23  C   UNL     1       6.196  -1.524  23.456  0.00  0.00    +0.203 A 
ATOM     24  N   UNL     1       6.658  -0.845  24.558  0.00  0.00    -0.286 N 
ATOM     25  C   UNL     1       7.998  -0.661  24.386  0.00  0.00    +0.167 A 
ATOM     26  N   UNL     1       8.875  -0.139  25.253  0.00  0.00    -0.216 NA
ATOM     27  C   UNL     1      10.101  -0.052  24.703  0.00  0.00    +0.225 A 
ATOM     28  N   UNL     1      10.479  -0.383  23.448  0.00  0.00    -0.219 NA
ENDBRANCH   1  24
BRANCH   6  29
ATOM     29  N   UNL     1       7.053  -3.838  26.361  0.00  0.00    +0.081 N 
ATOM     30  O   UNL     1       7.098  -4.069  27.573  0.00  0.00    +0.041 OA
ATOM     31  O   UNL     1       8.019  -3.487  25.676  0.00  0.00    -0.576 OA
ENDBRANCH   6  29
BRANCH  13  32
ATOM     32  N   UNL     1       2.349  -4.525  26.938  0.00  0.00    +0.081 N 
ATOM     33  O   UNL     1       1.462  -3.672  26.832  0.00  0.00    +0.041 OA
ATOM     34  O   UNL     1       2.353  -5.440  27.777  0.00  0.00    -0.576 OA
ENDBRANCH  13  32
BRANCH  14  35
ATOM     35  C   UNL     1       5.514   0.590  28.388  0.00  0.00    +0.206 C 
BRANCH  35  36
ATOM     36  O   UNL     1       6.754   1.242  28.547  0.00  0.00    -0.284 OA
BRANCH  36  37
ATOM     37  P   UNL     1       6.914   2.733  27.684  0.00  0.00    +0.483 P 
ATOM     38  O   UNL     1       5.470   2.631  27.192  0.00  0.00    -0.227 OA
BRANCH  37  39
ATOM     39  O   UNL     1       7.914   2.037  26.598  0.00  0.00    -0.302 OA
ATOM     40  H   UNL     1       7.740   1.091  26.429  0.00  0.00    +0.222 HD
ENDBRANCH  37  39
BRANCH  37  41
ATOM     41  O   UNL     1       7.075   4.223  26.822  0.00  0.00    -0.186 OA
BRANCH  41  42
ATOM     42  P   UNL     1       7.641   4.416  25.146  0.00  0.00    +0.492 P 
ATOM     43  O   UNL     1       7.461   5.875  24.828  0.00  0.00    -0.226 OA
BRANCH  42  44
ATOM     44  O   UNL     1       6.462   3.622  24.378  0.00  0.00    -0.302 OA
ATOM     45  H   UNL     1       6.511   2.679  24.656  0.00  0.00    +0.222 HD
ENDBRANCH  42  44
BRANCH  42  46
ATOM     46  O   UNL     1       9.139   3.783  24.079  0.00  0.00    -0.186 OA
BRANCH  46  47
ATOM     47  P   UNL     1       8.214   2.901  22.912  0.00  0.00    +0.481 P 
ATOM     48  O   UNL     1       7.386   2.112  21.868  0.00  0.00    -0.227 OA
BRANCH  47  49
ATOM     49  O   UNL     1       9.655   2.563  22.208  0.00  0.00    -0.302 OA
ATOM     50  H   UNL     1       9.687   1.589  22.130  0.00  0.00    +0.222 HD
ENDBRANCH  47  49
BRANCH  47  51
ATOM     51  O   UNL     1       8.071   4.353  22.157  0.00  0.00    -0.302 OA
ATOM     52  H   UNL     1       8.437   4.350  21.256  0.00  0.00    +0.222 HD
ENDBRANCH  47  51
ENDBRANCH  46  47
ENDBRANCH  42  46
ENDBRANCH  41  42
ENDBRANCH  37  41
ENDBRANCH  36  37
ENDBRANCH  35  36
ENDBRANCH  14  35
TORSDOF 14
ENDMDL
MODEL 5
REMARK VINA RESULT:      -6.7      2.345      4.869
REMARK  Name = 
REMARK  14 active torsions:
REMARK  status: ('A' for Active; 'I' for Inactive)
REMARK    1  A    between atoms: N_10  and  C_11
REMARK    2  A    between atoms: C_13  and  C_14
REMARK    3  A    between atoms: C_14  and  O_15
REMARK    4  A    between atoms: O_15  and  P_16
REMARK    5  A    between atoms: P_16  and  O_17
REMARK    6  A    between atoms: P_16  and  O_19
REMARK    7  A    between atoms: O_19  and  P_20
REMARK    8  A    between atoms: P_20  and  O_21
REMARK    9  A    between atoms: P_20  and  O_23
REMARK   10  A    between atoms: O_23  and  P_24
REMARK   11  A    between atoms: P_24  and  O_25
REMARK   12  A    between atoms: P_24  and  O_26
REMARK   13  A    between atoms: C_33  and  N_44
REMARK   14  A    between atoms: C_37  and  N_38
REMARK                            x       y       z     vdW  Elec       q    Type
REMARK                         _______ _______ _______ _____ _____    ______ ____
ROOT
ATOM      1  C   UNL     1       7.420  -2.790  22.963  0.00  0.00    +0.254 C 
ATOM      2  C   UNL     1       6.963  -1.541  23.762  0.00  0.00    +0.204 C 
ATOM      3  C   UNL     1       8.229  -0.981  24.380  0.00  0.00    +0.187 C 
ATOM      4  O   UNL     1       8.176  -1.291  25.788  0.00  0.00    -0.323 OA
ATOM      5  C   UNL     1       6.905  -1.853  26.062  0.00  0.00    +0.358 C 
ATOM      6  C   UNL     1       6.916  -3.313  26.447  0.00  0.00    +0.322 C 
ATOM      7  C   UNL     1       5.886  -3.946  27.029  0.00  0.00    +0.114 C 
ATOM      8  C   UNL     1       4.778  -3.083  27.510  0.00  0.00    +0.088 C 
ATOM      9  N   UNL     1       3.474  -3.651  27.838  0.00  0.00    -0.186 N 
ATOM     10  O   UNL     1       2.621  -2.863  28.254  0.00  0.00    -0.173 OA
ATOM     11  O   UNL     1       3.341  -4.866  27.667  0.00  0.00    -0.777 OA
ATOM     12  C   UNL     1       5.069  -1.649  27.778  0.00  0.00    +0.114 C 
ATOM     13  C   UNL     1       6.109  -1.121  27.106  0.00  0.00    +0.322 C 
ATOM     14  C   UNL     1       9.345  -1.766  23.710  0.00  0.00    +0.178 C 
ATOM     15  O   UNL     1       6.106  -1.774  24.868  0.00  0.00    -0.322 OA
ATOM     16  O   UNL     1       8.766  -3.048  23.428  0.00  0.00    -0.346 OA
ENDROOT
BRANCH   1  24
ATOM     17  N   UNL     1       3.700  -7.484  23.718  0.00  0.00    -0.341 N 
ATOM     18  H   UNL     1       4.251  -8.053  23.086  0.00  0.00    +0.144 HD
ATOM     19  H   UNL     1       2.710  -7.667  23.794  0.00  0.00    +0.144 HD
ATOM     20  C   UNL     1       3.996  -6.129  23.687  0.00  0.00    +0.147 A 
ATOM     21  C   UNL     1       5.232  -5.623  23.246  0.00  0.00    +0.147 A 
ATOM     22  N   UNL     1       6.337  -6.218  22.702  0.00  0.00    -0.231 NA
ATOM     23  C   UNL     1       7.201  -5.234  22.539  0.00  0.00    +0.203 A 
ATOM     24  N   UNL     1       6.706  -4.037  23.000  0.00  0.00    -0.286 N 
ATOM     25  C   UNL     1       5.410  -4.249  23.363  0.00  0.00    +0.167 A 
ATOM     26  N   UNL     1       4.511  -3.343  23.770  0.00  0.00    -0.216 NA
ATOM     27  C   UNL     1       3.351  -3.937  24.111  0.00  0.00    +0.225 A 
ATOM     28  N   UNL     1       3.057  -5.257  24.113  0.00  0.00    -0.219 NA
ENDBRANCH   1  24
BRANCH   6  29
ATOM     29  N   UNL     1       8.108  -4.093  26.224  0.00  0.00    +0.081 N 
ATOM     30  O   UNL     1       9.178  -3.645  26.644  0.00  0.00    +0.041 OA
ATOM     31  O   UNL     1       7.968  -5.201  25.696  0.00  0.00    -0.576 OA
ENDBRANCH   6  29
BRANCH  13  32
ATOM     32  N   UNL     1       6.451   0.242  27.404  0.00  0.00    +0.081 N 
ATOM     33  O   UNL     1       7.241   0.457  28.329  0.00  0.00    +0.041 OA
ATOM     34  O   UNL     1       5.950   1.121  26.684  0.00  0.00    -0.576 OA
ENDBRANCH  13  32
BRANCH  14  35
ATOM     35  C   UNL     1       9.781  -1.171  22.384  0.00  0.00    +0.206 C 
BRANCH  35  36
ATOM     36  O   UNL     1      10.333   0.109  22.591  0.00  0.00    -0.284 OA
BRANCH  36  37
ATOM     37  P   UNL     1       9.287   1.431  22.199  0.00  0.00    +0.483 P 
ATOM     38  O   UNL     1       8.660   0.628  21.059  0.00  0.00    -0.227 OA
BRANCH  37  39
ATOM     39  O   UNL     1      10.544   2.301  21.629  0.00  0.00    -0.302 OA
ATOM     40  H   UNL     1      11.374   2.199  22.133  0.00  0.00    +0.222 HD
ENDBRANCH  37  39
BRANCH  37  41
ATOM     41  O   UNL     1       8.242   2.752  21.808  0.00  0.00    -0.186 OA
BRANCH  41  42
ATOM     42  P   UNL     1       6.935   3.401  22.826  0.00  0.00    +0.492 P 
ATOM     43  O   UNL     1       6.548   2.276  23.746  0.00  0.00    -0.226 OA
BRANCH  42  44
ATOM     44  O   UNL     1       5.770   3.519  21.714  0.00  0.00    -0.302 OA
ATOM     45  H   UNL     1       5.349   4.402  21.819  0.00  0.00    +0.222 HD
ENDBRANCH  42  44
BRANCH  42  46
ATOM     46  O   UNL     1       6.576   5.060  23.776  0.00  0.00    -0.186 OA
BRANCH  46  47
ATOM     47  P   UNL     1       8.101   5.818  23.468  0.00  0.00    +0.481 P 
ATOM     48  O   UNL     1       9.466   6.496  23.192  0.00  0.00    -0.227 OA
BRANCH  47  49
ATOM     49  O   UNL     1       7.876   5.357  21.912  0.00  0.00    -0.302 OA
ATOM     50  H   UNL     1       7.343   4.539  21.954  0.00  0.00    +0.222 HD
ENDBRANCH  47  49
BRANCH  47  51
ATOM     51  O   UNL     1       8.736   4.369  23.911  0.00  0.00    -0.302 OA
ATOM     52  H   UNL     1       8.113   3.820  24.417  0.00  0.00    +0.222 HD
ENDBRANCH  47  51
ENDBRANCH  46  47
ENDBRANCH  42  46
ENDBRANCH  41  42
ENDBRANCH  37  41
ENDBRANCH  36  37
ENDBRANCH  35  36
ENDBRANCH  14  35
TORSDOF 14
ENDMDL
MODEL 6
REMARK VINA RESULT:      -6.7      4.261      8.363
REMARK  Name = 
REMARK  14 active torsions:
REMARK  status: ('A' for Active; 'I' for Inactive)
REMARK    1  A    between atoms: N_10  and  C_11
REMARK    2  A    between atoms: C_13  and  C_14
REMARK    3  A    between atoms: C_14  and  O_15
REMARK    4  A    between atoms: O_15  and  P_16
REMARK    5  A    between atoms: P_16  and  O_17
REMARK    6  A    between atoms: P_16  and  O_19
REMARK    7  A    between atoms: O_19  and  P_20
REMARK    8  A    between atoms: P_20  and  O_21
REMARK    9  A    between atoms: P_20  and  O_23
REMARK   10  A    between atoms: O_23  and  P_24
REMARK   11  A    between atoms: P_24  and  O_25
REMARK   12  A    between atoms: P_24  and  O_26
REMARK   13  A    between atoms: C_33  and  N_44
REMARK   14  A    between atoms: C_37  and  N_38
REMARK                            x       y       z     vdW  Elec       q    Type
REMARK                         _______ _______ _______ _____ _____    ______ ____
ROOT
ATOM      1  C   UNL     1       6.007  -2.261  23.969  0.00  0.00    +0.254 C 
ATOM      2  C   UNL     1       6.465  -1.159  22.977  0.00  0.00    +0.204 C 
ATOM      3  C   UNL     1       7.791  -1.646  22.428  0.00  0.00    +0.187 C 
ATOM      4  O   UNL     1       8.815  -0.832  23.037  0.00  0.00    -0.323 OA
ATOM      5  C   UNL     1       8.175   0.190  23.779  0.00  0.00    +0.358 C 
ATOM      6  C   UNL     1       8.332   0.093  25.277  0.00  0.00    +0.322 C 
ATOM      7  C   UNL     1       8.073   1.099  26.128  0.00  0.00    +0.114 C 
ATOM      8  C   UNL     1       7.839   2.429  25.514  0.00  0.00    +0.088 C 
ATOM      9  N   UNL     1       7.219   3.508  26.277  0.00  0.00    -0.186 N 
ATOM     10  O   UNL     1       7.085   4.587  25.693  0.00  0.00    -0.173 OA
ATOM     11  O   UNL     1       6.881   3.244  27.434  0.00  0.00    -0.777 OA
ATOM     12  C   UNL     1       8.372   2.677  24.148  0.00  0.00    +0.114 C 
ATOM     13  C   UNL     1       8.558   1.588  23.378  0.00  0.00    +0.322 C 
ATOM     14  C   UNL     1       7.893  -3.079  22.926  0.00  0.00    +0.178 C 
ATOM     15  O   UNL     1       6.760   0.112  23.533  0.00  0.00    -0.322 OA
ATOM     16  O   UNL     1       7.183  -3.079  24.173  0.00  0.00    -0.346 OA
ENDROOT
BRANCH   1  24
ATOM     17  N   UNL     1       3.680  -2.075  29.536  0.00  0.00    -0.341 N 
ATOM     18  H   UNL     1       3.767  -1.066  29.565  0.00  0.00    +0.144 HD
ATOM     19  H   UNL     1       3.736  -2.589  30.404  0.00  0.00    +0.144 HD
ATOM     20  C   UNL     1       4.370  -2.688  28.500  0.00  0.00    +0.147 A 
ATOM     21  C   UNL     1       4.731  -2.020  27.316  0.00  0.00    +0.147 A 
ATOM     22  N   UNL     1       4.611  -0.719  26.913  0.00  0.00    -0.231 NA
ATOM     23  C   UNL     1       5.084  -0.706  25.681  0.00  0.00    +0.203 A 
ATOM     24  N   UNL     1       5.463  -1.960  25.264  0.00  0.00    -0.286 N 
ATOM     25  C   UNL     1       5.337  -2.795  26.334  0.00  0.00    +0.167 A 
ATOM     26  N   UNL     1       5.690  -4.085  26.418  0.00  0.00    -0.216 NA
ATOM     27  C   UNL     1       5.347  -4.601  27.614  0.00  0.00    +0.225 A 
ATOM     28  N   UNL     1       4.699  -3.991  28.632  0.00  0.00    -0.219 NA
ENDBRANCH   1  24
BRANCH   6  29
ATOM     29  N   UNL     1       8.828  -1.130  25.858  0.00  0.00    +0.081 N 
ATOM     30  O   UNL     1       9.796  -1.673  25.319  0.00  0.00    +0.041 OA
ATOM     31  O   UNL     1       8.299  -1.513  26.906  0.00  0.00    -0.576 OA
ENDBRANCH   6  29
BRANCH  13  32
ATOM     32  N   UNL     1       9.139   1.799  22.082  0.00  0.00    +0.081 N 
ATOM     33  O   UNL     1       8.393   1.778  21.098  0.00  0.00    +0.041 OA
ATOM     34  O   UNL     1      10.359   2.022  22.039  0.00  0.00    -0.576 OA
ENDBRANCH  13  32
BRANCH  14  35
ATOM     35  C   UNL     1       7.200  -4.077  22.017  0.00  0.00    +0.206 C 
BRANCH  35  36
ATOM     36  O   UNL     1       7.176  -5.346  22.629  0.00  0.00    -0.284 OA
BRANCH  36  37
ATOM     37  P   UNL     1       5.614  -6.083  22.732  0.00  0.00    +0.483 P 
ATOM     38  O   UNL     1       4.952  -4.806  22.212  0.00  0.00    -0.227 OA
BRANCH  37  39
ATOM     39  O   UNL     1       5.666  -6.048  24.362  0.00  0.00    -0.302 OA
ATOM     40  H   UNL     1       5.609  -6.922  24.792  0.00  0.00    +0.222 HD
ENDBRANCH  37  39
BRANCH  37  41
ATOM     41  O   UNL     1       4.052  -6.819  22.835  0.00  0.00    -0.186 OA
BRANCH  41  42
ATOM     42  P   UNL     1       2.634  -6.169  23.691  0.00  0.00    +0.492 P 
ATOM     43  O   UNL     1       1.744  -5.602  22.619  0.00  0.00    -0.226 OA
BRANCH  42  44
ATOM     44  O   UNL     1       3.329  -4.915  24.434  0.00  0.00    -0.302 OA
ATOM     45  H   UNL     1       3.964  -4.510  23.801  0.00  0.00    +0.222 HD
ENDBRANCH  42  44
BRANCH  42  46
ATOM     46  O   UNL     1       1.477  -6.744  25.145  0.00  0.00    -0.186 OA
BRANCH  46  47
ATOM     47  P   UNL     1       1.841  -8.433  25.054  0.00  0.00    +0.481 P 
ATOM     48  O   UNL     1       2.167  -9.945  24.973  0.00  0.00    -0.227 OA
BRANCH  47  49
ATOM     49  O   UNL     1       3.408  -7.978  25.209  0.00  0.00    -0.302 OA
ATOM     50  H   UNL     1       3.515  -7.719  26.146  0.00  0.00    +0.222 HD
ENDBRANCH  47  49
BRANCH  47  51
ATOM     51  O   UNL     1       1.826  -8.191  23.430  0.00  0.00    -0.302 OA
ATOM     52  H   UNL     1       1.443  -8.936  22.938  0.00  0.00    +0.222 HD
ENDBRANCH  47  51
ENDBRANCH  46  47
ENDBRANCH  42  46
ENDBRANCH  41  42
ENDBRANCH  37  41
ENDBRANCH  36  37
ENDBRANCH  35  36
ENDBRANCH  14  35
TORSDOF 14
ENDMDL
MODEL 7
REMARK VINA RESULT:      -6.7      4.387      8.175
REMARK  Name = 
REMARK  14 active torsions:
REMARK  status: ('A' for Active; 'I' for Inactive)
REMARK    1  A    between atoms: N_10  and  C_11
REMARK    2  A    between atoms: C_13  and  C_14
REMARK    3  A    between atoms: C_14  and  O_15
REMARK    4  A    between atoms: O_15  and  P_16
REMARK    5  A    between atoms: P_16  and  O_17
REMARK    6  A    between atoms: P_16  and  O_19
REMARK    7  A    between atoms: O_19  and  P_20
REMARK    8  A    between atoms: P_20  and  O_21
REMARK    9  A    between atoms: P_20  and  O_23
REMARK   10  A    between atoms: O_23  and  P_24
REMARK   11  A    between atoms: P_24  and  O_25
REMARK   12  A    between atoms: P_24  and  O_26
REMARK   13  A    between atoms: C_33  and  N_44
REMARK   14  A    between atoms: C_37  and  N_38
REMARK                            x       y       z     vdW  Elec       q    Type
REMARK                         _______ _______ _______ _____ _____    ______ ____
ROOT
ATOM      1  C   UNL     1       5.012  -1.503  26.465  0.00  0.00    +0.254 C 
ATOM      2  C   UNL     1       4.912  -2.210  25.087  0.00  0.00    +0.204 C 
ATOM      3  C   UNL     1       5.111  -3.683  25.382  0.00  0.00    +0.187 C 
ATOM      4  O   UNL     1       6.431  -4.026  24.909  0.00  0.00    -0.323 OA
ATOM      5  C   UNL     1       6.953  -2.901  24.224  0.00  0.00    +0.358 C 
ATOM      6  C   UNL     1       8.123  -2.224  24.896  0.00  0.00    +0.322 C 
ATOM      7  C   UNL     1       8.941  -1.353  24.284  0.00  0.00    +0.114 C 
ATOM      8  C   UNL     1       8.796  -1.246  22.811  0.00  0.00    +0.088 C 
ATOM      9  N   UNL     1       9.365  -0.116  22.082  0.00  0.00    -0.186 N 
ATOM     10  O   UNL     1       9.217  -0.122  20.858  0.00  0.00    -0.173 OA
ATOM     11  O   UNL     1       9.938   0.745  22.756  0.00  0.00    -0.777 OA
ATOM     12  C   UNL     1       8.176  -2.384  22.081  0.00  0.00    +0.114 C 
ATOM     13  C   UNL     1       7.347  -3.166  22.797  0.00  0.00    +0.322 C 
ATOM     14  C   UNL     1       5.059  -3.766  26.899  0.00  0.00    +0.178 C 
ATOM     15  O   UNL     1       5.923  -1.901  24.141  0.00  0.00    -0.322 OA
ATOM     16  O   UNL     1       5.571  -2.504  27.348  0.00  0.00    -0.346 OA
ENDROOT
BRANCH   1  24
ATOM     17  N   UNL     1       7.909   3.789  26.250  0.00  0.00    -0.341 N 
ATOM     18  H   UNL     1       8.099   3.753  27.245  0.00  0.00    +0.144 HD
ATOM     19  H   UNL     1       7.814   4.693  25.809  0.00  0.00    +0.144 HD
ATOM     20  C   UNL     1       6.969   2.870  25.804  0.00  0.00    +0.147 A 
ATOM     21  C   UNL     1       6.670   1.681  26.493  0.00  0.00    +0.147 A 
ATOM     22  N   UNL     1       7.088   1.175  27.694  0.00  0.00    -0.231 NA
ATOM     23  C   UNL     1       6.502  -0.004  27.781  0.00  0.00    +0.203 A 
ATOM     24  N   UNL     1       5.758  -0.291  26.662  0.00  0.00    -0.286 N 
ATOM     25  C   UNL     1       5.774   0.820  25.871  0.00  0.00    +0.167 A 
ATOM     26  N   UNL     1       5.100   1.029  24.733  0.00  0.00    -0.216 NA
ATOM     27  C   UNL     1       5.424   2.221  24.195  0.00  0.00    +0.225 A 
ATOM     28  N   UNL     1       6.320   3.126  24.648  0.00  0.00    -0.219 NA
ENDBRANCH   1  24
BRANCH   6  29
ATOM     29  N   UNL     1       8.431  -2.541  26.268  0.00  0.00    +0.081 N 
ATOM     30  O   UNL     1       8.416  -3.729  26.602  0.00  0.00    +0.041 OA
ATOM     31  O   UNL     1       8.768  -1.608  27.003  0.00  0.00    -0.576 OA
ENDBRANCH   6  29
BRANCH  13  32
ATOM     32  N   UNL     1       6.794  -4.311  22.130  0.00  0.00    +0.081 N 
ATOM     33  O   UNL     1       7.476  -5.340  22.075  0.00  0.00    +0.041 OA
ATOM     34  O   UNL     1       5.644  -4.200  21.676  0.00  0.00    -0.576 OA
ENDBRANCH  13  32
BRANCH  14  35
ATOM     35  C   UNL     1       3.647  -3.893  27.441  0.00  0.00    +0.206 C 
BRANCH  35  36
ATOM     36  O   UNL     1       3.514  -5.102  28.154  0.00  0.00    -0.284 OA
BRANCH  36  37
ATOM     37  P   UNL     1       2.818  -6.409  27.259  0.00  0.00    +0.483 P 
ATOM     38  O   UNL     1       1.989  -6.830  28.473  0.00  0.00    -0.227 OA
BRANCH  37  39
ATOM     39  O   UNL     1       4.238  -7.212  27.261  0.00  0.00    -0.302 OA
ATOM     40  H   UNL     1       4.468  -7.639  26.413  0.00  0.00    +0.222 HD
ENDBRANCH  37  39
BRANCH  37  41
ATOM     41  O   UNL     1       2.123  -7.715  26.364  0.00  0.00    -0.186 OA
BRANCH  41  42
ATOM     42  P   UNL     1       2.269  -7.989  24.612  0.00  0.00    +0.492 P 
ATOM     43  O   UNL     1       1.961  -9.447  24.407  0.00  0.00    -0.226 OA
BRANCH  42  44
ATOM     44  O   UNL     1       3.868  -7.822  24.453  0.00  0.00    -0.302 OA
ATOM     45  H   UNL     1       4.097  -6.903  24.719  0.00  0.00    +0.222 HD
ENDBRANCH  42  44
BRANCH  42  46
ATOM     46  O   UNL     1       1.733  -7.062  22.988  0.00  0.00    -0.186 OA
BRANCH  46  47
ATOM     47  P   UNL     1       1.692  -5.466  23.656  0.00  0.00    +0.481 P 
ATOM     48  O   UNL     1       1.655  -4.038  24.254  0.00  0.00    -0.227 OA
BRANCH  47  49
ATOM     49  O   UNL     1       0.804  -5.070  22.337  0.00  0.00    -0.302 OA
ATOM     50  H   UNL     1      -0.129  -5.209  22.597  0.00  0.00    +0.222 HD
ENDBRANCH  47  49
BRANCH  47  51
ATOM     51  O   UNL     1       3.124  -5.269  22.875  0.00  0.00    -0.302 OA
ATOM     52  H   UNL     1       3.340  -6.011  22.285  0.00  0.00    +0.222 HD
ENDBRANCH  47  51
ENDBRANCH  46  47
ENDBRANCH  42  46
ENDBRANCH  41  42
ENDBRANCH  37  41
ENDBRANCH  36  37
ENDBRANCH  35  36
ENDBRANCH  14  35
TORSDOF 14
ENDMDL
MODEL 8
REMARK VINA RESULT:      -6.6      1.350      1.901
REMARK  Name = 
REMARK  14 active torsions:
REMARK  status: ('A' for Active; 'I' for Inactive)
REMARK    1  A    between atoms: N_10  and  C_11
REMARK    2  A    between atoms: C_13  and  C_14
REMARK    3  A    between atoms: C_14  and  O_15
REMARK    4  A    between atoms: O_15  and  P_16
REMARK    5  A    between atoms: P_16  and  O_17
REMARK    6  A    between atoms: P_16  and  O_19
REMARK    7  A    between atoms: O_19  and  P_20
REMARK    8  A    between atoms: P_20  and  O_21
REMARK    9  A    between atoms: P_20  and  O_23
REMARK   10  A    between atoms: O_23  and  P_24
REMARK   11  A    between atoms: P_24  and  O_25
REMARK   12  A    between atoms: P_24  and  O_26
REMARK   13  A    between atoms: C_33  and  N_44
REMARK   14  A    between atoms: C_37  and  N_38
REMARK                            x       y       z     vdW  Elec       q    Type
REMARK                         _______ _______ _______ _____ _____    ______ ____
ROOT
ATOM      1  C   UNL     1       7.453  -0.095  25.213  0.00  0.00    +0.254 C 
ATOM      2  C   UNL     1       8.462  -1.273  25.247  0.00  0.00    +0.204 C 
ATOM      3  C   UNL     1       8.550  -1.761  23.814  0.00  0.00    +0.187 C 
ATOM      4  O   UNL     1       7.841  -3.016  23.759  0.00  0.00    -0.323 OA
ATOM      5  C   UNL     1       7.480  -3.370  25.082  0.00  0.00    +0.358 C 
ATOM      6  C   UNL     1       6.000  -3.339  25.376  0.00  0.00    +0.322 C 
ATOM      7  C   UNL     1       5.432  -3.919  26.445  0.00  0.00    +0.114 C 
ATOM      8  C   UNL     1       6.304  -4.819  27.239  0.00  0.00    +0.088 C 
ATOM      9  N   UNL     1       5.928  -5.230  28.589  0.00  0.00    -0.186 N 
ATOM     10  O   UNL     1       6.701  -5.999  29.164  0.00  0.00    -0.173 OA
ATOM     11  O   UNL     1       4.874  -4.767  29.033  0.00  0.00    -0.777 OA
ATOM     12  C   UNL     1       7.503  -5.400  26.577  0.00  0.00    +0.114 C 
ATOM     13  C   UNL     1       7.999  -4.707  25.536  0.00  0.00    +0.322 C 
ATOM     14  C   UNL     1       7.806  -0.701  23.018  0.00  0.00    +0.178 C 
ATOM     15  O   UNL     1       8.074  -2.420  25.985  0.00  0.00    -0.322 OA
ATOM     16  O   UNL     1       6.809  -0.203  23.922  0.00  0.00    -0.346 OA
ENDROOT
BRANCH   1  24
ATOM     17  N   UNL     1       2.801   1.436  28.744  0.00  0.00    -0.341 N 
ATOM     18  H   UNL     1       2.935   0.613  29.319  0.00  0.00    +0.144 HD
ATOM     19  H   UNL     1       1.870   1.817  28.655  0.00  0.00    +0.144 HD
ATOM     20  C   UNL     1       3.495   1.425  27.542  0.00  0.00    +0.147 A 
ATOM     21  C   UNL     1       4.648   0.647  27.328  0.00  0.00    +0.147 A 
ATOM     22  N   UNL     1       5.298  -0.278  28.098  0.00  0.00    -0.231 NA
ATOM     23  C   UNL     1       6.348  -0.630  27.380  0.00  0.00    +0.203 A 
ATOM     24  N   UNL     1       6.418   0.067  26.197  0.00  0.00    -0.286 N 
ATOM     25  C   UNL     1       5.283   0.816  26.103  0.00  0.00    +0.167 A 
ATOM     26  N   UNL     1       4.879   1.571  25.073  0.00  0.00    -0.216 NA
ATOM     27  C   UNL     1       3.738   2.222  25.373  0.00  0.00    +0.225 A 
ATOM     28  N   UNL     1       3.049   2.208  26.537  0.00  0.00    -0.219 NA
ENDBRANCH   1  24
BRANCH   6  29
ATOM     29  N   UNL     1       5.109  -2.688  24.448  0.00  0.00    +0.081 N 
ATOM     30  O   UNL     1       5.228  -2.956  23.249  0.00  0.00    +0.041 OA
ATOM     31  O   UNL     1       4.229  -1.963  24.923  0.00  0.00    -0.576 OA
ENDBRANCH   6  29
BRANCH  13  32
ATOM     32  N   UNL     1       9.112  -5.287  24.838  0.00  0.00    +0.081 N 
ATOM     33  O   UNL     1       8.876  -6.058  23.902  0.00  0.00    +0.041 OA
ATOM     34  O   UNL     1      10.248  -4.947  25.205  0.00  0.00    -0.576 OA
ENDBRANCH  13  32
BRANCH  14  35
ATOM     35  C   UNL     1       8.681   0.475  22.626  0.00  0.00    +0.206 C 
BRANCH  35  36
ATOM     36  O   UNL     1       8.012   1.275  21.677  0.00  0.00    -0.284 OA
BRANCH  36  37
ATOM     37  P   UNL     1       7.775   2.924  22.144  0.00  0.00    +0.483 P 
ATOM     38  O   UNL     1       8.821   2.786  23.250  0.00  0.00    -0.227 OA
BRANCH  37  39
ATOM     39  O   UNL     1       6.297   2.579  22.741  0.00  0.00    -0.302 OA
ATOM     40  H   UNL     1       5.881   3.302  23.248  0.00  0.00    +0.222 HD
ENDBRANCH  37  39
BRANCH  37  41
ATOM     41  O   UNL     1       7.538   4.572  22.610  0.00  0.00    -0.186 OA
BRANCH  41  42
ATOM     42  P   UNL     1       8.366   5.423  23.935  0.00  0.00    +0.492 P 
ATOM     43  O   UNL     1       7.997   6.872  23.773  0.00  0.00    -0.226 OA
BRANCH  42  44
ATOM     44  O   UNL     1       9.893   5.271  23.431  0.00  0.00    -0.302 OA
ATOM     45  H   UNL     1       9.990   5.809  22.612  0.00  0.00    +0.222 HD
ENDBRANCH  42  44
BRANCH  42  46
ATOM     46  O   UNL     1       8.673   5.124  25.832  0.00  0.00    -0.186 OA
BRANCH  46  47
ATOM     47  P   UNL     1       7.011   5.048  26.309  0.00  0.00    +0.481 P 
ATOM     48  O   UNL     1       5.524   4.981  26.735  0.00  0.00    -0.227 OA
BRANCH  47  49
ATOM     49  O   UNL     1       7.564   4.337  27.678  0.00  0.00    -0.302 OA
ATOM     50  H   UNL     1       7.510   5.024  28.371  0.00  0.00    +0.222 HD
ENDBRANCH  47  49
BRANCH  47  51
ATOM     51  O   UNL     1       6.994   3.639  25.464  0.00  0.00    -0.302 OA
ATOM     52  H   UNL     1       7.760   3.073  25.655  0.00  0.00    +0.222 HD
ENDBRANCH  47  51
ENDBRANCH  46  47
ENDBRANCH  42  46
ENDBRANCH  41  42
ENDBRANCH  37  41
ENDBRANCH  36  37
ENDBRANCH  35  36
ENDBRANCH  14  35
TORSDOF 14
ENDMDL
MODEL 9
REMARK VINA RESULT:      -6.6      3.732      8.461
REMARK  Name = 
REMARK  14 active torsions:
REMARK  status: ('A' for Active; 'I' for Inactive)
REMARK    1  A    between atoms: N_10  and  C_11
REMARK    2  A    between atoms: C_13  and  C_14
REMARK    3  A    between atoms: C_14  and  O_15
REMARK    4  A    between atoms: O_15  and  P_16
REMARK    5  A    between atoms: P_16  and  O_17
REMARK    6  A    between atoms: P_16  and  O_19
REMARK    7  A    between atoms: O_19  and  P_20
REMARK    8  A    between atoms: P_20  and  O_21
REMARK    9  A    between atoms: P_20  and  O_23
REMARK   10  A    between atoms: O_23  and  P_24
REMARK   11  A    between atoms: P_24  and  O_25
REMARK   12  A    between atoms: P_24  and  O_26
REMARK   13  A    between atoms: C_33  and  N_44
REMARK   14  A    between atoms: C_37  and  N_38
REMARK                            x       y       z     vdW  Elec       q    Type
REMARK                         _______ _______ _______ _____ _____    ______ ____
ROOT
ATOM      1  C   UNL     1       6.526  -0.550  25.606  0.00  0.00    +0.254 C 
ATOM      2  C   UNL     1       6.618   0.059  27.030  0.00  0.00    +0.204 C 
ATOM      3  C   UNL     1       5.206   0.004  27.577  0.00  0.00    +0.187 C 
ATOM      4  O   UNL     1       4.703   1.356  27.566  0.00  0.00    -0.323 OA
ATOM      5  C   UNL     1       5.769   2.213  27.198  0.00  0.00    +0.358 C 
ATOM      6  C   UNL     1       5.623   2.883  25.853  0.00  0.00    +0.322 C 
ATOM      7  C   UNL     1       6.347   3.940  25.455  0.00  0.00    +0.114 C 
ATOM      8  C   UNL     1       7.166   4.600  26.502  0.00  0.00    +0.088 C 
ATOM      9  N   UNL     1       8.242   5.520  26.143  0.00  0.00    -0.186 N 
ATOM     10  O   UNL     1       8.854   6.041  27.079  0.00  0.00    -0.173 OA
ATOM     11  O   UNL     1       8.445   5.690  24.938  0.00  0.00    -0.777 OA
ATOM     12  C   UNL     1       6.779   4.406  27.925  0.00  0.00    +0.114 C 
ATOM     13  C   UNL     1       6.082   3.289  28.202  0.00  0.00    +0.322 C 
ATOM     14  C   UNL     1       4.452  -0.846  26.566  0.00  0.00    +0.178 C 
ATOM     15  O   UNL     1       6.973   1.430  27.112  0.00  0.00    -0.322 OA
ATOM     16  O   UNL     1       5.109  -0.589  25.317  0.00  0.00    -0.346 OA
ENDROOT
BRANCH   1  24
ATOM     17  N   UNL     1      10.078   2.133  21.528  0.00  0.00    -0.341 N 
ATOM     18  H   UNL     1       9.444   1.886  20.777  0.00  0.00    +0.144 HD
ATOM     19  H   UNL     1      11.061   2.226  21.317  0.00  0.00    +0.144 HD
ATOM     20  C   UNL     1       9.844   1.474  22.727  0.00  0.00    +0.147 A 
ATOM     21  C   UNL     1       8.596   0.921  23.068  0.00  0.00    +0.147 A 
ATOM     22  N   UNL     1       7.418   0.797  22.384  0.00  0.00    -0.231 NA
ATOM     23  C   UNL     1       6.590   0.236  23.244  0.00  0.00    +0.203 A 
ATOM     24  N   UNL     1       7.181   0.035  24.469  0.00  0.00    -0.286 N 
ATOM     25  C   UNL     1       8.495   0.376  24.343  0.00  0.00    +0.167 A 
ATOM     26  N   UNL     1       9.470   0.244  25.252  0.00  0.00    -0.216 NA
ATOM     27  C   UNL     1      10.628   0.756  24.793  0.00  0.00    +0.225 A 
ATOM     28  N   UNL     1      10.859   1.372  23.611  0.00  0.00    -0.219 NA
ENDBRANCH   1  24
BRANCH   6  29
ATOM     29  N   UNL     1       4.624   2.404  24.930  0.00  0.00    +0.081 N 
ATOM     30  O   UNL     1       3.515   2.105  25.384  0.00  0.00    +0.041 OA
ATOM     31  O   UNL     1       4.917   2.399  23.731  0.00  0.00    -0.576 OA
ENDBRANCH   6  29
BRANCH  13  32
ATOM     32  N   UNL     1       5.636   3.118  29.556  0.00  0.00    +0.081 N 
ATOM     33  O   UNL     1       4.590   3.677  29.900  0.00  0.00    +0.041 OA
ATOM     34  O   UNL     1       6.321   2.386  30.289  0.00  0.00    -0.576 OA
ENDBRANCH  13  32
BRANCH  14  35
ATOM     35  C   UNL     1       4.568  -2.335  26.834  0.00  0.00    +0.206 C 
BRANCH  35  36
ATOM     36  O   UNL     1       3.823  -3.054  25.877  0.00  0.00    -0.284 OA
BRANCH  36  37
ATOM     37  P   UNL     1       4.741  -4.158  24.912  0.00  0.00    +0.483 P 
ATOM     38  O   UNL     1       3.458  -4.799  24.382  0.00  0.00    -0.227 OA
BRANCH  37  39
ATOM     39  O   UNL     1       5.244  -4.957  26.242  0.00  0.00    -0.302 OA
ATOM     40  H   UNL     1       5.213  -5.930  26.171  0.00  0.00    +0.222 HD
ENDBRANCH  37  39
BRANCH  37  41
ATOM     41  O   UNL     1       5.659  -5.261  23.947  0.00  0.00    -0.186 OA
BRANCH  41  42
ATOM     42  P   UNL     1       7.353  -5.062  23.439  0.00  0.00    +0.492 P 
ATOM     43  O   UNL     1       7.466  -3.635  22.976  0.00  0.00    -0.226 OA
BRANCH  42  44
ATOM     44  O   UNL     1       7.340  -5.985  22.114  0.00  0.00    -0.302 OA
ATOM     45  H   UNL     1       7.113  -6.901  22.393  0.00  0.00    +0.222 HD
ENDBRANCH  42  44
BRANCH  42  46
ATOM     46  O   UNL     1       9.100  -5.580  24.117  0.00  0.00    -0.186 OA
BRANCH  46  47
ATOM     47  P   UNL     1       9.029  -4.688  25.598  0.00  0.00    +0.481 P 
ATOM     48  O   UNL     1       8.965  -3.891  26.924  0.00  0.00    -0.227 OA
BRANCH  47  49
ATOM     49  O   UNL     1      10.416  -5.468  25.991  0.00  0.00    -0.302 OA
ATOM     50  H   UNL     1      10.316  -5.728  26.928  0.00  0.00    +0.222 HD
ENDBRANCH  47  49
BRANCH  47  51
ATOM     51  O   UNL     1       8.072  -5.920  26.114  0.00  0.00    -0.302 OA
ATOM     52  H   UNL     1       7.351  -5.624  26.694  0.00  0.00    +0.222 HD
ENDBRANCH  47  51
ENDBRANCH  46  47
ENDBRANCH  42  46
ENDBRANCH  41  42
ENDBRANCH  37  41
ENDBRANCH  36  37
ENDBRANCH  35  36
ENDBRANCH  14  35
TORSDOF 14
ENDMDL
