MODEL 1
REMARK VINA RESULT:      -3.9      0.000      0.000
REMARK  Name = 
REMARK  6 active torsions:
REMARK  status: ('A' for Active; 'I' for Inactive)
REMARK    1  A    between atoms: N_1  and  CA_5
REMARK    2  A    between atoms: CA_5  and  C_7
REMARK    3  A    between atoms: CA_5  and  C_11
REMARK    4  A    between atoms: C_7  and  C_8
REMARK    5  A    between atoms: C_8  and  C_9
REMARK    6  A    between atoms: C_11  and  O_12
REMARK                            x       y       z     vdW  Elec       q    Type
REMARK                         _______ _______ _______ _____ _____    ______ ____
ROOT
ATOM      1  CA  UNL     1       9.119  -4.569  25.811  0.00  0.00    +0.171 C 
ENDROOT
BRANCH   1   2
ATOM      2  N   UNL     1      10.239  -5.577  25.639  0.00  0.00    +0.229 N 
ATOM      3  H1  UNL     1      11.148  -5.111  25.783  0.00  0.00    +0.200 HD
ATOM      4  H2  UNL     1      10.259  -5.932  24.673  0.00  0.00    +0.200 HD
ATOM      5  H3  UNL     1      10.155  -6.374  26.277  0.00  0.00    +0.200 HD
ENDBRANCH   1   2
BRANCH   1   6
ATOM      6  C   UNL     1       7.865  -5.306  26.266  0.00  0.00    +0.354 C 
ATOM      7  OXT UNL     1       6.895  -5.415  25.526  0.00  0.00    -0.245 OA
BRANCH   6   8
ATOM      8  O   UNL     1       7.924  -5.856  27.493  0.00  0.00    -0.477 OA
ATOM      9  H   UNL     1       7.976  -6.835  27.572  0.00  0.00    +0.295 HD
ENDBRANCH   6   8
ENDBRANCH   1   6
BRANCH   1  10
ATOM     10  C   UNL     1       8.903  -3.878  24.459  0.00  0.00    +0.073 C 
BRANCH  10  11
ATOM     11  C   UNL     1       9.596  -2.524  24.274  0.00  0.00    +0.077 C 
BRANCH  11  12
ATOM     12  C   UNL     1       9.524  -2.008  22.860  0.00  0.00    +0.223 C 
ATOM     13  O   UNL     1      10.539  -1.761  22.214  0.00  0.00    -0.301 OA
ENDBRANCH  11  12
ENDBRANCH  10  11
ENDBRANCH   1  10
TORSDOF 6
ENDMDL
MODEL 2
REMARK VINA RESULT:      -3.9      5.086      6.829
REMARK  Name = 
REMARK  6 active torsions:
REMARK  status: ('A' for Active; 'I' for Inactive)
REMARK    1  A    between atoms: N_1  and  CA_5
REMARK    2  A    between atoms: CA_5  and  C_7
REMARK    3  A    between atoms: CA_5  and  C_11
REMARK    4  A    between atoms: C_7  and  C_8
REMARK    5  A    between atoms: C_8  and  C_9
REMARK    6  A    between atoms: C_11  and  O_12
REMARK                            x       y       z     vdW  Elec       q    Type
REMARK                         _______ _______ _______ _____ _____    ______ ____
ROOT
ATOM      1  CA  UNL     1       9.912   1.823  24.152  0.00  0.00    +0.171 C 
ENDROOT
BRANCH   1   2
ATOM      2  N   UNL     1       8.513   1.426  23.721  0.00  0.00    +0.229 N 
ATOM      3  H1  UNL     1       8.571   0.736  22.956  0.00  0.00    +0.200 HD
ATOM      4  H2  UNL     1       8.014   2.236  23.329  0.00  0.00    +0.200 HD
ATOM      5  H3  UNL     1       7.956   1.041  24.490  0.00  0.00    +0.200 HD
ENDBRANCH   1   2
BRANCH   1   6
ATOM      6  C   UNL     1      10.542   2.662  23.047  0.00  0.00    +0.354 C 
ATOM      7  OXT UNL     1      11.291   3.595  23.314  0.00  0.00    -0.245 OA
BRANCH   6   8
ATOM      8  O   UNL     1      10.258   2.279  21.789  0.00  0.00    -0.477 OA
ATOM      9  H   UNL     1      10.999   2.053  21.183  0.00  0.00    +0.295 HD
ENDBRANCH   6   8
ENDBRANCH   1   6
BRANCH   1  10
ATOM     10  C   UNL     1      10.706   0.535  24.399  0.00  0.00    +0.073 C 
BRANCH  10  11
ATOM     11  C   UNL     1       9.998  -0.776  24.038  0.00  0.00    +0.077 C 
BRANCH  11  12
ATOM     12  C   UNL     1      10.307  -1.254  22.643  0.00  0.00    +0.223 C 
ATOM     13  O   UNL     1       9.881  -0.665  21.654  0.00  0.00    -0.301 OA
ENDBRANCH  11  12
ENDBRANCH  10  11
ENDBRANCH   1  10
TORSDOF 6
ENDMDL
MODEL 3
REMARK VINA RESULT:      -3.8      3.640      6.005
REMARK  Name = 
REMARK  6 active torsions:
REMARK  status: ('A' for Active; 'I' for Inactive)
REMARK    1  A    between atoms: N_1  and  CA_5
REMARK    2  A    between atoms: CA_5  and  C_7
REMARK    3  A    between atoms: CA_5  and  C_11
REMARK    4  A    between atoms: C_7  and  C_8
REMARK    5  A    between atoms: C_8  and  C_9
REMARK    6  A    between atoms: C_11  and  O_12
REMARK                            x       y       z     vdW  Elec       q    Type
REMARK                         _______ _______ _______ _____ _____    ______ ____
ROOT
ATOM      1  CA  UNL     1       8.978   0.080  21.836  0.00  0.00    +0.171 C 
ENDROOT
BRANCH   1   2
ATOM      2  N   UNL     1       9.747  -1.026  21.137  0.00  0.00    +0.229 N 
ATOM      3  H1  UNL     1      10.259  -0.634  20.332  0.00  0.00    +0.200 HD
ATOM      4  H2  UNL     1       9.098  -1.721  20.742  0.00  0.00    +0.200 HD
ATOM      5  H3  UNL     1      10.400  -1.508  21.761  0.00  0.00    +0.200 HD
ENDBRANCH   1   2
BRANCH   1   6
ATOM      6  C   UNL     1       9.975   1.097  22.379  0.00  0.00    +0.354 C 
ATOM      7  OXT UNL     1      10.572   0.896  23.430  0.00  0.00    -0.245 OA
BRANCH   6   8
ATOM      8  O   UNL     1      10.178   2.183  21.610  0.00  0.00    -0.477 OA
ATOM      9  H   UNL     1      10.962   2.749  21.787  0.00  0.00    +0.295 HD
ENDBRANCH   6   8
ENDBRANCH   1   6
BRANCH   1  10
ATOM     10  C   UNL     1       8.162  -0.562  22.964  0.00  0.00    +0.073 C 
BRANCH  10  11
ATOM     11  C   UNL     1       8.107  -2.093  22.971  0.00  0.00    +0.077 C 
BRANCH  11  12
ATOM     12  C   UNL     1       9.060  -2.718  23.956  0.00  0.00    +0.223 C 
ATOM     13  O   UNL     1      10.258  -2.827  23.709  0.00  0.00    -0.301 OA
ENDBRANCH  11  12
ENDBRANCH  10  11
ENDBRANCH   1  10
TORSDOF 6
ENDMDL
MODEL 4
REMARK VINA RESULT:      -3.8      4.732      6.332
REMARK  Name = 
REMARK  6 active torsions:
REMARK  status: ('A' for Active; 'I' for Inactive)
REMARK    1  A    between atoms: N_1  and  CA_5
REMARK    2  A    between atoms: CA_5  and  C_7
REMARK    3  A    between atoms: CA_5  and  C_11
REMARK    4  A    between atoms: C_7  and  C_8
REMARK    5  A    between atoms: C_8  and  C_9
REMARK    6  A    between atoms: C_11  and  O_12
REMARK                            x       y       z     vdW  Elec       q    Type
REMARK                         _______ _______ _______ _____ _____    ______ ____
ROOT
ATOM      1  CA  UNL     1       9.026   1.672  22.821  0.00  0.00    +0.171 C 
ENDROOT
BRANCH   1   2
ATOM      2  N   UNL     1       9.632   2.215  21.541  0.00  0.00    +0.229 N 
ATOM      3  H1  UNL     1       9.004   2.009  20.748  0.00  0.00    +0.200 HD
ATOM      4  H2  UNL     1      10.516   1.732  21.328  0.00  0.00    +0.200 HD
ATOM      5  H3  UNL     1       9.813   3.222  21.586  0.00  0.00    +0.200 HD
ENDBRANCH   1   2
BRANCH   1   6
ATOM      6  C   UNL     1      10.054   1.798  23.939  0.00  0.00    +0.354 C 
ATOM      7  OXT UNL     1      11.044   2.509  23.807  0.00  0.00    -0.245 OA
BRANCH   6   8
ATOM      8  O   UNL     1       9.775   1.124  25.069  0.00  0.00    -0.477 OA
ATOM      9  H   UNL     1       8.846   0.850  25.240  0.00  0.00    +0.295 HD
ENDBRANCH   6   8
ENDBRANCH   1   6
BRANCH   1  10
ATOM     10  C   UNL     1       8.646   0.207  22.572  0.00  0.00    +0.073 C 
BRANCH  10  11
ATOM     11  C   UNL     1       9.719  -0.665  21.911  0.00  0.00    +0.077 C 
BRANCH  11  12
ATOM     12  C   UNL     1      10.235  -1.757  22.811  0.00  0.00    +0.223 C 
ATOM     13  O   UNL     1      10.036  -1.737  24.023  0.00  0.00    -0.301 OA
ENDBRANCH  11  12
ENDBRANCH  10  11
ENDBRANCH   1  10
TORSDOF 6
ENDMDL
MODEL 5
REMARK VINA RESULT:      -3.7      5.060      6.615
REMARK  Name = 
REMARK  6 active torsions:
REMARK  status: ('A' for Active; 'I' for Inactive)
REMARK    1  A    between atoms: N_1  and  CA_5
REMARK    2  A    between atoms: CA_5  and  C_7
REMARK    3  A    between atoms: CA_5  and  C_11
REMARK    4  A    between atoms: C_7  and  C_8
REMARK    5  A    between atoms: C_8  and  C_9
REMARK    6  A    between atoms: C_11  and  O_12
REMARK                            x       y       z     vdW  Elec       q    Type
REMARK                         _______ _______ _______ _____ _____    ______ ____
ROOT
ATOM      1  CA  UNL     1       9.996   2.103  24.111  0.00  0.00    +0.171 C 
ENDROOT
BRANCH   1   2
ATOM      2  N   UNL     1       8.872   1.901  25.110  0.00  0.00    +0.229 N 
ATOM      3  H1  UNL     1       8.082   1.425  24.648  0.00  0.00    +0.200 HD
ATOM      4  H2  UNL     1       8.504   2.809  25.426  0.00  0.00    +0.200 HD
ATOM      5  H3  UNL     1       9.166   1.365  25.932  0.00  0.00    +0.200 HD
ENDBRANCH   1   2
BRANCH   1   6
ATOM      6  C   UNL     1       9.387   2.390  22.744  0.00  0.00    +0.354 C 
ATOM      7  OXT UNL     1       8.272   2.890  22.643  0.00  0.00    -0.245 OA
BRANCH   6   8
ATOM      8  O   UNL     1      10.166   2.104  21.685  0.00  0.00    -0.477 OA
ATOM      9  H   UNL     1       9.754   1.705  20.887  0.00  0.00    +0.295 HD
ENDBRANCH   6   8
ENDBRANCH   1   6
BRANCH   1  10
ATOM     10  C   UNL     1      10.838   0.822  24.091  0.00  0.00    +0.073 C 
BRANCH  10  11
ATOM     11  C   UNL     1      10.063  -0.497  24.192  0.00  0.00    +0.077 C 
BRANCH  11  12
ATOM     12  C   UNL     1      10.188  -1.355  22.960  0.00  0.00    +0.223 C 
ATOM     13  O   UNL     1      10.030  -0.889  21.835  0.00  0.00    -0.301 OA
ENDBRANCH  11  12
ENDBRANCH  10  11
ENDBRANCH   1  10
TORSDOF 6
ENDMDL
MODEL 6
REMARK VINA RESULT:      -3.7      4.596      5.945
REMARK  Name = 
REMARK  6 active torsions:
REMARK  status: ('A' for Active; 'I' for Inactive)
REMARK    1  A    between atoms: N_1  and  CA_5
REMARK    2  A    between atoms: CA_5  and  C_7
REMARK    3  A    between atoms: CA_5  and  C_11
REMARK    4  A    between atoms: C_7  and  C_8
REMARK    5  A    between atoms: C_8  and  C_9
REMARK    6  A    between atoms: C_11  and  O_12
REMARK                            x       y       z     vdW  Elec       q    Type
REMARK                         _______ _______ _______ _____ _____    ______ ____
ROOT
ATOM      1  CA  UNL     1      10.109   0.839  22.258  0.00  0.00    +0.171 C 
ENDROOT
BRANCH   1   2
ATOM      2  N   UNL     1       9.462   1.901  21.390  0.00  0.00    +0.229 N 
ATOM      3  H1  UNL     1       9.968   1.969  20.493  0.00  0.00    +0.200 HD
ATOM      4  H2  UNL     1       9.550   2.828  21.829  0.00  0.00    +0.200 HD
ATOM      5  H3  UNL     1       8.470   1.717  21.213  0.00  0.00    +0.200 HD
ENDBRANCH   1   2
BRANCH   1   6
ATOM      6  C   UNL     1       9.421  -0.495  21.989  0.00  0.00    +0.354 C 
ATOM      7  OXT UNL     1       8.228  -0.646  22.221  0.00  0.00    -0.245 OA
BRANCH   6   8
ATOM      8  O   UNL     1      10.195  -1.453  21.447  0.00  0.00    -0.477 OA
ATOM      9  H   UNL     1       9.991  -1.769  20.539  0.00  0.00    +0.295 HD
ENDBRANCH   6   8
ENDBRANCH   1   6
BRANCH   1  10
ATOM     10  C   UNL     1       9.945   1.269  23.720  0.00  0.00    +0.073 C 
BRANCH  10  11
ATOM     11  C   UNL     1      10.492   0.300  24.775  0.00  0.00    +0.077 C 
BRANCH  11  12
ATOM     12  C   UNL     1       9.415  -0.324  25.623  0.00  0.00    +0.223 C 
ATOM     13  O   UNL     1       9.010  -1.463  25.409  0.00  0.00    -0.301 OA
ENDBRANCH  11  12
ENDBRANCH  10  11
ENDBRANCH   1  10
TORSDOF 6
ENDMDL
MODEL 7
REMARK VINA RESULT:      -3.7      4.279      6.013
REMARK  Name = 
REMARK  6 active torsions:
REMARK  status: ('A' for Active; 'I' for Inactive)
REMARK    1  A    between atoms: N_1  and  CA_5
REMARK    2  A    between atoms: CA_5  and  C_7
REMARK    3  A    between atoms: CA_5  and  C_11
REMARK    4  A    between atoms: C_7  and  C_8
REMARK    5  A    between atoms: C_8  and  C_9
REMARK    6  A    between atoms: C_11  and  O_12
REMARK                            x       y       z     vdW  Elec       q    Type
REMARK                         _______ _______ _______ _____ _____    ______ ____
ROOT
ATOM      1  CA  UNL     1       8.853   0.830  21.614  0.00  0.00    +0.171 C 
ENDROOT
BRANCH   1   2
ATOM      2  N   UNL     1       9.608   2.138  21.467  0.00  0.00    +0.229 N 
ATOM      3  H1  UNL     1       9.988   2.421  22.382  0.00  0.00    +0.200 HD
ATOM      4  H2  UNL     1       8.967   2.893  21.185  0.00  0.00    +0.200 HD
ATOM      5  H3  UNL     1      10.366   2.081  20.780  0.00  0.00    +0.200 HD
ENDBRANCH   1   2
BRANCH   1   6
ATOM      6  C   UNL     1       7.901   0.948  22.799  0.00  0.00    +0.354 C 
ATOM      7  OXT UNL     1       8.305   1.310  23.898  0.00  0.00    -0.245 OA
BRANCH   6   8
ATOM      8  O   UNL     1       6.609   0.677  22.539  0.00  0.00    -0.477 OA
ATOM      9  H   UNL     1       6.334   0.526  21.607  0.00  0.00    +0.295 HD
ENDBRANCH   6   8
ENDBRANCH   1   6
BRANCH   1  10
ATOM     10  C   UNL     1       9.886  -0.281  21.835  0.00  0.00    +0.073 C 
BRANCH  10  11
ATOM     11  C   UNL     1       9.335  -1.635  22.294  0.00  0.00    +0.077 C 
BRANCH  11  12
ATOM     12  C   UNL     1       9.817  -2.040  23.663  0.00  0.00    +0.223 C 
ATOM     13  O   UNL     1      10.197  -3.184  23.897  0.00  0.00    -0.301 OA
ENDBRANCH  11  12
ENDBRANCH  10  11
ENDBRANCH   1  10
TORSDOF 6
ENDMDL
MODEL 8
REMARK VINA RESULT:      -3.7      6.284      7.833
REMARK  Name = 
REMARK  6 active torsions:
REMARK  status: ('A' for Active; 'I' for Inactive)
REMARK    1  A    between atoms: N_1  and  CA_5
REMARK    2  A    between atoms: CA_5  and  C_7
REMARK    3  A    between atoms: CA_5  and  C_11
REMARK    4  A    between atoms: C_7  and  C_8
REMARK    5  A    between atoms: C_8  and  C_9
REMARK    6  A    between atoms: C_11  and  O_12
REMARK                            x       y       z     vdW  Elec       q    Type
REMARK                         _______ _______ _______ _____ _____    ______ ____
ROOT
ATOM      1  CA  UNL     1      10.579   2.653  23.254  0.00  0.00    +0.171 C 
ENDROOT
BRANCH   1   2
ATOM      2  N   UNL     1      10.149   2.324  21.836  0.00  0.00    +0.229 N 
ATOM      3  H1  UNL     1      10.429   1.358  21.607  0.00  0.00    +0.200 HD
ATOM      4  H2  UNL     1      10.643   2.924  21.162  0.00  0.00    +0.200 HD
ATOM      5  H3  UNL     1       9.141   2.434  21.693  0.00  0.00    +0.200 HD
ENDBRANCH   1   2
BRANCH   1   6
ATOM      6  C   UNL     1      10.324   1.436  24.135  0.00  0.00    +0.354 C 
ATOM      7  OXT UNL     1      10.958   0.400  23.977  0.00  0.00    -0.245 OA
BRANCH   6   8
ATOM      8  O   UNL     1       9.405   1.599  25.104  0.00  0.00    -0.477 OA
ATOM      9  H   UNL     1       8.513   1.934  24.861  0.00  0.00    +0.295 HD
ENDBRANCH   6   8
ENDBRANCH   1   6
BRANCH   1  10
ATOM     10  C   UNL     1       9.760   3.863  23.719  0.00  0.00    +0.073 C 
BRANCH  10  11
ATOM     11  C   UNL     1      10.506   5.200  23.784  0.00  0.00    +0.077 C 
BRANCH  11  12
ATOM     12  C   UNL     1      11.972   5.079  23.454  0.00  0.00    +0.223 C 
ATOM     13  O   UNL     1      12.829   5.648  24.123  0.00  0.00    -0.301 OA
ENDBRANCH  11  12
ENDBRANCH  10  11
ENDBRANCH   1  10
TORSDOF 6
ENDMDL
MODEL 9
REMARK VINA RESULT:      -3.6      2.416      2.618
REMARK  Name = 
REMARK  6 active torsions:
REMARK  status: ('A' for Active; 'I' for Inactive)
REMARK    1  A    between atoms: N_1  and  CA_5
REMARK    2  A    between atoms: CA_5  and  C_7
REMARK    3  A    between atoms: CA_5  and  C_11
REMARK    4  A    between atoms: C_7  and  C_8
REMARK    5  A    between atoms: C_8  and  C_9
REMARK    6  A    between atoms: C_11  and  O_12
REMARK                            x       y       z     vdW  Elec       q    Type
REMARK                         _______ _______ _______ _____ _____    ______ ____
ROOT
ATOM      1  CA  UNL     1       8.784  -4.761  25.299  0.00  0.00    +0.171 C 
ENDROOT
BRANCH   1   2
ATOM      2  N   UNL     1       9.838  -5.844  25.439  0.00  0.00    +0.229 N 
ATOM      3  H1  UNL     1      10.434  -5.856  24.598  0.00  0.00    +0.200 HD
ATOM      4  H2  UNL     1       9.396  -6.773  25.481  0.00  0.00    +0.200 HD
ATOM      5  H3  UNL     1      10.420  -5.723  26.274  0.00  0.00    +0.200 HD
ENDBRANCH   1   2
BRANCH   1   6
ATOM      6  C   UNL     1       7.994  -4.680  26.600  0.00  0.00    +0.354 C 
ATOM      7  OXT UNL     1       7.343  -3.680  26.880  0.00  0.00    -0.245 OA
BRANCH   6   8
ATOM      8  O   UNL     1       8.027  -5.780  27.374  0.00  0.00    -0.477 OA
ATOM      9  H   UNL     1       7.809  -5.695  28.329  0.00  0.00    +0.295 HD
ENDBRANCH   6   8
ENDBRANCH   1   6
BRANCH   1  10
ATOM     10  C   UNL     1       7.882  -5.140  24.119  0.00  0.00    +0.073 C 
BRANCH  10  11
ATOM     11  C   UNL     1       7.520  -4.006  23.153  0.00  0.00    +0.077 C 
BRANCH  11  12
ATOM     12  C   UNL     1       6.716  -4.470  21.967  0.00  0.00    +0.223 C 
ATOM     13  O   UNL     1       5.573  -4.066  21.770  0.00  0.00    -0.301 OA
ENDBRANCH  11  12
ENDBRANCH  10  11
ENDBRANCH   1  10
TORSDOF 6
ENDMDL
