MODEL 1
REMARK VINA RESULT:      -7.0      0.000      0.000
REMARK  Name = 
REMARK  13 active torsions:
REMARK  status: ('A' for Active; 'I' for Inactive)
REMARK    1  A    between atoms: N_6  and  C_9
REMARK    2  A    between atoms: C_12  and  O_14
REMARK    3  A    between atoms: C_15  and  C_17
REMARK    4  A    between atoms: C_17  and  O_18
REMARK    5  A    between atoms: O_18  and  P_19
REMARK    6  A    between atoms: P_19  and  O_20
REMARK    7  A    between atoms: P_19  and  O_22
REMARK    8  A    between atoms: O_22  and  P_23
REMARK    9  A    between atoms: P_23  and  O_24
REMARK   10  A    between atoms: P_23  and  O_26
REMARK   11  A    between atoms: O_26  and  P_27
REMARK   12  A    between atoms: P_27  and  O_28
REMARK   13  A    between atoms: P_27  and  O_29
REMARK                            x       y       z     vdW  Elec       q    Type
REMARK                         _______ _______ _______ _____ _____    ______ ____
ROOT
ATOM      1  C   UNL     1       6.461  -3.889  22.260  0.00  0.00    +0.206 C 
ENDROOT
BRANCH   1   4
ATOM      2  C   UNL     1       8.981  -1.644  23.036  0.00  0.00    +0.226 C 
ATOM      3  O   UNL     1       7.597  -1.757  22.640  0.00  0.00    -0.348 OA
ATOM      4  C   UNL     1       7.034  -2.917  23.299  0.00  0.00    +0.175 C 
ATOM      5  C   UNL     1       8.153  -3.542  24.140  0.00  0.00    +0.150 C 
ATOM      6  C   UNL     1       9.100  -2.390  24.351  0.00  0.00    +0.088 C 
BRANCH   2  13
ATOM      7  N   UNL     1      10.847   3.536  23.155  0.00  0.00    -0.343 N 
ATOM      8  H   UNL     1      10.687   4.097  23.983  0.00  0.00    +0.144 HD
ATOM      9  H   UNL     1      10.662   4.025  22.287  0.00  0.00    +0.144 HD
ATOM     10  C   UNL     1      10.396   2.253  23.155  0.00  0.00    +0.123 A 
ATOM     11  C   UNL     1      10.312   1.505  24.417  0.00  0.00    +0.061 A 
ATOM     12  C   UNL     1       9.804   0.272  24.352  0.00  0.00    +0.096 A 
ATOM     13  N   UNL     1       9.405  -0.260  23.137  0.00  0.00    -0.273 N 
ATOM     14  C   UNL     1       9.585   0.456  21.947  0.00  0.00    +0.352 A 
ATOM     15  O   UNL     1       9.337  -0.069  20.856  0.00  0.00    -0.244 OA
ATOM     16  N   UNL     1      10.048   1.747  22.014  0.00  0.00    -0.178 NA
ENDBRANCH   2  13
BRANCH   5  17
ATOM     17  O   UNL     1       7.720  -4.066  25.384  0.00  0.00    -0.389 OA
ATOM     18  H   UNL     1       6.773  -4.279  25.334  0.00  0.00    +0.210 HD
ENDBRANCH   5  17
ENDBRANCH   1   4
BRANCH   1  19
ATOM     19  O   UNL     1       5.040  -3.855  22.251  0.00  0.00    -0.284 OA
BRANCH  19  20
ATOM     20  P   UNL     1       4.315  -4.576  23.647  0.00  0.00    +0.483 P 
ATOM     21  O   UNL     1       5.498  -5.531  23.752  0.00  0.00    -0.227 OA
BRANCH  20  22
ATOM     22  O   UNL     1       3.160  -5.251  22.711  0.00  0.00    -0.302 OA
ATOM     23  H   UNL     1       3.287  -6.201  22.557  0.00  0.00    +0.222 HD
ENDBRANCH  20  22
BRANCH  20  24
ATOM     24  O   UNL     1       3.590  -5.296  25.042  0.00  0.00    -0.186 OA
BRANCH  24  25
ATOM     25  P   UNL     1       3.946  -6.826  25.767  0.00  0.00    +0.492 P 
ATOM     26  O   UNL     1       2.634  -7.524  26.132  0.00  0.00    -0.226 OA
BRANCH  25  27
ATOM     27  O   UNL     1       3.867  -7.581  24.212  0.00  0.00    -0.302 OA
ATOM     28  H   UNL     1       4.170  -6.892  23.587  0.00  0.00    +0.222 HD
ENDBRANCH  25  27
BRANCH  25  29
ATOM     29  O   UNL     1       4.025  -6.071  27.321  0.00  0.00    -0.186 OA
BRANCH  29  30
ATOM     30  P   UNL     1       5.665  -6.058  27.872  0.00  0.00    +0.481 P 
ATOM     31  O   UNL     1       7.133  -6.047  28.365  0.00  0.00    -0.227 OA
BRANCH  30  32
ATOM     32  O   UNL     1       6.096  -6.419  26.330  0.00  0.00    -0.302 OA
ATOM     33  H   UNL     1       7.020  -6.724  26.298  0.00  0.00    +0.222 HD
ENDBRANCH  30  32
BRANCH  30  34
ATOM     34  O   UNL     1       5.363  -7.593  28.362  0.00  0.00    -0.302 OA
ATOM     35  H   UNL     1       5.201  -7.639  29.322  0.00  0.00    +0.222 HD
ENDBRANCH  30  34
ENDBRANCH  29  30
ENDBRANCH  25  29
ENDBRANCH  24  25
ENDBRANCH  20  24
ENDBRANCH  19  20
ENDBRANCH   1  19
TORSDOF 13
ENDMDL
MODEL 2
REMARK VINA RESULT:      -6.9      2.531      4.435
REMARK  Name = 
REMARK  13 active torsions:
REMARK  status: ('A' for Active; 'I' for Inactive)
REMARK    1  A    between atoms: N_6  and  C_9
REMARK    2  A    between atoms: C_12  and  O_14
REMARK    3  A    between atoms: C_15  and  C_17
REMARK    4  A    between atoms: C_17  and  O_18
REMARK    5  A    between atoms: O_18  and  P_19
REMARK    6  A    between atoms: P_19  and  O_20
REMARK    7  A    between atoms: P_19  and  O_22
REMARK    8  A    between atoms: O_22  and  P_23
REMARK    9  A    between atoms: P_23  and  O_24
REMARK   10  A    between atoms: P_23  and  O_26
REMARK   11  A    between atoms: O_26  and  P_27
REMARK   12  A    between atoms: P_27  and  O_28
REMARK   13  A    between atoms: P_27  and  O_29
REMARK                            x       y       z     vdW  Elec       q    Type
REMARK                         _______ _______ _______ _____ _____    ______ ____
ROOT
ATOM      1  C   UNL     1       7.576  -0.440  23.966  0.00  0.00    +0.206 C 
ENDROOT
BRANCH   1   4
ATOM      2  C   UNL     1       9.275   2.445  23.082  0.00  0.00    +0.226 C 
ATOM      3  O   UNL     1       9.065   1.491  24.146  0.00  0.00    -0.348 OA
ATOM      4  C   UNL     1       8.915   0.180  23.550  0.00  0.00    +0.175 C 
ATOM      5  C   UNL     1       9.038   0.360  22.033  0.00  0.00    +0.150 C 
ATOM      6  C   UNL     1       9.808   1.649  21.906  0.00  0.00    +0.088 C 
BRANCH   2  13
ATOM      7  N   UNL     1      12.436   6.752  24.420  0.00  0.00    -0.343 N 
ATOM      8  H   UNL     1      13.407   6.592  24.662  0.00  0.00    +0.144 HD
ATOM      9  H   UNL     1      11.959   7.392  25.044  0.00  0.00    +0.144 HD
ATOM     10  C   UNL     1      11.680   5.677  24.073  0.00  0.00    +0.123 A 
ATOM     11  C   UNL     1      12.307   4.515  23.428  0.00  0.00    +0.061 A 
ATOM     12  C   UNL     1      11.516   3.471  23.169  0.00  0.00    +0.096 A 
ATOM     13  N   UNL     1      10.167   3.517  23.483  0.00  0.00    -0.273 N 
ATOM     14  C   UNL     1       9.594   4.678  24.017  0.00  0.00    +0.352 A 
ATOM     15  O   UNL     1       8.372   4.754  24.183  0.00  0.00    -0.244 OA
ATOM     16  N   UNL     1      10.413   5.731  24.343  0.00  0.00    -0.178 NA
ENDBRANCH   2  13
BRANCH   5  17
ATOM     17  O   UNL     1       9.722  -0.695  21.376  0.00  0.00    -0.389 OA
ATOM     18  H   UNL     1       9.693  -0.550  20.415  0.00  0.00    +0.210 HD
ENDBRANCH   5  17
ENDBRANCH   1   4
BRANCH   1  19
ATOM     19  O   UNL     1       6.946  -1.091  22.871  0.00  0.00    -0.284 OA
BRANCH  19  20
ATOM     20  P   UNL     1       6.650  -2.775  23.135  0.00  0.00    +0.483 P 
ATOM     21  O   UNL     1       7.906  -3.107  22.338  0.00  0.00    -0.227 OA
BRANCH  20  22
ATOM     22  O   UNL     1       5.370  -2.720  22.123  0.00  0.00    -0.302 OA
ATOM     23  H   UNL     1       4.540  -2.460  22.555  0.00  0.00    +0.222 HD
ENDBRANCH  20  22
BRANCH  20  24
ATOM     24  O   UNL     1       6.354  -4.458  23.399  0.00  0.00    -0.186 OA
BRANCH  24  25
ATOM     25  P   UNL     1       5.906  -5.663  22.242  0.00  0.00    +0.492 P 
ATOM     26  O   UNL     1       5.900  -5.037  20.846  0.00  0.00    -0.226 OA
BRANCH  25  27
ATOM     27  O   UNL     1       7.573  -6.061  22.011  0.00  0.00    -0.302 OA
ATOM     28  H   UNL     1       8.055  -5.484  22.638  0.00  0.00    +0.222 HD
ENDBRANCH  25  27
BRANCH  25  29
ATOM     29  O   UNL     1       4.238  -5.265  22.472  0.00  0.00    -0.186 OA
BRANCH  29  30
ATOM     30  P   UNL     1       3.605  -6.182  23.796  0.00  0.00    +0.481 P 
ATOM     31  O   UNL     1       3.037  -7.003  24.979  0.00  0.00    -0.227 OA
BRANCH  30  32
ATOM     32  O   UNL     1       4.906  -7.167  23.625  0.00  0.00    -0.302 OA
ATOM     33  H   UNL     1       5.037  -7.396  22.688  0.00  0.00    +0.222 HD
ENDBRANCH  30  32
BRANCH  30  34
ATOM     34  O   UNL     1       2.660  -6.897  22.662  0.00  0.00    -0.302 OA
ATOM     35  H   UNL     1       1.778  -7.115  23.014  0.00  0.00    +0.222 HD
ENDBRANCH  30  34
ENDBRANCH  29  30
ENDBRANCH  25  29
ENDBRANCH  24  25
ENDBRANCH  20  24
ENDBRANCH  19  20
ENDBRANCH   1  19
TORSDOF 13
ENDMDL
MODEL 3
REMARK VINA RESULT:      -6.9      1.845      3.325
REMARK  Name = 
REMARK  13 active torsions:
REMARK  status: ('A' for Active; 'I' for Inactive)
REMARK    1  A    between atoms: N_6  and  C_9
REMARK    2  A    between atoms: C_12  and  O_14
REMARK    3  A    between atoms: C_15  and  C_17
REMARK    4  A    between atoms: C_17  and  O_18
REMARK    5  A    between atoms: O_18  and  P_19
REMARK    6  A    between atoms: P_19  and  O_20
REMARK    7  A    between atoms: P_19  and  O_22
REMARK    8  A    between atoms: O_22  and  P_23
REMARK    9  A    between atoms: P_23  and  O_24
REMARK   10  A    between atoms: P_23  and  O_26
REMARK   11  A    between atoms: O_26  and  P_27
REMARK   12  A    between atoms: P_27  and  O_28
REMARK   13  A    between atoms: P_27  and  O_29
REMARK                            x       y       z     vdW  Elec       q    Type
REMARK                         _______ _______ _______ _____ _____    ______ ____
ROOT
ATOM      1  C   UNL     1       7.070  -4.521  26.923  0.00  0.00    +0.206 C 
ENDROOT
BRANCH   1   4
ATOM      2  C   UNL     1       8.406  -2.773  24.249  0.00  0.00    +0.226 C 
ATOM      3  O   UNL     1       7.888  -2.642  25.591  0.00  0.00    -0.348 OA
ATOM      4  C   UNL     1       8.298  -3.806  26.347  0.00  0.00    +0.175 C 
ATOM      5  C   UNL     1       9.110  -4.695  25.399  0.00  0.00    +0.150 C 
ATOM      6  C   UNL     1       9.585  -3.723  24.349  0.00  0.00    +0.088 C 
BRANCH   2  13
ATOM      7  N   UNL     1       9.641   1.981  21.759  0.00  0.00    -0.343 N 
ATOM      8  H   UNL     1      10.371   2.565  22.149  0.00  0.00    +0.144 HD
ATOM      9  H   UNL     1       8.811   2.492  21.486  0.00  0.00    +0.144 HD
ATOM     10  C   UNL     1       9.367   0.802  22.378  0.00  0.00    +0.123 A 
ATOM     11  C   UNL     1      10.430   0.086  23.098  0.00  0.00    +0.061 A 
ATOM     12  C   UNL     1      10.077  -1.034  23.733  0.00  0.00    +0.096 A 
ATOM     13  N   UNL     1       8.769  -1.489  23.679  0.00  0.00    -0.273 N 
ATOM     14  C   UNL     1       7.808  -0.823  22.908  0.00  0.00    +0.352 A 
ATOM     15  O   UNL     1       6.676  -1.298  22.770  0.00  0.00    -0.244 OA
ATOM     16  N   UNL     1       8.150   0.363  22.305  0.00  0.00    -0.178 NA
ENDBRANCH   2  13
BRANCH   5  17
ATOM     17  O   UNL     1      10.212  -5.344  26.012  0.00  0.00    -0.389 OA
ATOM     18  H   UNL     1       9.910  -5.809  26.810  0.00  0.00    +0.210 HD
ENDBRANCH   5  17
ENDBRANCH   1   4
BRANCH   1  19
ATOM     19  O   UNL     1       6.638  -5.572  26.070  0.00  0.00    -0.284 OA
BRANCH  19  20
ATOM     20  P   UNL     1       4.981  -5.444  25.587  0.00  0.00    +0.483 P 
ATOM     21  O   UNL     1       5.119  -6.751  24.816  0.00  0.00    -0.227 OA
BRANCH  20  22
ATOM     22  O   UNL     1       5.353  -4.196  24.602  0.00  0.00    -0.302 OA
ATOM     23  H   UNL     1       5.605  -3.386  25.073  0.00  0.00    +0.222 HD
ENDBRANCH  20  22
BRANCH  20  24
ATOM     24  O   UNL     1       3.325  -5.315  25.105  0.00  0.00    -0.186 OA
BRANCH  24  25
ATOM     25  P   UNL     1       2.553  -6.015  23.724  0.00  0.00    +0.492 P 
ATOM     26  O   UNL     1       1.503  -5.039  23.190  0.00  0.00    -0.226 OA
BRANCH  25  27
ATOM     27  O   UNL     1       3.718  -5.262  22.691  0.00  0.00    -0.302 OA
ATOM     28  H   UNL     1       4.272  -4.724  23.292  0.00  0.00    +0.222 HD
ENDBRANCH  25  27
BRANCH  25  29
ATOM     29  O   UNL     1       1.388  -6.768  24.757  0.00  0.00    -0.186 OA
BRANCH  29  30
ATOM     30  P   UNL     1       1.733  -8.459  24.879  0.00  0.00    +0.481 P 
ATOM     31  O   UNL     1       2.044  -9.972  24.988  0.00  0.00    -0.227 OA
BRANCH  30  32
ATOM     32  O   UNL     1       2.644  -8.090  26.194  0.00  0.00    -0.302 OA
ATOM     33  H   UNL     1       2.352  -8.607  26.965  0.00  0.00    +0.222 HD
ENDBRANCH  30  32
BRANCH  30  34
ATOM     34  O   UNL     1       2.882  -8.160  23.747  0.00  0.00    -0.302 OA
ATOM     35  H   UNL     1       2.491  -7.832  22.917  0.00  0.00    +0.222 HD
ENDBRANCH  30  34
ENDBRANCH  29  30
ENDBRANCH  25  29
ENDBRANCH  24  25
ENDBRANCH  20  24
ENDBRANCH  19  20
ENDBRANCH   1  19
TORSDOF 13
ENDMDL
MODEL 4
REMARK VINA RESULT:      -6.9      2.204      3.655
REMARK  Name = 
REMARK  13 active torsions:
REMARK  status: ('A' for Active; 'I' for Inactive)
REMARK    1  A    between atoms: N_6  and  C_9
REMARK    2  A    between atoms: C_12  and  O_14
REMARK    3  A    between atoms: C_15  and  C_17
REMARK    4  A    between atoms: C_17  and  O_18
REMARK    5  A    between atoms: O_18  and  P_19
REMARK    6  A    between atoms: P_19  and  O_20
REMARK    7  A    between atoms: P_19  and  O_22
REMARK    8  A    between atoms: O_22  and  P_23
REMARK    9  A    between atoms: P_23  and  O_24
REMARK   10  A    between atoms: P_23  and  O_26
REMARK   11  A    between atoms: O_26  and  P_27
REMARK   12  A    between atoms: P_27  and  O_28
REMARK   13  A    between atoms: P_27  and  O_29
REMARK                            x       y       z     vdW  Elec       q    Type
REMARK                         _______ _______ _______ _____ _____    ______ ____
ROOT
ATOM      1  C   UNL     1       9.427  -2.087  24.728  0.00  0.00    +0.206 C 
ENDROOT
BRANCH   1   4
ATOM      2  C   UNL     1       9.282   1.193  23.626  0.00  0.00    +0.226 C 
ATOM      3  O   UNL     1       9.928   0.300  24.560  0.00  0.00    -0.348 OA
ATOM      4  C   UNL     1      10.103  -0.981  23.909  0.00  0.00    +0.175 C 
ATOM      5  C   UNL     1       9.521  -0.850  22.497  0.00  0.00    +0.150 C 
ATOM      6  C   UNL     1       9.573   0.634  22.246  0.00  0.00    +0.088 C 
BRANCH   2  13
ATOM      7  N   UNL     1      10.698   6.500  24.027  0.00  0.00    -0.343 N 
ATOM      8  H   UNL     1      11.669   6.738  24.193  0.00  0.00    +0.144 HD
ATOM      9  H   UNL     1      10.045   7.024  24.597  0.00  0.00    +0.144 HD
ATOM     10  C   UNL     1      10.375   5.185  23.911  0.00  0.00    +0.123 A 
ATOM     11  C   UNL     1      11.358   4.231  23.379  0.00  0.00    +0.061 A 
ATOM     12  C   UNL     1      10.994   2.946  23.349  0.00  0.00    +0.096 A 
ATOM     13  N   UNL     1       9.736   2.563  23.782  0.00  0.00    -0.273 N 
ATOM     14  C   UNL     1       8.799   3.516  24.200  0.00  0.00    +0.352 A 
ATOM     15  O   UNL     1       7.641   3.180  24.472  0.00  0.00    -0.244 OA
ATOM     16  N   UNL     1       9.188   4.830  24.292  0.00  0.00    -0.178 NA
ENDBRANCH   2  13
BRANCH   5  17
ATOM     17  O   UNL     1      10.249  -1.550  21.501  0.00  0.00    -0.389 OA
ATOM     18  H   UNL     1       9.628  -1.975  20.886  0.00  0.00    +0.210 HD
ENDBRANCH   5  17
ENDBRANCH   1   4
BRANCH   1  19
ATOM     19  O   UNL     1       9.592  -3.358  24.115  0.00  0.00    -0.284 OA
BRANCH  19  20
ATOM     20  P   UNL     1       8.423  -4.531  24.613  0.00  0.00    +0.483 P 
ATOM     21  O   UNL     1       8.471  -3.961  26.026  0.00  0.00    -0.227 OA
BRANCH  20  22
ATOM     22  O   UNL     1       9.536  -5.717  24.473  0.00  0.00    -0.302 OA
ATOM     23  H   UNL     1      10.209  -5.545  23.795  0.00  0.00    +0.222 HD
ENDBRANCH  20  22
BRANCH  20  24
ATOM     24  O   UNL     1       7.253  -5.705  25.110  0.00  0.00    -0.186 OA
BRANCH  24  25
ATOM     25  P   UNL     1       5.570  -5.471  25.433  0.00  0.00    +0.492 P 
ATOM     26  O   UNL     1       5.413  -4.414  26.528  0.00  0.00    -0.226 OA
BRANCH  25  27
ATOM     27  O   UNL     1       5.521  -4.202  24.259  0.00  0.00    -0.302 OA
ATOM     28  H   UNL     1       5.819  -4.622  23.427  0.00  0.00    +0.222 HD
ENDBRANCH  25  27
BRANCH  25  29
ATOM     29  O   UNL     1       5.619  -6.740  26.608  0.00  0.00    -0.186 OA
BRANCH  29  30
ATOM     30  P   UNL     1       5.860  -6.060  28.181  0.00  0.00    +0.481 P 
ATOM     31  O   UNL     1       6.076  -5.452  29.588  0.00  0.00    -0.227 OA
BRANCH  30  32
ATOM     32  O   UNL     1       7.470  -6.129  27.869  0.00  0.00    -0.302 OA
ATOM     33  H   UNL     1       7.770  -7.054  27.836  0.00  0.00    +0.222 HD
ENDBRANCH  30  32
BRANCH  30  34
ATOM     34  O   UNL     1       5.691  -7.601  28.716  0.00  0.00    -0.302 OA
ATOM     35  H   UNL     1       6.239  -7.769  29.504  0.00  0.00    +0.222 HD
ENDBRANCH  30  34
ENDBRANCH  29  30
ENDBRANCH  25  29
ENDBRANCH  24  25
ENDBRANCH  20  24
ENDBRANCH  19  20
ENDBRANCH   1  19
TORSDOF 13
ENDMDL
MODEL 5
REMARK VINA RESULT:      -6.9      1.708      3.472
REMARK  Name = 
REMARK  13 active torsions:
REMARK  status: ('A' for Active; 'I' for Inactive)
REMARK    1  A    between atoms: N_6  and  C_9
REMARK    2  A    between atoms: C_12  and  O_14
REMARK    3  A    between atoms: C_15  and  C_17
REMARK    4  A    between atoms: C_17  and  O_18
REMARK    5  A    between atoms: O_18  and  P_19
REMARK    6  A    between atoms: P_19  and  O_20
REMARK    7  A    between atoms: P_19  and  O_22
REMARK    8  A    between atoms: O_22  and  P_23
REMARK    9  A    between atoms: P_23  and  O_24
REMARK   10  A    between atoms: P_23  and  O_26
REMARK   11  A    between atoms: O_26  and  P_27
REMARK   12  A    between atoms: P_27  and  O_28
REMARK   13  A    between atoms: P_27  and  O_29
REMARK                            x       y       z     vdW  Elec       q    Type
REMARK                         _______ _______ _______ _____ _____    ______ ____
ROOT
ATOM      1  C   UNL     1       7.688  -4.854  23.613  0.00  0.00    +0.206 C 
ENDROOT
BRANCH   1   4
ATOM      2  C   UNL     1       7.970  -1.404  23.691  0.00  0.00    +0.226 C 
ATOM      3  O   UNL     1       8.637  -2.623  23.299  0.00  0.00    -0.348 OA
ATOM      4  C   UNL     1       7.635  -3.547  22.812  0.00  0.00    +0.175 C 
ATOM      5  C   UNL     1       6.280  -2.840  22.922  0.00  0.00    +0.150 C 
ATOM      6  C   UNL     1       6.659  -1.382  22.926  0.00  0.00    +0.088 C 
BRANCH   2  13
ATOM      7  N   UNL     1      10.812   3.248  22.905  0.00  0.00    -0.343 N 
ATOM      8  H   UNL     1      11.475   3.295  22.141  0.00  0.00    +0.144 HD
ATOM      9  H   UNL     1      11.163   3.628  23.776  0.00  0.00    +0.144 HD
ATOM     10  C   UNL     1      10.106   2.097  23.068  0.00  0.00    +0.123 A 
ATOM     11  C   UNL     1       9.786   1.261  21.902  0.00  0.00    +0.061 A 
ATOM     12  C   UNL     1       9.143   0.116  22.143  0.00  0.00    +0.096 A 
ATOM     13  N   UNL     1       8.786  -0.231  23.435  0.00  0.00    -0.273 N 
ATOM     14  C   UNL     1       9.034   0.637  24.506  0.00  0.00    +0.352 A 
ATOM     15  O   UNL     1       8.609   0.375  25.636  0.00  0.00    -0.244 OA
ATOM     16  N   UNL     1       9.750   1.786  24.274  0.00  0.00    -0.178 NA
ENDBRANCH   2  13
BRANCH   5  17
ATOM     17  O   UNL     1       5.390  -3.120  21.855  0.00  0.00    -0.389 OA
ATOM     18  H   UNL     1       4.898  -2.314  21.624  0.00  0.00    +0.210 HD
ENDBRANCH   5  17
ENDBRANCH   1   4
BRANCH   1  19
ATOM     19  O   UNL     1       8.527  -4.727  24.752  0.00  0.00    -0.284 OA
BRANCH  19  20
ATOM     20  P   UNL     1       7.668  -4.702  26.254  0.00  0.00    +0.483 P 
ATOM     21  O   UNL     1       8.467  -3.473  26.675  0.00  0.00    -0.227 OA
BRANCH  20  22
ATOM     22  O   UNL     1       8.455  -6.047  26.740  0.00  0.00    -0.302 OA
ATOM     23  H   UNL     1       8.823  -5.984  27.636  0.00  0.00    +0.222 HD
ENDBRANCH  20  22
BRANCH  20  24
ATOM     24  O   UNL     1       6.810  -4.676  27.755  0.00  0.00    -0.186 OA
BRANCH  24  25
ATOM     25  P   UNL     1       5.802  -5.907  28.436  0.00  0.00    +0.492 P 
ATOM     26  O   UNL     1       6.683  -7.048  28.948  0.00  0.00    -0.226 OA
BRANCH  25  27
ATOM     27  O   UNL     1       5.937  -5.159  29.989  0.00  0.00    -0.302 OA
ATOM     28  H   UNL     1       6.554  -5.731  30.487  0.00  0.00    +0.222 HD
ENDBRANCH  25  27
BRANCH  25  29
ATOM     29  O   UNL     1       5.667  -6.655  26.882  0.00  0.00    -0.186 OA
BRANCH  29  30
ATOM     30  P   UNL     1       4.003  -6.704  26.408  0.00  0.00    +0.481 P 
ATOM     31  O   UNL     1       2.515  -6.747  25.986  0.00  0.00    -0.227 OA
BRANCH  30  32
ATOM     32  O   UNL     1       3.941  -5.105  26.776  0.00  0.00    -0.302 OA
ATOM     33  H   UNL     1       3.198  -4.924  27.377  0.00  0.00    +0.222 HD
ENDBRANCH  30  32
BRANCH  30  34
ATOM     34  O   UNL     1       3.737  -7.270  27.924  0.00  0.00    -0.302 OA
ATOM     35  H   UNL     1       3.347  -8.163  27.910  0.00  0.00    +0.222 HD
ENDBRANCH  30  34
ENDBRANCH  29  30
ENDBRANCH  25  29
ENDBRANCH  24  25
ENDBRANCH  20  24
ENDBRANCH  19  20
ENDBRANCH   1  19
TORSDOF 13
ENDMDL
MODEL 6
REMARK VINA RESULT:      -6.8      2.040      2.955
REMARK  Name = 
REMARK  13 active torsions:
REMARK  status: ('A' for Active; 'I' for Inactive)
REMARK    1  A    between atoms: N_6  and  C_9
REMARK    2  A    between atoms: C_12  and  O_14
REMARK    3  A    between atoms: C_15  and  C_17
REMARK    4  A    between atoms: C_17  and  O_18
REMARK    5  A    between atoms: O_18  and  P_19
REMARK    6  A    between atoms: P_19  and  O_20
REMARK    7  A    between atoms: P_19  and  O_22
REMARK    8  A    between atoms: O_22  and  P_23
REMARK    9  A    between atoms: P_23  and  O_24
REMARK   10  A    between atoms: P_23  and  O_26
REMARK   11  A    between atoms: O_26  and  P_27
REMARK   12  A    between atoms: P_27  and  O_28
REMARK   13  A    between atoms: P_27  and  O_29
REMARK                            x       y       z     vdW  Elec       q    Type
REMARK                         _______ _______ _______ _____ _____    ______ ____
ROOT
ATOM      1  C   UNL     1       7.262  -2.023  22.702  0.00  0.00    +0.206 C 
ENDROOT
BRANCH   1   4
ATOM      2  C   UNL     1       8.362   1.224  22.214  0.00  0.00    +0.226 C 
ATOM      3  O   UNL     1       7.815   0.309  23.187  0.00  0.00    -0.348 OA
ATOM      4  C   UNL     1       8.381  -1.001  22.940  0.00  0.00    +0.175 C 
ATOM      5  C   UNL     1       9.323  -0.864  21.739  0.00  0.00    +0.150 C 
ATOM      6  C   UNL     1       9.664   0.604  21.744  0.00  0.00    +0.088 C 
BRANCH   2  13
ATOM      7  N   UNL     1       8.963   6.415  23.953  0.00  0.00    -0.343 N 
ATOM      8  H   UNL     1       9.527   6.595  24.775  0.00  0.00    +0.144 HD
ATOM      9  H   UNL     1       8.087   6.923  23.938  0.00  0.00    +0.144 HD
ATOM     10  C   UNL     1       8.845   5.128  23.529  0.00  0.00    +0.123 A 
ATOM     11  C   UNL     1       9.938   4.174  23.767  0.00  0.00    +0.061 A 
ATOM     12  C   UNL     1       9.730   2.914  23.377  0.00  0.00    +0.096 A 
ATOM     13  N   UNL     1       8.542   2.556  22.762  0.00  0.00    -0.273 N 
ATOM     14  C   UNL     1       7.564   3.517  22.476  0.00  0.00    +0.352 A 
ATOM     15  O   UNL     1       6.560   3.214  21.822  0.00  0.00    -0.244 OA
ATOM     16  N   UNL     1       7.744   4.800  22.930  0.00  0.00    -0.178 NA
ENDBRANCH   2  13
BRANCH   5  17
ATOM     17  O   UNL     1      10.500  -1.649  21.832  0.00  0.00    -0.389 OA
ATOM     18  H   UNL     1      11.139  -1.206  22.416  0.00  0.00    +0.210 HD
ENDBRANCH   5  17
ENDBRANCH   1   4
BRANCH   1  19
ATOM     19  O   UNL     1       7.788  -3.273  22.279  0.00  0.00    -0.284 OA
BRANCH  19  20
ATOM     20  P   UNL     1       6.854  -4.635  22.796  0.00  0.00    +0.483 P 
ATOM     21  O   UNL     1       6.854  -5.161  21.365  0.00  0.00    -0.227 OA
BRANCH  20  22
ATOM     22  O   UNL     1       5.553  -3.674  23.016  0.00  0.00    -0.302 OA
ATOM     23  H   UNL     1       5.703  -2.949  23.644  0.00  0.00    +0.222 HD
ENDBRANCH  20  22
BRANCH  20  24
ATOM     24  O   UNL     1       5.921  -5.997  23.313  0.00  0.00    -0.186 OA
BRANCH  24  25
ATOM     25  P   UNL     1       5.160  -6.256  24.845  0.00  0.00    +0.492 P 
ATOM     26  O   UNL     1       3.908  -5.382  24.935  0.00  0.00    -0.226 OA
BRANCH  25  27
ATOM     27  O   UNL     1       4.188  -7.507  24.150  0.00  0.00    -0.302 OA
ATOM     28  H   UNL     1       4.152  -8.202  24.837  0.00  0.00    +0.222 HD
ENDBRANCH  25  27
BRANCH  25  29
ATOM     29  O   UNL     1       6.132  -5.005  25.540  0.00  0.00    -0.186 OA
BRANCH  29  30
ATOM     30  P   UNL     1       6.441  -5.371  27.202  0.00  0.00    +0.481 P 
ATOM     31  O   UNL     1       6.717  -5.701  28.689  0.00  0.00    -0.227 OA
BRANCH  30  32
ATOM     32  O   UNL     1       7.916  -5.907  26.721  0.00  0.00    -0.302 OA
ATOM     33  H   UNL     1       7.908  -6.114  25.770  0.00  0.00    +0.222 HD
ENDBRANCH  30  32
BRANCH  30  34
ATOM     34  O   UNL     1       5.616  -6.756  26.902  0.00  0.00    -0.302 OA
ATOM     35  H   UNL     1       5.732  -7.051  25.980  0.00  0.00    +0.222 HD
ENDBRANCH  30  34
ENDBRANCH  29  30
ENDBRANCH  25  29
ENDBRANCH  24  25
ENDBRANCH  20  24
ENDBRANCH  19  20
ENDBRANCH   1  19
TORSDOF 13
ENDMDL
MODEL 7
REMARK VINA RESULT:      -6.8      4.832      8.422
REMARK  Name = 
REMARK  13 active torsions:
REMARK  status: ('A' for Active; 'I' for Inactive)
REMARK    1  A    between atoms: N_6  and  C_9
REMARK    2  A    between atoms: C_12  and  O_14
REMARK    3  A    between atoms: C_15  and  C_17
REMARK    4  A    between atoms: C_17  and  O_18
REMARK    5  A    between atoms: O_18  and  P_19
REMARK    6  A    between atoms: P_19  and  O_20
REMARK    7  A    between atoms: P_19  and  O_22
REMARK    8  A    between atoms: O_22  and  P_23
REMARK    9  A    between atoms: P_23  and  O_24
REMARK   10  A    between atoms: P_23  and  O_26
REMARK   11  A    between atoms: O_26  and  P_27
REMARK   12  A    between atoms: P_27  and  O_28
REMARK   13  A    between atoms: P_27  and  O_29
REMARK                            x       y       z     vdW  Elec       q    Type
REMARK                         _______ _______ _______ _____ _____    ______ ____
ROOT
ATOM      1  C   UNL     1       6.997  -2.193  22.516  0.00  0.00    +0.206 C 
ENDROOT
BRANCH   1   4
ATOM      2  C   UNL     1       6.884  -4.882  24.694  0.00  0.00    +0.226 C 
ATOM      3  O   UNL     1       6.396  -3.543  24.464  0.00  0.00    -0.348 OA
ATOM      4  C   UNL     1       6.182  -3.381  23.041  0.00  0.00    +0.175 C 
ATOM      5  C   UNL     1       6.571  -4.706  22.375  0.00  0.00    +0.150 C 
ATOM      6  C   UNL     1       6.436  -5.701  23.498  0.00  0.00    +0.088 C 
BRANCH   2  13
ATOM      7  N   UNL     1       5.410  -7.111  29.510  0.00  0.00    -0.343 N 
ATOM      8  H   UNL     1       4.425  -7.217  29.721  0.00  0.00    +0.144 HD
ATOM      9  H   UNL     1       5.955  -6.742  30.280  0.00  0.00    +0.144 HD
ATOM     10  C   UNL     1       5.751  -6.577  28.307  0.00  0.00    +0.123 A 
ATOM     11  C   UNL     1       4.874  -6.770  27.143  0.00  0.00    +0.061 A 
ATOM     12  C   UNL     1       5.241  -6.168  26.008  0.00  0.00    +0.096 A 
ATOM     13  N   UNL     1       6.408  -5.424  25.954  0.00  0.00    -0.273 N 
ATOM     14  C   UNL     1       7.258  -5.340  27.063  0.00  0.00    +0.352 A 
ATOM     15  O   UNL     1       8.353  -4.774  26.972  0.00  0.00    -0.244 OA
ATOM     16  N   UNL     1       6.856  -5.903  28.249  0.00  0.00    -0.178 NA
ENDBRANCH   2  13
BRANCH   5  17
ATOM     17  O   UNL     1       5.744  -5.072  21.283  0.00  0.00    -0.389 OA
ATOM     18  H   UNL     1       5.553  -6.024  21.327  0.00  0.00    +0.210 HD
ENDBRANCH   5  17
ENDBRANCH   1   4
BRANCH   1  19
ATOM     19  O   UNL     1       8.391  -2.465  22.556  0.00  0.00    -0.284 OA
BRANCH  19  20
ATOM     20  P   UNL     1       9.370  -1.063  22.820  0.00  0.00    +0.483 P 
ATOM     21  O   UNL     1       8.204  -0.183  22.385  0.00  0.00    -0.227 OA
BRANCH  20  22
ATOM     22  O   UNL     1      10.278  -1.437  21.516  0.00  0.00    -0.302 OA
ATOM     23  H   UNL     1      10.038  -2.281  21.101  0.00  0.00    +0.222 HD
ENDBRANCH  20  22
BRANCH  20  24
ATOM     24  O   UNL     1      10.348   0.338  23.086  0.00  0.00    -0.186 OA
BRANCH  24  25
ATOM     25  P   UNL     1       9.854   1.994  23.152  0.00  0.00    +0.492 P 
ATOM     26  O   UNL     1      11.067   2.865  23.485  0.00  0.00    -0.226 OA
BRANCH  25  27
ATOM     27  O   UNL     1      10.235   2.175  21.475  0.00  0.00    -0.302 OA
ATOM     28  H   UNL     1      10.586   3.085  21.397  0.00  0.00    +0.222 HD
ENDBRANCH  25  27
BRANCH  25  29
ATOM     29  O   UNL     1       9.473   1.814  24.830  0.00  0.00    -0.186 OA
BRANCH  29  30
ATOM     30  P   UNL     1       7.889   2.442  25.132  0.00  0.00    +0.481 P 
ATOM     31  O   UNL     1       6.472   3.004  25.401  0.00  0.00    -0.227 OA
BRANCH  30  32
ATOM     32  O   UNL     1       7.362   0.888  25.113  0.00  0.00    -0.302 OA
ATOM     33  H   UNL     1       7.981   0.314  25.598  0.00  0.00    +0.222 HD
ENDBRANCH  30  32
BRANCH  30  34
ATOM     34  O   UNL     1       7.836   2.693  23.512  0.00  0.00    -0.302 OA
ATOM     35  H   UNL     1       8.712   2.575  23.101  0.00  0.00    +0.222 HD
ENDBRANCH  30  34
ENDBRANCH  29  30
ENDBRANCH  25  29
ENDBRANCH  24  25
ENDBRANCH  20  24
ENDBRANCH  19  20
ENDBRANCH   1  19
TORSDOF 13
ENDMDL
MODEL 8
REMARK VINA RESULT:      -6.7      2.160      4.002
REMARK  Name = 
REMARK  13 active torsions:
REMARK  status: ('A' for Active; 'I' for Inactive)
REMARK    1  A    between atoms: N_6  and  C_9
REMARK    2  A    between atoms: C_12  and  O_14
REMARK    3  A    between atoms: C_15  and  C_17
REMARK    4  A    between atoms: C_17  and  O_18
REMARK    5  A    between atoms: O_18  and  P_19
REMARK    6  A    between atoms: P_19  and  O_20
REMARK    7  A    between atoms: P_19  and  O_22
REMARK    8  A    between atoms: O_22  and  P_23
REMARK    9  A    between atoms: P_23  and  O_24
REMARK   10  A    between atoms: P_23  and  O_26
REMARK   11  A    between atoms: O_26  and  P_27
REMARK   12  A    between atoms: P_27  and  O_28
REMARK   13  A    between atoms: P_27  and  O_29
REMARK                            x       y       z     vdW  Elec       q    Type
REMARK                         _______ _______ _______ _____ _____    ______ ____
ROOT
ATOM      1  C   UNL     1       9.532  -2.182  24.710  0.00  0.00    +0.206 C 
ENDROOT
BRANCH   1   4
ATOM      2  C   UNL     1       9.218   1.099  23.649  0.00  0.00    +0.226 C 
ATOM      3  O   UNL     1       9.927   0.226  24.554  0.00  0.00    -0.348 OA
ATOM      4  C   UNL     1      10.137  -1.040  23.884  0.00  0.00    +0.175 C 
ATOM      5  C   UNL     1       9.509  -0.921  22.491  0.00  0.00    +0.150 C 
ATOM      6  C   UNL     1       9.492   0.567  22.255  0.00  0.00    +0.088 C 
BRANCH   2  13
ATOM      7  N   UNL     1      10.422   6.457  24.064  0.00  0.00    -0.343 N 
ATOM      8  H   UNL     1      11.385   6.734  24.215  0.00  0.00    +0.144 HD
ATOM      9  H   UNL     1       9.759   6.950  24.650  0.00  0.00    +0.144 HD
ATOM     10  C   UNL     1      10.151   5.131  23.944  0.00  0.00    +0.123 A 
ATOM     11  C   UNL     1      11.162   4.222  23.387  0.00  0.00    +0.061 A 
ATOM     12  C   UNL     1      10.851   2.924  23.354  0.00  0.00    +0.096 A 
ATOM     13  N   UNL     1       9.617   2.486  23.807  0.00  0.00    -0.273 N 
ATOM     14  C   UNL     1       8.650   3.397  24.249  0.00  0.00    +0.352 A 
ATOM     15  O   UNL     1       7.513   3.012  24.539  0.00  0.00    -0.244 OA
ATOM     16  N   UNL     1       8.987   4.725  24.344  0.00  0.00    -0.178 NA
ENDBRANCH   2  13
BRANCH   5  17
ATOM     17  O   UNL     1      10.238  -1.578  21.467  0.00  0.00    -0.389 OA
ATOM     18  H   UNL     1       9.905  -1.293  20.599  0.00  0.00    +0.210 HD
ENDBRANCH   5  17
ENDBRANCH   1   4
BRANCH   1  19
ATOM     19  O   UNL     1       9.543  -3.404  23.986  0.00  0.00    -0.284 OA
BRANCH  19  20
ATOM     20  P   UNL     1       8.403  -4.570  24.565  0.00  0.00    +0.483 P 
ATOM     21  O   UNL     1       8.230  -3.750  25.838  0.00  0.00    -0.227 OA
BRANCH  20  22
ATOM     22  O   UNL     1       9.604  -5.654  24.783  0.00  0.00    -0.302 OA
ATOM     23  H   UNL     1       9.291  -6.552  24.979  0.00  0.00    +0.222 HD
ENDBRANCH  20  22
BRANCH  20  24
ATOM     24  O   UNL     1       7.263  -5.735  25.143  0.00  0.00    -0.186 OA
BRANCH  24  25
ATOM     25  P   UNL     1       6.080  -5.550  26.392  0.00  0.00    +0.492 P 
ATOM     26  O   UNL     1       5.566  -6.931  26.802  0.00  0.00    -0.226 OA
BRANCH  25  27
ATOM     27  O   UNL     1       7.320  -5.701  27.588  0.00  0.00    -0.302 OA
ATOM     28  H   UNL     1       7.526  -6.657  27.611  0.00  0.00    +0.222 HD
ENDBRANCH  25  27
BRANCH  25  29
ATOM     29  O   UNL     1       4.840  -5.399  25.195  0.00  0.00    -0.186 OA
BRANCH  29  30
ATOM     30  P   UNL     1       3.973  -6.891  25.072  0.00  0.00    +0.481 P 
ATOM     31  O   UNL     1       3.197  -8.226  24.960  0.00  0.00    -0.227 OA
BRANCH  30  32
ATOM     32  O   UNL     1       4.934  -7.244  23.789  0.00  0.00    -0.302 OA
ATOM     33  H   UNL     1       4.831  -8.178  23.534  0.00  0.00    +0.222 HD
ENDBRANCH  30  32
BRANCH  30  34
ATOM     34  O   UNL     1       2.858  -6.011  24.252  0.00  0.00    -0.302 OA
ATOM     35  H   UNL     1       3.200  -5.710  23.390  0.00  0.00    +0.222 HD
ENDBRANCH  30  34
ENDBRANCH  29  30
ENDBRANCH  25  29
ENDBRANCH  24  25
ENDBRANCH  20  24
ENDBRANCH  19  20
ENDBRANCH   1  19
TORSDOF 13
ENDMDL
MODEL 9
REMARK VINA RESULT:      -6.5      4.847      8.514
REMARK  Name = 
REMARK  13 active torsions:
REMARK  status: ('A' for Active; 'I' for Inactive)
REMARK    1  A    between atoms: N_6  and  C_9
REMARK    2  A    between atoms: C_12  and  O_14
REMARK    3  A    between atoms: C_15  and  C_17
REMARK    4  A    between atoms: C_17  and  O_18
REMARK    5  A    between atoms: O_18  and  P_19
REMARK    6  A    between atoms: P_19  and  O_20
REMARK    7  A    between atoms: P_19  and  O_22
REMARK    8  A    between atoms: O_22  and  P_23
REMARK    9  A    between atoms: P_23  and  O_24
REMARK   10  A    between atoms: P_23  and  O_26
REMARK   11  A    between atoms: O_26  and  P_27
REMARK   12  A    between atoms: P_27  and  O_28
REMARK   13  A    between atoms: P_27  and  O_29
REMARK                            x       y       z     vdW  Elec       q    Type
REMARK                         _______ _______ _______ _____ _____    ______ ____
ROOT
ATOM      1  C   UNL     1       6.666  -2.555  22.069  0.00  0.00    +0.206 C 
ENDROOT
BRANCH   1   4
ATOM      2  C   UNL     1       6.425  -5.155  24.343  0.00  0.00    +0.226 C 
ATOM      3  O   UNL     1       5.880  -3.870  23.974  0.00  0.00    -0.348 OA
ATOM      4  C   UNL     1       5.872  -3.783  22.529  0.00  0.00    +0.175 C 
ATOM      5  C   UNL     1       6.453  -5.098  21.997  0.00  0.00    +0.150 C 
ATOM      6  C   UNL     1       6.224  -6.055  23.138  0.00  0.00    +0.088 C 
BRANCH   2  13
ATOM      7  N   UNL     1       4.359  -7.406  28.925  0.00  0.00    -0.343 N 
ATOM      8  H   UNL     1       3.372  -7.297  29.124  0.00  0.00    +0.144 HD
ATOM      9  H   UNL     1       4.958  -7.248  29.727  0.00  0.00    +0.144 HD
ATOM     10  C   UNL     1       4.844  -6.860  27.778  0.00  0.00    +0.123 A 
ATOM     11  C   UNL     1       3.974  -6.734  26.601  0.00  0.00    +0.061 A 
ATOM     12  C   UNL     1       4.497  -6.135  25.528  0.00  0.00    +0.096 A 
ATOM     13  N   UNL     1       5.807  -5.683  25.545  0.00  0.00    -0.273 N 
ATOM     14  C   UNL     1       6.627  -5.902  26.659  0.00  0.00    +0.352 A 
ATOM     15  O   UNL     1       7.826  -5.604  26.623  0.00  0.00    -0.244 OA
ATOM     16  N   UNL     1       6.077  -6.461  27.786  0.00  0.00    -0.178 NA
ENDBRANCH   2  13
BRANCH   5  17
ATOM     17  O   UNL     1       5.829  -5.573  20.816  0.00  0.00    -0.389 OA
ATOM     18  H   UNL     1       5.975  -4.936  20.095  0.00  0.00    +0.210 HD
ENDBRANCH   5  17
ENDBRANCH   1   4
BRANCH   1  19
ATOM     19  O   UNL     1       8.066  -2.781  22.162  0.00  0.00    -0.284 OA
BRANCH  19  20
ATOM     20  P   UNL     1       8.931  -1.501  22.941  0.00  0.00    +0.483 P 
ATOM     21  O   UNL     1       8.719  -2.191  24.283  0.00  0.00    -0.227 OA
BRANCH  20  22
ATOM     22  O   UNL     1       7.691  -0.477  22.661  0.00  0.00    -0.302 OA
ATOM     23  H   UNL     1       7.033  -0.454  23.374  0.00  0.00    +0.222 HD
ENDBRANCH  20  22
BRANCH  20  24
ATOM     24  O   UNL     1       9.796  -0.221  23.718  0.00  0.00    -0.186 OA
BRANCH  24  25
ATOM     25  P   UNL     1       9.213   0.911  24.889  0.00  0.00    +0.492 P 
ATOM     26  O   UNL     1       7.712   0.693  25.090  0.00  0.00    -0.226 OA
BRANCH  25  27
ATOM     27  O   UNL     1       9.507  -0.238  26.147  0.00  0.00    -0.302 OA
ATOM     28  H   UNL     1      10.472  -0.191  26.305  0.00  0.00    +0.222 HD
ENDBRANCH  25  27
BRANCH  25  29
ATOM     29  O   UNL     1       8.918   2.061  23.630  0.00  0.00    -0.186 OA
BRANCH  29  30
ATOM     30  P   UNL     1      10.344   3.005  23.367  0.00  0.00    +0.481 P 
ATOM     31  O   UNL     1      11.619   3.851  23.131  0.00  0.00    -0.227 OA
BRANCH  30  32
ATOM     32  O   UNL     1       9.344   4.266  23.042  0.00  0.00    -0.302 OA
ATOM     33  H   UNL     1       9.848   5.098  23.004  0.00  0.00    +0.222 HD
ENDBRANCH  30  32
BRANCH  30  34
ATOM     34  O   UNL     1      10.331   2.345  21.866  0.00  0.00    -0.302 OA
ATOM     35  H   UNL     1       9.427   2.284  21.508  0.00  0.00    +0.222 HD
ENDBRANCH  30  34
ENDBRANCH  29  30
ENDBRANCH  25  29
ENDBRANCH  24  25
ENDBRANCH  20  24
ENDBRANCH  19  20
ENDBRANCH   1  19
TORSDOF 13
ENDMDL
