MODEL 1
REMARK VINA RESULT:      -7.1      0.000      0.000
REMARK  Name = 
REMARK  4 active torsions:
REMARK  status: ('A' for Active; 'I' for Inactive)
REMARK    1  A    between atoms: C_5  and  N_6
REMARK    2  A    between atoms: C_7  and  C_9
REMARK    3  A    between atoms: C_13  and  N_14
REMARK    4  A    between atoms: C_15  and  C_17
REMARK                            x       y       z     vdW  Elec       q    Type
REMARK                         _______ _______ _______ _____ _____    ______ ____
ROOT
ATOM      1  C   UNL     1       8.964  -3.993  24.570  0.00  0.00    +0.168 A 
ATOM      2  C   UNL     1       7.923  -4.907  24.932  0.00  0.00    +0.084 A 
ATOM      3  C   UNL     1       8.588  -5.988  25.453  0.00  0.00    +0.129 A 
ATOM      4  N   UNL     1       9.917  -5.704  25.379  0.00  0.00    -0.282 N 
ATOM      5  H   UNL     1      10.689  -6.282  25.697  0.00  0.00    +0.188 HD
ATOM      6  N   UNL     1      10.187  -4.501  24.833  0.00  0.00    -0.167 NA
ENDROOT
BRANCH   1   9
ATOM      7  N   UNL     1       9.947  -1.946  23.795  0.00  0.00    -0.280 N 
ATOM      8  H   UNL     1      10.787  -2.522  23.814  0.00  0.00    +0.155 HD
ATOM      9  C   UNL     1       8.772  -2.630  24.059  0.00  0.00    +0.270 C 
ATOM     10  O   UNL     1       7.632  -2.186  23.903  0.00  0.00    -0.268 OA
BRANCH   7  15
ATOM     11  F   UNL     1      10.457   3.471  22.712  0.00  0.00    -0.205 F 
ATOM     12  C   UNL     1      10.318   2.165  22.971  0.00  0.00    +0.124 A 
ATOM     13  C   UNL     1      10.532   1.687  24.259  0.00  0.00    +0.040 A 
ATOM     14  C   UNL     1      10.390   0.321  24.529  0.00  0.00    +0.026 A 
ATOM     15  C   UNL     1      10.062  -0.572  23.499  0.00  0.00    +0.034 A 
ATOM     16  C   UNL     1       9.831  -0.064  22.215  0.00  0.00    +0.026 A 
ATOM     17  C   UNL     1       9.957   1.301  21.949  0.00  0.00    +0.040 A 
ENDBRANCH   7  15
ENDBRANCH   1   9
BRANCH   2  18
ATOM     18  N   UNL     1       6.546  -4.723  24.820  0.00  0.00    -0.278 N 
ATOM     19  H   UNL     1       6.080  -4.372  25.656  0.00  0.00    +0.155 HD
ATOM     20  C   UNL     1       5.793  -5.196  23.758  0.00  0.00    +0.248 C 
ATOM     21  O   UNL     1       6.229  -5.805  22.785  0.00  0.00    -0.270 OA
BRANCH  20  22
ATOM     22  C   UNL     1       4.318  -5.022  23.857  0.00  0.00    +0.037 A 
ATOM     23  C   UNL     1       3.839  -4.100  24.800  0.00  0.00    +0.013 A 
ATOM     24  C   UNL     1       2.469  -3.894  24.958  0.00  0.00    +0.001 A 
ATOM     25  C   UNL     1       1.567  -4.622  24.185  0.00  0.00    +0.000 A 
ATOM     26  C   UNL     1       2.036  -5.564  23.264  0.00  0.00    +0.001 A 
ATOM     27  C   UNL     1       3.411  -5.767  23.095  0.00  0.00    +0.013 A 
ENDBRANCH  20  22
ENDBRANCH   2  18
TORSDOF 4
ENDMDL
MODEL 2
REMARK VINA RESULT:      -7.0      1.189      1.665
REMARK  Name = 
REMARK  4 active torsions:
REMARK  status: ('A' for Active; 'I' for Inactive)
REMARK    1  A    between atoms: C_5  and  N_6
REMARK    2  A    between atoms: C_7  and  C_9
REMARK    3  A    between atoms: C_13  and  N_14
REMARK    4  A    between atoms: C_15  and  C_17
REMARK                            x       y       z     vdW  Elec       q    Type
REMARK                         _______ _______ _______ _____ _____    ______ ____
ROOT
ATOM      1  C   UNL     1       8.754  -4.049  24.308  0.00  0.00    +0.168 A 
ATOM      2  C   UNL     1       7.741  -4.782  25.004  0.00  0.00    +0.084 A 
ATOM      3  C   UNL     1       8.439  -5.625  25.831  0.00  0.00    +0.129 A 
ATOM      4  N   UNL     1       9.760  -5.386  25.607  0.00  0.00    -0.282 N 
ATOM      5  H   UNL     1      10.552  -5.825  26.069  0.00  0.00    +0.188 HD
ATOM      6  N   UNL     1       9.993  -4.442  24.674  0.00  0.00    -0.167 NA
ENDROOT
BRANCH   1   9
ATOM      7  N   UNL     1       9.048  -1.726  23.785  0.00  0.00    -0.280 N 
ATOM      8  H   UNL     1       9.676  -1.783  24.585  0.00  0.00    +0.155 HD
ATOM      9  C   UNL     1       8.525  -2.940  23.373  0.00  0.00    +0.270 C 
ATOM     10  O   UNL     1       7.907  -3.137  22.325  0.00  0.00    -0.268 OA
BRANCH   7  15
ATOM     11  F   UNL     1       8.001   3.232  21.528  0.00  0.00    -0.205 F 
ATOM     12  C   UNL     1       8.254   2.030  22.058  0.00  0.00    +0.124 A 
ATOM     13  C   UNL     1       7.281   1.387  22.816  0.00  0.00    +0.040 A 
ATOM     14  C   UNL     1       7.547   0.131  23.373  0.00  0.00    +0.026 A 
ATOM     15  C   UNL     1       8.801  -0.470  23.194  0.00  0.00    +0.034 A 
ATOM     16  C   UNL     1       9.757   0.187  22.410  0.00  0.00    +0.026 A 
ATOM     17  C   UNL     1       9.486   1.433  21.841  0.00  0.00    +0.040 A 
ENDBRANCH   7  15
ENDBRANCH   1   9
BRANCH   2  18
ATOM     18  N   UNL     1       6.357  -4.643  24.896  0.00  0.00    -0.278 N 
ATOM     19  H   UNL     1       5.894  -4.224  25.701  0.00  0.00    +0.155 HD
ATOM     20  C   UNL     1       5.603  -5.233  23.895  0.00  0.00    +0.248 C 
ATOM     21  O   UNL     1       6.042  -5.921  22.977  0.00  0.00    -0.270 OA
BRANCH  20  22
ATOM     22  C   UNL     1       4.126  -5.086  24.000  0.00  0.00    +0.037 A 
ATOM     23  C   UNL     1       3.337  -5.873  23.147  0.00  0.00    +0.013 A 
ATOM     24  C   UNL     1       1.946  -5.779  23.181  0.00  0.00    +0.001 A 
ATOM     25  C   UNL     1       1.335  -4.883  24.055  0.00  0.00    +0.000 A 
ATOM     26  C   UNL     1       2.115  -4.075  24.887  0.00  0.00    +0.001 A 
ATOM     27  C   UNL     1       3.512  -4.173  24.865  0.00  0.00    +0.013 A 
ENDBRANCH  20  22
ENDBRANCH   2  18
TORSDOF 4
ENDMDL
MODEL 3
REMARK VINA RESULT:      -6.7      2.944      7.608
REMARK  Name = 
REMARK  4 active torsions:
REMARK  status: ('A' for Active; 'I' for Inactive)
REMARK    1  A    between atoms: C_5  and  N_6
REMARK    2  A    between atoms: C_7  and  C_9
REMARK    3  A    between atoms: C_13  and  N_14
REMARK    4  A    between atoms: C_15  and  C_17
REMARK                            x       y       z     vdW  Elec       q    Type
REMARK                         _______ _______ _______ _____ _____    ______ ____
ROOT
ATOM      1  C   UNL     1       7.975  -4.598  25.213  0.00  0.00    +0.168 A 
ATOM      2  C   UNL     1       9.177  -3.892  24.886  0.00  0.00    +0.084 A 
ATOM      3  C   UNL     1      10.180  -4.673  25.403  0.00  0.00    +0.129 A 
ATOM      4  N   UNL     1       9.579  -5.743  25.991  0.00  0.00    -0.282 N 
ATOM      5  H   UNL     1      10.033  -6.527  26.452  0.00  0.00    +0.188 HD
ATOM      6  N   UNL     1       8.234  -5.726  25.909  0.00  0.00    -0.167 NA
ENDROOT
BRANCH   1   9
ATOM      7  N   UNL     1       5.652  -5.181  25.070  0.00  0.00    -0.280 N 
ATOM      8  H   UNL     1       5.960  -5.930  25.687  0.00  0.00    +0.155 HD
ATOM      9  C   UNL     1       6.618  -4.228  24.791  0.00  0.00    +0.270 C 
ATOM     10  O   UNL     1       6.420  -3.146  24.235  0.00  0.00    -0.268 OA
BRANCH   7  15
ATOM     11  F   UNL     1       0.445  -5.268  23.159  0.00  0.00    -0.205 F 
ATOM     12  C   UNL     1       1.702  -5.232  23.617  0.00  0.00    +0.124 A 
ATOM     13  C   UNL     1       2.708  -5.908  22.935  0.00  0.00    +0.040 A 
ATOM     14  C   UNL     1       4.022  -5.872  23.416  0.00  0.00    +0.026 A 
ATOM     15  C   UNL     1       4.323  -5.182  24.598  0.00  0.00    +0.034 A 
ATOM     16  C   UNL     1       3.298  -4.492  25.255  0.00  0.00    +0.026 A 
ATOM     17  C   UNL     1       1.990  -4.514  24.767  0.00  0.00    +0.040 A 
ENDBRANCH   7  15
ENDBRANCH   1   9
BRANCH   2  18
ATOM     18  N   UNL     1       9.302  -2.703  24.169  0.00  0.00    -0.278 N 
ATOM     19  H   UNL     1       9.578  -2.805  23.194  0.00  0.00    +0.155 HD
ATOM     20  C   UNL     1       9.298  -1.448  24.757  0.00  0.00    +0.248 C 
ATOM     21  O   UNL     1       9.163  -1.219  25.956  0.00  0.00    -0.270 OA
BRANCH  20  22
ATOM     22  C   UNL     1       9.568  -0.292  23.861  0.00  0.00    +0.037 A 
ATOM     23  C   UNL     1       9.334  -0.471  22.489  0.00  0.00    +0.013 A 
ATOM     24  C   UNL     1       9.577   0.566  21.587  0.00  0.00    +0.001 A 
ATOM     25  C   UNL     1      10.072   1.782  22.050  0.00  0.00    +0.000 A 
ATOM     26  C   UNL     1      10.335   1.959  23.412  0.00  0.00    +0.001 A 
ATOM     27  C   UNL     1      10.083   0.925  24.323  0.00  0.00    +0.013 A 
ENDBRANCH  20  22
ENDBRANCH   2  18
TORSDOF 4
ENDMDL
MODEL 4
REMARK VINA RESULT:      -6.6      4.924      9.421
REMARK  Name = 
REMARK  4 active torsions:
REMARK  status: ('A' for Active; 'I' for Inactive)
REMARK    1  A    between atoms: C_5  and  N_6
REMARK    2  A    between atoms: C_7  and  C_9
REMARK    3  A    between atoms: C_13  and  N_14
REMARK    4  A    between atoms: C_15  and  C_17
REMARK                            x       y       z     vdW  Elec       q    Type
REMARK                         _______ _______ _______ _____ _____    ______ ____
ROOT
ATOM      1  C   UNL     1       6.242   3.102  22.319  0.00  0.00    +0.168 A 
ATOM      2  C   UNL     1       6.667   4.432  22.637  0.00  0.00    +0.084 A 
ATOM      3  C   UNL     1       5.499   5.143  22.747  0.00  0.00    +0.129 A 
ATOM      4  N   UNL     1       4.485   4.271  22.498  0.00  0.00    -0.282 N 
ATOM      5  H   UNL     1       3.487   4.465  22.517  0.00  0.00    +0.188 HD
ATOM      6  N   UNL     1       4.899   3.019  22.219  0.00  0.00    -0.167 NA
ENDROOT
BRANCH   1   9
ATOM      7  N   UNL     1       6.920   0.966  23.177  0.00  0.00    -0.280 N 
ATOM      8  H   UNL     1       6.088   1.103  23.747  0.00  0.00    +0.155 HD
ATOM      9  C   UNL     1       7.114   1.926  22.197  0.00  0.00    +0.270 C 
ATOM     10  O   UNL     1       7.934   1.861  21.279  0.00  0.00    -0.268 OA
BRANCH   7  15
ATOM     11  F   UNL     1      10.200  -3.383  24.230  0.00  0.00    -0.205 F 
ATOM     12  C   UNL     1       9.414  -2.333  23.961  0.00  0.00    +0.124 A 
ATOM     13  C   UNL     1       9.650  -1.112  24.585  0.00  0.00    +0.040 A 
ATOM     14  C   UNL     1       8.826  -0.016  24.306  0.00  0.00    +0.026 A 
ATOM     15  C   UNL     1       7.747  -0.150  23.422  0.00  0.00    +0.034 A 
ATOM     16  C   UNL     1       7.542  -1.383  22.791  0.00  0.00    +0.026 A 
ATOM     17  C   UNL     1       8.374  -2.473  23.057  0.00  0.00    +0.040 A 
ENDBRANCH   7  15
ENDBRANCH   1   9
BRANCH   2  18
ATOM     18  N   UNL     1       7.969   4.890  22.831  0.00  0.00    -0.278 N 
ATOM     19  H   UNL     1       8.415   5.307  22.015  0.00  0.00    +0.155 HD
ATOM     20  C   UNL     1       8.723   4.605  23.958  0.00  0.00    +0.248 C 
ATOM     21  O   UNL     1       8.348   3.946  24.923  0.00  0.00    -0.270 OA
BRANCH  20  22
ATOM     22  C   UNL     1      10.137   5.068  23.948  0.00  0.00    +0.037 A 
ATOM     23  C   UNL     1      11.079   4.252  23.303  0.00  0.00    +0.013 A 
ATOM     24  C   UNL     1      12.425   4.616  23.265  0.00  0.00    +0.001 A 
ATOM     25  C   UNL     1      12.841   5.791  23.887  0.00  0.00    +0.000 A 
ATOM     26  C   UNL     1      11.913   6.595  24.556  0.00  0.00    +0.001 A 
ATOM     27  C   UNL     1      10.559   6.238  24.588  0.00  0.00    +0.013 A 
ENDBRANCH  20  22
ENDBRANCH   2  18
TORSDOF 4
ENDMDL
MODEL 5
REMARK VINA RESULT:      -6.5      1.829      2.312
REMARK  Name = 
REMARK  4 active torsions:
REMARK  status: ('A' for Active; 'I' for Inactive)
REMARK    1  A    between atoms: C_5  and  N_6
REMARK    2  A    between atoms: C_7  and  C_9
REMARK    3  A    between atoms: C_13  and  N_14
REMARK    4  A    between atoms: C_15  and  C_17
REMARK                            x       y       z     vdW  Elec       q    Type
REMARK                         _______ _______ _______ _____ _____    ______ ____
ROOT
ATOM      1  C   UNL     1       7.442  -4.966  25.613  0.00  0.00    +0.168 A 
ATOM      2  C   UNL     1       6.141  -5.417  26.003  0.00  0.00    +0.084 A 
ATOM      3  C   UNL     1       6.344  -6.039  27.208  0.00  0.00    +0.129 A 
ATOM      4  N   UNL     1       7.676  -5.952  27.474  0.00  0.00    -0.282 N 
ATOM      5  H   UNL     1       8.164  -6.293  28.297  0.00  0.00    +0.188 HD
ATOM      6  N   UNL     1       8.382  -5.317  26.517  0.00  0.00    -0.167 NA
ENDROOT
BRANCH   1   9
ATOM      7  N   UNL     1       8.402  -2.957  24.719  0.00  0.00    -0.280 N 
ATOM      8  H   UNL     1       8.745  -2.879  25.675  0.00  0.00    +0.155 HD
ATOM      9  C   UNL     1       7.752  -4.146  24.435  0.00  0.00    +0.270 C 
ATOM     10  O   UNL     1       7.429  -4.538  23.311  0.00  0.00    -0.268 OA
BRANCH   7  15
ATOM     11  F   UNL     1       9.340   1.147  21.107  0.00  0.00    -0.205 F 
ATOM     12  C   UNL     1       9.120   0.166  21.990  0.00  0.00    +0.124 A 
ATOM     13  C   UNL     1       9.857  -1.011  21.917  0.00  0.00    +0.040 A 
ATOM     14  C   UNL     1       9.624  -2.038  22.839  0.00  0.00    +0.026 A 
ATOM     15  C   UNL     1       8.630  -1.897  23.818  0.00  0.00    +0.034 A 
ATOM     16  C   UNL     1       7.916  -0.695  23.884  0.00  0.00    +0.026 A 
ATOM     17  C   UNL     1       8.159   0.336  22.974  0.00  0.00    +0.040 A 
ENDBRANCH   7  15
ENDBRANCH   1   9
BRANCH   2  18
ATOM     18  N   UNL     1       4.934  -5.230  25.330  0.00  0.00    -0.278 N 
ATOM     19  H   UNL     1       4.387  -4.423  25.626  0.00  0.00    +0.155 HD
ATOM     20  C   UNL     1       4.369  -6.175  24.490  0.00  0.00    +0.248 C 
ATOM     21  O   UNL     1       4.854  -7.268  24.211  0.00  0.00    -0.270 OA
BRANCH  20  22
ATOM     22  C   UNL     1       3.017  -5.865  23.951  0.00  0.00    +0.037 A 
ATOM     23  C   UNL     1       2.345  -4.758  24.493  0.00  0.00    +0.013 A 
ATOM     24  C   UNL     1       1.069  -4.415  24.047  0.00  0.00    +0.001 A 
ATOM     25  C   UNL     1       0.449  -5.187  23.067  0.00  0.00    +0.000 A 
ATOM     26  C   UNL     1       1.100  -6.308  22.543  0.00  0.00    +0.001 A 
ATOM     27  C   UNL     1       2.386  -6.651  22.981  0.00  0.00    +0.013 A 
ENDBRANCH  20  22
ENDBRANCH   2  18
TORSDOF 4
ENDMDL
MODEL 6
REMARK VINA RESULT:      -6.5      2.710      3.701
REMARK  Name = 
REMARK  4 active torsions:
REMARK  status: ('A' for Active; 'I' for Inactive)
REMARK    1  A    between atoms: C_5  and  N_6
REMARK    2  A    between atoms: C_7  and  C_9
REMARK    3  A    between atoms: C_13  and  N_14
REMARK    4  A    between atoms: C_15  and  C_17
REMARK                            x       y       z     vdW  Elec       q    Type
REMARK                         _______ _______ _______ _____ _____    ______ ____
ROOT
ATOM      1  C   UNL     1       7.043  -5.088  23.204  0.00  0.00    +0.168 A 
ATOM      2  C   UNL     1       5.783  -5.373  23.822  0.00  0.00    +0.084 A 
ATOM      3  C   UNL     1       5.216  -6.324  23.013  0.00  0.00    +0.129 A 
ATOM      4  N   UNL     1       6.096  -6.552  22.000  0.00  0.00    -0.282 N 
ATOM      5  H   UNL     1       5.998  -7.214  21.236  0.00  0.00    +0.188 HD
ATOM      6  N   UNL     1       7.217  -5.806  22.075  0.00  0.00    -0.167 NA
ENDROOT
BRANCH   1   9
ATOM      7  N   UNL     1       7.831  -2.852  23.571  0.00  0.00    -0.280 N 
ATOM      8  H   UNL     1       6.885  -2.633  23.263  0.00  0.00    +0.155 HD
ATOM      9  C   UNL     1       8.084  -4.203  23.742  0.00  0.00    +0.270 C 
ATOM     10  O   UNL     1       9.081  -4.685  24.285  0.00  0.00    -0.268 OA
BRANCH   7  15
ATOM     11  F   UNL     1      11.415   1.307  24.369  0.00  0.00    -0.205 F 
ATOM     12  C   UNL     1      10.559   0.294  24.186  0.00  0.00    +0.124 A 
ATOM     13  C   UNL     1      10.455  -0.310  22.937  0.00  0.00    +0.040 A 
ATOM     14  C   UNL     1       9.558  -1.366  22.745  0.00  0.00    +0.026 A 
ATOM     15  C   UNL     1       8.742  -1.800  23.799  0.00  0.00    +0.034 A 
ATOM     16  C   UNL     1       8.879  -1.190  25.052  0.00  0.00    +0.026 A 
ATOM     17  C   UNL     1       9.786  -0.147  25.248  0.00  0.00    +0.040 A 
ENDBRANCH   7  15
ENDBRANCH   1   9
BRANCH   2  18
ATOM     18  N   UNL     1       5.267  -4.836  25.001  0.00  0.00    -0.278 N 
ATOM     19  H   UNL     1       4.725  -3.980  24.894  0.00  0.00    +0.155 HD
ATOM     20  C   UNL     1       5.639  -5.263  26.265  0.00  0.00    +0.248 C 
ATOM     21  O   UNL     1       6.435  -6.165  26.512  0.00  0.00    -0.270 OA
BRANCH  20  22
ATOM     22  C   UNL     1       5.087  -4.498  27.416  0.00  0.00    +0.037 A 
ATOM     23  C   UNL     1       4.918  -5.187  28.627  0.00  0.00    +0.013 A 
ATOM     24  C   UNL     1       4.394  -4.537  29.745  0.00  0.00    +0.001 A 
ATOM     25  C   UNL     1       4.019  -3.199  29.653  0.00  0.00    +0.000 A 
ATOM     26  C   UNL     1       4.157  -2.514  28.442  0.00  0.00    +0.001 A 
ATOM     27  C   UNL     1       4.692  -3.159  27.320  0.00  0.00    +0.013 A 
ENDBRANCH  20  22
ENDBRANCH   2  18
TORSDOF 4
ENDMDL
MODEL 7
REMARK VINA RESULT:      -6.5      3.739      7.987
REMARK  Name = 
REMARK  4 active torsions:
REMARK  status: ('A' for Active; 'I' for Inactive)
REMARK    1  A    between atoms: C_5  and  N_6
REMARK    2  A    between atoms: C_7  and  C_9
REMARK    3  A    between atoms: C_13  and  N_14
REMARK    4  A    between atoms: C_15  and  C_17
REMARK                            x       y       z     vdW  Elec       q    Type
REMARK                         _______ _______ _______ _____ _____    ______ ____
ROOT
ATOM      1  C   UNL     1       8.867  -1.293  23.040  0.00  0.00    +0.168 A 
ATOM      2  C   UNL     1       8.885   0.115  22.782  0.00  0.00    +0.084 A 
ATOM      3  C   UNL     1       9.428   0.223  21.526  0.00  0.00    +0.129 A 
ATOM      4  N   UNL     1       9.706  -1.042  21.111  0.00  0.00    -0.282 N 
ATOM      5  H   UNL     1      10.098  -1.325  20.216  0.00  0.00    +0.188 HD
ATOM      6  N   UNL     1       9.391  -1.994  22.012  0.00  0.00    -0.167 NA
ENDROOT
BRANCH   1   9
ATOM      7  N   UNL     1       8.244  -3.327  24.149  0.00  0.00    -0.280 N 
ATOM      8  H   UNL     1       8.783  -3.729  23.384  0.00  0.00    +0.155 HD
ATOM      9  C   UNL     1       8.282  -1.944  24.219  0.00  0.00    +0.270 C 
ATOM     10  O   UNL     1       7.872  -1.261  25.159  0.00  0.00    -0.268 OA
BRANCH   7  15
ATOM     11  F   UNL     1       5.494  -6.743  27.546  0.00  0.00    -0.205 F 
ATOM     12  C   UNL     1       6.155  -5.907  26.737  0.00  0.00    +0.124 A 
ATOM     13  C   UNL     1       5.613  -5.562  25.503  0.00  0.00    +0.040 A 
ATOM     14  C   UNL     1       6.306  -4.690  24.656  0.00  0.00    +0.026 A 
ATOM     15  C   UNL     1       7.558  -4.186  25.033  0.00  0.00    +0.034 A 
ATOM     16  C   UNL     1       8.074  -4.531  26.288  0.00  0.00    +0.026 A 
ATOM     17  C   UNL     1       7.375  -5.388  27.140  0.00  0.00    +0.040 A 
ENDBRANCH   7  15
ENDBRANCH   1   9
BRANCH   2  18
ATOM     18  N   UNL     1       8.418   1.141  23.603  0.00  0.00    -0.278 N 
ATOM     19  H   UNL     1       7.415   1.316  23.560  0.00  0.00    +0.155 HD
ATOM     20  C   UNL     1       9.248   2.037  24.257  0.00  0.00    +0.248 C 
ATOM     21  O   UNL     1      10.475   2.035  24.223  0.00  0.00    -0.270 OA
BRANCH  20  22
ATOM     22  C   UNL     1       8.581   3.147  24.992  0.00  0.00    +0.037 A 
ATOM     23  C   UNL     1       9.033   4.451  24.738  0.00  0.00    +0.013 A 
ATOM     24  C   UNL     1       8.464   5.539  25.399  0.00  0.00    +0.001 A 
ATOM     25  C   UNL     1       7.451   5.329  26.331  0.00  0.00    +0.000 A 
ATOM     26  C   UNL     1       7.016   4.030  26.611  0.00  0.00    +0.001 A 
ATOM     27  C   UNL     1       7.577   2.935  25.942  0.00  0.00    +0.013 A 
ENDBRANCH  20  22
ENDBRANCH   2  18
TORSDOF 4
ENDMDL
MODEL 8
REMARK VINA RESULT:      -6.4      1.345      2.009
REMARK  Name = 
REMARK  4 active torsions:
REMARK  status: ('A' for Active; 'I' for Inactive)
REMARK    1  A    between atoms: C_5  and  N_6
REMARK    2  A    between atoms: C_7  and  C_9
REMARK    3  A    between atoms: C_13  and  N_14
REMARK    4  A    between atoms: C_15  and  C_17
REMARK                            x       y       z     vdW  Elec       q    Type
REMARK                         _______ _______ _______ _____ _____    ______ ____
ROOT
ATOM      1  C   UNL     1       8.935  -3.884  24.557  0.00  0.00    +0.168 A 
ATOM      2  C   UNL     1       7.934  -4.730  25.134  0.00  0.00    +0.084 A 
ATOM      3  C   UNL     1       8.640  -5.786  25.652  0.00  0.00    +0.129 A 
ATOM      4  N   UNL     1       9.952  -5.553  25.375  0.00  0.00    -0.282 N 
ATOM      5  H   UNL     1      10.748  -6.129  25.635  0.00  0.00    +0.188 HD
ATOM      6  N   UNL     1      10.171  -4.410  24.695  0.00  0.00    -0.167 NA
ENDROOT
BRANCH   1   9
ATOM      7  N   UNL     1       9.744  -1.665  24.136  0.00  0.00    -0.280 N 
ATOM      8  H   UNL     1      10.605  -2.077  24.492  0.00  0.00    +0.155 HD
ATOM      9  C   UNL     1       8.704  -2.563  23.960  0.00  0.00    +0.270 C 
ATOM     10  O   UNL     1       7.648  -2.331  23.368  0.00  0.00    -0.268 OA
BRANCH   7  15
ATOM     11  F   UNL     1       9.588   3.747  22.929  0.00  0.00    -0.205 F 
ATOM     12  C   UNL     1       9.639   2.443  23.229  0.00  0.00    +0.124 A 
ATOM     13  C   UNL     1       9.952   1.516  22.241  0.00  0.00    +0.040 A 
ATOM     14  C   UNL     1      10.001   0.153  22.555  0.00  0.00    +0.026 A 
ATOM     15  C   UNL     1       9.708  -0.284  23.854  0.00  0.00    +0.034 A 
ATOM     16  C   UNL     1       9.416   0.670  24.836  0.00  0.00    +0.026 A 
ATOM     17  C   UNL     1       9.383   2.031  24.527  0.00  0.00    +0.040 A 
ENDBRANCH   7  15
ENDBRANCH   1   9
BRANCH   2  18
ATOM     18  N   UNL     1       6.558  -4.510  25.194  0.00  0.00    -0.278 N 
ATOM     19  H   UNL     1       6.026  -4.839  24.390  0.00  0.00    +0.155 HD
ATOM     20  C   UNL     1       5.952  -3.699  26.139  0.00  0.00    +0.248 C 
ATOM     21  O   UNL     1       6.525  -3.098  27.043  0.00  0.00    -0.270 OA
BRANCH  20  22
ATOM     22  C   UNL     1       4.489  -3.474  25.982  0.00  0.00    +0.037 A 
ATOM     23  C   UNL     1       3.867  -2.614  26.899  0.00  0.00    +0.013 A 
ATOM     24  C   UNL     1       2.496  -2.366  26.822  0.00  0.00    +0.001 A 
ATOM     25  C   UNL     1       1.736  -2.991  25.837  0.00  0.00    +0.000 A 
ATOM     26  C   UNL     1       2.343  -3.872  24.938  0.00  0.00    +0.001 A 
ATOM     27  C   UNL     1       3.721  -4.117  25.005  0.00  0.00    +0.013 A 
ENDBRANCH  20  22
ENDBRANCH   2  18
TORSDOF 4
ENDMDL
MODEL 9
REMARK VINA RESULT:      -6.3      1.987      2.584
REMARK  Name = 
REMARK  4 active torsions:
REMARK  status: ('A' for Active; 'I' for Inactive)
REMARK    1  A    between atoms: C_5  and  N_6
REMARK    2  A    between atoms: C_7  and  C_9
REMARK    3  A    between atoms: C_13  and  N_14
REMARK    4  A    between atoms: C_15  and  C_17
REMARK                            x       y       z     vdW  Elec       q    Type
REMARK                         _______ _______ _______ _____ _____    ______ ____
ROOT
ATOM      1  C   UNL     1       8.869  -3.826  24.817  0.00  0.00    +0.168 A 
ATOM      2  C   UNL     1       7.903  -4.546  25.589  0.00  0.00    +0.084 A 
ATOM      3  C   UNL     1       8.546  -5.706  25.941  0.00  0.00    +0.129 A 
ATOM      4  N   UNL     1       9.790  -5.645  25.393  0.00  0.00    -0.282 N 
ATOM      5  H   UNL     1      10.534  -6.332  25.476  0.00  0.00    +0.188 HD
ATOM      6  N   UNL     1      10.020  -4.519  24.688  0.00  0.00    -0.167 NA
ENDROOT
BRANCH   1   9
ATOM      7  N   UNL     1       9.892  -1.843  23.935  0.00  0.00    -0.280 N 
ATOM      8  H   UNL     1      10.704  -2.457  23.913  0.00  0.00    +0.155 HD
ATOM      9  C   UNL     1       8.707  -2.466  24.288  0.00  0.00    +0.270 C 
ATOM     10  O   UNL     1       7.580  -1.973  24.194  0.00  0.00    -0.268 OA
BRANCH   7  15
ATOM     11  F   UNL     1      10.570   3.523  22.703  0.00  0.00    -0.205 F 
ATOM     12  C   UNL     1      10.391   2.230  22.998  0.00  0.00    +0.124 A 
ATOM     13  C   UNL     1      10.575   1.784  24.302  0.00  0.00    +0.040 A 
ATOM     14  C   UNL     1      10.391   0.431  24.609  0.00  0.00    +0.026 A 
ATOM     15  C   UNL     1      10.050  -0.482  23.601  0.00  0.00    +0.034 A 
ATOM     16  C   UNL     1       9.850  -0.005  22.300  0.00  0.00    +0.026 A 
ATOM     17  C   UNL     1      10.018   1.347  21.997  0.00  0.00    +0.040 A 
ENDBRANCH   7  15
ENDBRANCH   1   9
BRANCH   2  18
ATOM     18  N   UNL     1       6.614  -4.143  25.939  0.00  0.00    -0.278 N 
ATOM     19  H   UNL     1       6.147  -3.535  25.269  0.00  0.00    +0.155 HD
ATOM     20  C   UNL     1       6.067  -4.332  27.198  0.00  0.00    +0.248 C 
ATOM     21  O   UNL     1       6.620  -4.887  28.144  0.00  0.00    -0.270 OA
BRANCH  20  22
ATOM     22  C   UNL     1       4.728  -3.730  27.439  0.00  0.00    +0.037 A 
ATOM     23  C   UNL     1       4.027  -3.247  26.323  0.00  0.00    +0.013 A 
ATOM     24  C   UNL     1       2.772  -2.659  26.475  0.00  0.00    +0.001 A 
ATOM     25  C   UNL     1       2.216  -2.533  27.746  0.00  0.00    +0.000 A 
ATOM     26  C   UNL     1       2.921  -2.985  28.865  0.00  0.00    +0.001 A 
ATOM     27  C   UNL     1       4.178  -3.586  28.717  0.00  0.00    +0.013 A 
ENDBRANCH  20  22
ENDBRANCH   2  18
TORSDOF 4
ENDMDL
