MODEL 1
REMARK VINA RESULT:      -6.3      0.000      0.000
REMARK  Name = 
REMARK  12 active torsions:
REMARK  status: ('A' for Active; 'I' for Inactive)
REMARK    1  A    between atoms: C_2  and  N_3
REMARK    2  A    between atoms: C_2  and  C_4
REMARK    3  A    between atoms: C_2  and  C_10
REMARK    4  A    between atoms: C_4  and  C_5
REMARK    5  A    between atoms: C_5  and  S_6
REMARK    6  A    between atoms: S_6  and  C_7
REMARK    7  A    between atoms: C_7  and  C_8
REMARK    8  A    between atoms: C_7  and  C_9
REMARK    9  A    between atoms: C_10  and  O_12
REMARK   10  A    between atoms: C_10  and  C_13
REMARK   11  A    between atoms: N_15  and  N_16
REMARK   12  A    between atoms: C_17  and  C_19
REMARK                            x       y       z     vdW  Elec       q    Type
REMARK                         _______ _______ _______ _____ _____    ______ ____
ROOT
ATOM      1  C   UNL     1       9.351  -3.469  24.658  0.00  0.00    +0.259 C 
ATOM      2  N   UNL     1       8.715  -2.460  25.353  0.00  0.00    -0.232 N 
ATOM      3  H   UNL     1       8.134  -2.653  26.171  0.00  0.00    +0.173 HD
ATOM      4  O   UNL     1      10.241  -3.245  23.841  0.00  0.00    -0.271 OA
ENDROOT
BRANCH   2   5
ATOM      5  N   UNL     1       9.175  -1.148  25.182  0.00  0.00    -0.230 N 
ATOM      6  H   UNL     1      10.035  -0.902  25.670  0.00  0.00    +0.173 HD
ATOM      7  C   UNL     1       8.373  -0.248  24.512  0.00  0.00    +0.260 C 
ATOM      8  O   UNL     1       7.247  -0.534  24.110  0.00  0.00    -0.269 OA
BRANCH   7   9
ATOM      9  C   UNL     1       8.926   1.118  24.301  0.00  0.00    +0.040 A 
ATOM     10  C   UNL     1      10.013   1.358  23.446  0.00  0.00    +0.013 A 
ATOM     11  C   UNL     1      10.469   2.665  23.243  0.00  0.00    +0.002 A 
ATOM     12  C   UNL     1       9.843   3.732  23.888  0.00  0.00    +0.020 A 
ATOM     13  C   UNL     1       8.759   3.492  24.731  0.00  0.00    +0.042 A 
ATOM     14 CL   UNL     1       7.984   4.812  25.518  0.00  0.00    -0.084 Cl
ATOM     15  C   UNL     1       8.294   2.194  24.936  0.00  0.00    +0.033 A 
ENDBRANCH   7   9
ENDBRANCH   2   5
BRANCH   1  16
ATOM     16  C   UNL     1       8.815  -4.881  24.951  0.00  0.00    +0.218 C 
BRANCH  16  17
ATOM     17  O   UNL     1       9.897  -5.744  25.348  0.00  0.00    -0.381 OA
ATOM     18  H   UNL     1      10.696  -5.403  24.905  0.00  0.00    +0.210 HD
ENDBRANCH  16  17
BRANCH  16  19
ATOM     19  C   UNL     1       7.741  -4.891  26.072  0.00  0.00    +0.089 C 
BRANCH  19  20
ATOM     20  N   UNL     1       8.218  -5.752  27.179  0.00  0.00    -0.325 NA
ATOM     21  H   UNL     1       9.116  -5.376  27.498  0.00  0.00    +0.119 HD
ATOM     22  H   UNL     1       7.589  -5.686  27.977  0.00  0.00    +0.119 HD
ENDBRANCH  19  20
BRANCH  19  23
ATOM     23  C   UNL     1       6.373  -5.382  25.566  0.00  0.00    +0.032 C 
BRANCH  23  24
ATOM     24  C   UNL     1       5.680  -4.410  24.606  0.00  0.00    +0.071 C 
BRANCH  24  25
ATOM     25  S   UNL     1       4.958  -5.363  23.226  0.00  0.00    -0.158 S 
BRANCH  25  26
ATOM     26  C   UNL     1       6.015  -4.813  21.834  0.00  0.00    +0.040 C 
ATOM     27  C   UNL     1       7.101  -5.868  21.632  0.00  0.00    +0.018 C 
ATOM     28  C   UNL     1       6.644  -3.451  22.111  0.00  0.00    +0.018 C 
ENDBRANCH  25  26
ENDBRANCH  24  25
ENDBRANCH  23  24
ENDBRANCH  19  23
ENDBRANCH  16  19
ENDBRANCH   1  16
TORSDOF 10
ENDMDL
MODEL 2
REMARK VINA RESULT:      -6.3      3.858      7.884
REMARK  Name = 
REMARK  12 active torsions:
REMARK  status: ('A' for Active; 'I' for Inactive)
REMARK    1  A    between atoms: C_2  and  N_3
REMARK    2  A    between atoms: C_2  and  C_4
REMARK    3  A    between atoms: C_2  and  C_10
REMARK    4  A    between atoms: C_4  and  C_5
REMARK    5  A    between atoms: C_5  and  S_6
REMARK    6  A    between atoms: S_6  and  C_7
REMARK    7  A    between atoms: C_7  and  C_8
REMARK    8  A    between atoms: C_7  and  C_9
REMARK    9  A    between atoms: C_10  and  O_12
REMARK   10  A    between atoms: C_10  and  C_13
REMARK   11  A    between atoms: N_15  and  N_16
REMARK   12  A    between atoms: C_17  and  C_19
REMARK                            x       y       z     vdW  Elec       q    Type
REMARK                         _______ _______ _______ _____ _____    ______ ____
ROOT
ATOM      1  C   UNL     1       8.974   0.141  22.463  0.00  0.00    +0.259 C 
ATOM      2  N   UNL     1       9.308  -1.179  22.237  0.00  0.00    -0.232 N 
ATOM      3  H   UNL     1      10.273  -1.509  22.303  0.00  0.00    +0.173 HD
ATOM      4  O   UNL     1       7.814   0.505  22.634  0.00  0.00    -0.271 OA
ENDROOT
BRANCH   2   5
ATOM      5  N   UNL     1       8.290  -2.139  22.301  0.00  0.00    -0.230 N 
ATOM      6  H   UNL     1       7.430  -1.922  21.800  0.00  0.00    +0.173 HD
ATOM      7  C   UNL     1       8.448  -3.215  23.150  0.00  0.00    +0.260 C 
ATOM      8  O   UNL     1       9.419  -3.336  23.893  0.00  0.00    -0.269 OA
BRANCH   7   9
ATOM      9  C   UNL     1       7.369  -4.241  23.143  0.00  0.00    +0.040 A 
ATOM     10  C   UNL     1       6.919  -4.840  21.957  0.00  0.00    +0.013 A 
ATOM     11  C   UNL     1       5.935  -5.834  22.004  0.00  0.00    +0.002 A 
ATOM     12  C   UNL     1       5.401  -6.231  23.230  0.00  0.00    +0.020 A 
ATOM     13  C   UNL     1       5.855  -5.639  24.408  0.00  0.00    +0.042 A 
ATOM     14 CL   UNL     1       5.200  -6.138  25.919  0.00  0.00    -0.084 Cl
ATOM     15  C   UNL     1       6.838  -4.652  24.372  0.00  0.00    +0.033 A 
ENDBRANCH   7   9
ENDBRANCH   2   5
BRANCH   1  16
ATOM     16  C   UNL     1      10.164   1.115  22.426  0.00  0.00    +0.218 C 
BRANCH  16  17
ATOM     17  O   UNL     1       9.909   2.165  21.473  0.00  0.00    -0.381 OA
ATOM     18  H   UNL     1       9.694   2.960  21.994  0.00  0.00    +0.210 HD
ENDBRANCH  16  17
BRANCH  16  19
ATOM     19  C   UNL     1      10.447   1.764  23.807  0.00  0.00    +0.089 C 
BRANCH  19  20
ATOM     20  N   UNL     1       9.907   0.882  24.867  0.00  0.00    -0.325 NA
ATOM     21  H   UNL     1       9.546   1.482  25.615  0.00  0.00    +0.119 HD
ATOM     22  H   UNL     1       9.106   0.357  24.520  0.00  0.00    +0.119 HD
ENDBRANCH  19  20
BRANCH  19  23
ATOM     23  C   UNL     1       9.841   3.174  23.926  0.00  0.00    +0.032 C 
BRANCH  23  24
ATOM     24  C   UNL     1       8.599   3.244  24.818  0.00  0.00    +0.071 C 
BRANCH  24  25
ATOM     25  S   UNL     1       7.666   4.759  24.407  0.00  0.00    -0.158 S 
BRANCH  25  26
ATOM     26  C   UNL     1       7.529   4.597  22.586  0.00  0.00    +0.040 C 
ATOM     27  C   UNL     1       7.283   5.992  22.015  0.00  0.00    +0.018 C 
ATOM     28  C   UNL     1       6.397   3.655  22.190  0.00  0.00    +0.018 C 
ENDBRANCH  25  26
ENDBRANCH  24  25
ENDBRANCH  23  24
ENDBRANCH  19  23
ENDBRANCH  16  19
ENDBRANCH   1  16
TORSDOF 10
ENDMDL
MODEL 3
REMARK VINA RESULT:      -6.1      2.510      3.513
REMARK  Name = 
REMARK  12 active torsions:
REMARK  status: ('A' for Active; 'I' for Inactive)
REMARK    1  A    between atoms: C_2  and  N_3
REMARK    2  A    between atoms: C_2  and  C_4
REMARK    3  A    between atoms: C_2  and  C_10
REMARK    4  A    between atoms: C_4  and  C_5
REMARK    5  A    between atoms: C_5  and  S_6
REMARK    6  A    between atoms: S_6  and  C_7
REMARK    7  A    between atoms: C_7  and  C_8
REMARK    8  A    between atoms: C_7  and  C_9
REMARK    9  A    between atoms: C_10  and  O_12
REMARK   10  A    between atoms: C_10  and  C_13
REMARK   11  A    between atoms: N_15  and  N_16
REMARK   12  A    between atoms: C_17  and  C_19
REMARK                            x       y       z     vdW  Elec       q    Type
REMARK                         _______ _______ _______ _____ _____    ______ ____
ROOT
ATOM      1  C   UNL     1       6.300  -3.958  21.927  0.00  0.00    +0.259 C 
ATOM      2  N   UNL     1       7.553  -3.554  22.341  0.00  0.00    -0.232 N 
ATOM      3  H   UNL     1       8.341  -4.203  22.386  0.00  0.00    +0.173 HD
ATOM      4  O   UNL     1       5.417  -3.158  21.628  0.00  0.00    -0.271 OA
ENDROOT
BRANCH   2   5
ATOM      5  N   UNL     1       7.845  -2.184  22.326  0.00  0.00    -0.230 N 
ATOM      6  H   UNL     1       7.266  -1.604  21.720  0.00  0.00    +0.173 HD
ATOM      7  C   UNL     1       8.969  -1.739  22.990  0.00  0.00    +0.260 C 
ATOM      8  O   UNL     1       9.756  -2.502  23.546  0.00  0.00    -0.269 OA
BRANCH   7   9
ATOM      9  C   UNL     1       9.208  -0.270  22.998  0.00  0.00    +0.040 A 
ATOM     10  C   UNL     1       9.890   0.381  21.959  0.00  0.00    +0.013 A 
ATOM     11  C   UNL     1      10.049   1.771  21.987  0.00  0.00    +0.002 A 
ATOM     12  C   UNL     1       9.528   2.513  23.049  0.00  0.00    +0.020 A 
ATOM     13  C   UNL     1       8.845   1.865  24.077  0.00  0.00    +0.042 A 
ATOM     14 CL   UNL     1       8.197   2.783  25.380  0.00  0.00    -0.084 Cl
ATOM     15  C   UNL     1       8.677   0.481  24.055  0.00  0.00    +0.033 A 
ENDBRANCH   7   9
ENDBRANCH   2   5
BRANCH   1  16
ATOM     16  C   UNL     1       6.090  -5.481  21.924  0.00  0.00    +0.218 C 
BRANCH  16  17
ATOM     17  O   UNL     1       7.348  -6.151  22.132  0.00  0.00    -0.381 OA
ATOM     18  H   UNL     1       8.015  -5.638  21.640  0.00  0.00    +0.210 HD
ENDBRANCH  16  17
BRANCH  16  19
ATOM     19  C   UNL     1       5.097  -5.949  23.023  0.00  0.00    +0.089 C 
BRANCH  19  20
ATOM     20  N   UNL     1       3.827  -5.203  22.865  0.00  0.00    -0.325 NA
ATOM     21  H   UNL     1       3.080  -5.890  22.728  0.00  0.00    +0.119 HD
ATOM     22  H   UNL     1       3.596  -4.709  23.725  0.00  0.00    +0.119 HD
ENDBRANCH  19  20
BRANCH  19  23
ATOM     23  C   UNL     1       5.661  -5.751  24.442  0.00  0.00    +0.032 C 
BRANCH  23  24
ATOM     24  C   UNL     1       4.944  -4.666  25.250  0.00  0.00    +0.071 C 
BRANCH  24  25
ATOM     25  S   UNL     1       5.906  -4.332  26.766  0.00  0.00    -0.158 S 
BRANCH  25  26
ATOM     26  C   UNL     1       7.455  -3.661  26.053  0.00  0.00    +0.040 C 
ATOM     27  C   UNL     1       8.608  -4.530  26.548  0.00  0.00    +0.018 C 
ATOM     28  C   UNL     1       7.675  -2.207  26.458  0.00  0.00    +0.018 C 
ENDBRANCH  25  26
ENDBRANCH  24  25
ENDBRANCH  23  24
ENDBRANCH  19  23
ENDBRANCH  16  19
ENDBRANCH   1  16
TORSDOF 10
ENDMDL
MODEL 4
REMARK VINA RESULT:      -6.0      4.024      7.895
REMARK  Name = 
REMARK  12 active torsions:
REMARK  status: ('A' for Active; 'I' for Inactive)
REMARK    1  A    between atoms: C_2  and  N_3
REMARK    2  A    between atoms: C_2  and  C_4
REMARK    3  A    between atoms: C_2  and  C_10
REMARK    4  A    between atoms: C_4  and  C_5
REMARK    5  A    between atoms: C_5  and  S_6
REMARK    6  A    between atoms: S_6  and  C_7
REMARK    7  A    between atoms: C_7  and  C_8
REMARK    8  A    between atoms: C_7  and  C_9
REMARK    9  A    between atoms: C_10  and  O_12
REMARK   10  A    between atoms: C_10  and  C_13
REMARK   11  A    between atoms: N_15  and  N_16
REMARK   12  A    between atoms: C_17  and  C_19
REMARK                            x       y       z     vdW  Elec       q    Type
REMARK                         _______ _______ _______ _____ _____    ______ ____
ROOT
ATOM      1  C   UNL     1       9.277   0.268  22.425  0.00  0.00    +0.259 C 
ATOM      2  N   UNL     1       9.775  -1.015  22.523  0.00  0.00    -0.232 N 
ATOM      3  H   UNL     1      10.711  -1.203  22.889  0.00  0.00    +0.173 HD
ATOM      4  O   UNL     1       8.087   0.498  22.230  0.00  0.00    -0.271 OA
ENDROOT
BRANCH   2   5
ATOM      5  N   UNL     1       8.867  -2.081  22.492  0.00  0.00    -0.230 N 
ATOM      6  H   UNL     1       8.475  -2.316  21.581  0.00  0.00    +0.173 HD
ATOM      7  C   UNL     1       8.445  -2.626  23.687  0.00  0.00    +0.260 C 
ATOM      8  O   UNL     1       8.790  -2.179  24.779  0.00  0.00    -0.269 OA
BRANCH   7   9
ATOM      9  C   UNL     1       7.526  -3.795  23.605  0.00  0.00    +0.040 A 
ATOM     10  C   UNL     1       6.893  -4.327  24.739  0.00  0.00    +0.013 A 
ATOM     11  C   UNL     1       6.002  -5.397  24.606  0.00  0.00    +0.002 A 
ATOM     12  C   UNL     1       5.738  -5.936  23.346  0.00  0.00    +0.020 A 
ATOM     13  C   UNL     1       6.363  -5.401  22.221  0.00  0.00    +0.042 A 
ATOM     14 CL   UNL     1       6.030  -6.063  20.667  0.00  0.00    -0.084 Cl
ATOM     15  C   UNL     1       7.250  -4.332  22.341  0.00  0.00    +0.033 A 
ENDBRANCH   7   9
ENDBRANCH   2   5
BRANCH   1  16
ATOM     16  C   UNL     1      10.342   1.374  22.524  0.00  0.00    +0.218 C 
BRANCH  16  17
ATOM     17  O   UNL     1      10.054   2.419  21.575  0.00  0.00    -0.381 OA
ATOM     18  H   UNL     1      10.862   2.960  21.511  0.00  0.00    +0.210 HD
ENDBRANCH  16  17
BRANCH  16  19
ATOM     19  C   UNL     1      10.417   2.006  23.940  0.00  0.00    +0.089 C 
BRANCH  19  20
ATOM     20  N   UNL     1       9.770   1.087  24.905  0.00  0.00    -0.325 NA
ATOM     21  H   UNL     1       8.757   1.215  24.822  0.00  0.00    +0.119 HD
ATOM     22  H   UNL     1       9.950   0.118  24.650  0.00  0.00    +0.119 HD
ENDBRANCH  19  20
BRANCH  19  23
ATOM     23  C   UNL     1       9.754   3.394  23.997  0.00  0.00    +0.032 C 
BRANCH  23  24
ATOM     24  C   UNL     1       8.271   3.360  24.375  0.00  0.00    +0.071 C 
BRANCH  24  25
ATOM     25  S   UNL     1       7.648   5.074  24.460  0.00  0.00    -0.158 S 
BRANCH  25  26
ATOM     26  C   UNL     1       6.733   5.189  22.876  0.00  0.00    +0.040 C 
ATOM     27  C   UNL     1       6.737   3.802  22.237  0.00  0.00    +0.018 C 
ATOM     28  C   UNL     1       7.367   6.208  21.935  0.00  0.00    +0.018 C 
ENDBRANCH  25  26
ENDBRANCH  24  25
ENDBRANCH  23  24
ENDBRANCH  19  23
ENDBRANCH  16  19
ENDBRANCH   1  16
TORSDOF 10
ENDMDL
MODEL 5
REMARK VINA RESULT:      -6.0      2.039      2.777
REMARK  Name = 
REMARK  12 active torsions:
REMARK  status: ('A' for Active; 'I' for Inactive)
REMARK    1  A    between atoms: C_2  and  N_3
REMARK    2  A    between atoms: C_2  and  C_4
REMARK    3  A    between atoms: C_2  and  C_10
REMARK    4  A    between atoms: C_4  and  C_5
REMARK    5  A    between atoms: C_5  and  S_6
REMARK    6  A    between atoms: S_6  and  C_7
REMARK    7  A    between atoms: C_7  and  C_8
REMARK    8  A    between atoms: C_7  and  C_9
REMARK    9  A    between atoms: C_10  and  O_12
REMARK   10  A    between atoms: C_10  and  C_13
REMARK   11  A    between atoms: N_15  and  N_16
REMARK   12  A    between atoms: C_17  and  C_19
REMARK                            x       y       z     vdW  Elec       q    Type
REMARK                         _______ _______ _______ _____ _____    ______ ____
ROOT
ATOM      1  C   UNL     1       6.927  -4.127  26.346  0.00  0.00    +0.259 C 
ATOM      2  N   UNL     1       8.196  -3.799  25.914  0.00  0.00    -0.232 N 
ATOM      3  H   UNL     1       8.856  -4.509  25.592  0.00  0.00    +0.173 HD
ATOM      4  O   UNL     1       6.045  -3.285  26.496  0.00  0.00    -0.271 OA
ENDROOT
BRANCH   2   5
ATOM      5  N   UNL     1       8.446  -2.470  25.548  0.00  0.00    -0.230 N 
ATOM      6  H   UNL     1       7.994  -1.752  26.112  0.00  0.00    +0.173 HD
ATOM      7  C   UNL     1       9.138  -2.225  24.380  0.00  0.00    +0.260 C 
ATOM      8  O   UNL     1       9.495  -3.122  23.620  0.00  0.00    -0.269 OA
BRANCH   7   9
ATOM      9  C   UNL     1       9.434  -0.801  24.061  0.00  0.00    +0.040 A 
ATOM     10  C   UNL     1      10.446  -0.084  24.717  0.00  0.00    +0.013 A 
ATOM     11  C   UNL     1      10.718   1.238  24.350  0.00  0.00    +0.002 A 
ATOM     12  C   UNL     1       9.986   1.846  23.330  0.00  0.00    +0.020 A 
ATOM     13  C   UNL     1       8.986   1.130  22.674  0.00  0.00    +0.042 A 
ATOM     14 CL   UNL     1       8.090   1.880  21.411  0.00  0.00    -0.084 Cl
ATOM     15  C   UNL     1       8.709  -0.190  23.029  0.00  0.00    +0.033 A 
ENDBRANCH   7   9
ENDBRANCH   2   5
BRANCH   1  16
ATOM     16  C   UNL     1       6.730  -5.617  26.674  0.00  0.00    +0.218 C 
BRANCH  16  17
ATOM     17  O   UNL     1       7.599  -6.000  27.757  0.00  0.00    -0.381 OA
ATOM     18  H   UNL     1       8.509  -5.939  27.412  0.00  0.00    +0.210 HD
ENDBRANCH  16  17
BRANCH  16  19
ATOM     19  C   UNL     1       5.269  -5.953  27.074  0.00  0.00    +0.089 C 
BRANCH  19  20
ATOM     20  N   UNL     1       5.262  -7.232  27.820  0.00  0.00    -0.325 NA
ATOM     21  H   UNL     1       6.160  -7.312  28.306  0.00  0.00    +0.119 HD
ATOM     22  H   UNL     1       4.551  -7.216  28.549  0.00  0.00    +0.119 HD
ENDBRANCH  19  20
BRANCH  19  23
ATOM     23  C   UNL     1       4.333  -6.040  25.854  0.00  0.00    +0.032 C 
BRANCH  23  24
ATOM     24  C   UNL     1       5.002  -6.604  24.598  0.00  0.00    +0.071 C 
BRANCH  24  25
ATOM     25  S   UNL     1       4.681  -5.469  23.203  0.00  0.00    -0.158 S 
BRANCH  25  26
ATOM     26  C   UNL     1       6.377  -4.878  22.840  0.00  0.00    +0.040 C 
ATOM     27  C   UNL     1       6.256  -3.533  22.127  0.00  0.00    +0.018 C 
ATOM     28  C   UNL     1       7.143  -5.871  21.972  0.00  0.00    +0.018 C 
ENDBRANCH  25  26
ENDBRANCH  24  25
ENDBRANCH  23  24
ENDBRANCH  19  23
ENDBRANCH  16  19
ENDBRANCH   1  16
TORSDOF 10
ENDMDL
MODEL 6
REMARK VINA RESULT:      -6.0      3.699      8.139
REMARK  Name = 
REMARK  12 active torsions:
REMARK  status: ('A' for Active; 'I' for Inactive)
REMARK    1  A    between atoms: C_2  and  N_3
REMARK    2  A    between atoms: C_2  and  C_4
REMARK    3  A    between atoms: C_2  and  C_10
REMARK    4  A    between atoms: C_4  and  C_5
REMARK    5  A    between atoms: C_5  and  S_6
REMARK    6  A    between atoms: S_6  and  C_7
REMARK    7  A    between atoms: C_7  and  C_8
REMARK    8  A    between atoms: C_7  and  C_9
REMARK    9  A    between atoms: C_10  and  O_12
REMARK   10  A    between atoms: C_10  and  C_13
REMARK   11  A    between atoms: N_15  and  N_16
REMARK   12  A    between atoms: C_17  and  C_19
REMARK                            x       y       z     vdW  Elec       q    Type
REMARK                         _______ _______ _______ _____ _____    ______ ____
ROOT
ATOM      1  C   UNL     1       8.870  -0.347  22.980  0.00  0.00    +0.259 C 
ATOM      2  N   UNL     1       9.196  -1.613  23.424  0.00  0.00    -0.232 N 
ATOM      3  H   UNL     1      10.145  -1.852  23.717  0.00  0.00    +0.173 HD
ATOM      4  O   UNL     1       7.706   0.029  22.865  0.00  0.00    -0.271 OA
ENDROOT
BRANCH   2   5
ATOM      5  N   UNL     1       8.158  -2.454  23.843  0.00  0.00    -0.230 N 
ATOM      6  H   UNL     1       7.226  -2.043  23.875  0.00  0.00    +0.173 HD
ATOM      7  C   UNL     1       8.476  -3.706  24.328  0.00  0.00    +0.260 C 
ATOM      8  O   UNL     1       9.635  -4.091  24.462  0.00  0.00    -0.269 OA
BRANCH   7   9
ATOM      9  C   UNL     1       7.338  -4.589  24.706  0.00  0.00    +0.040 A 
ATOM     10  C   UNL     1       7.208  -5.128  25.994  0.00  0.00    +0.013 A 
ATOM     11  C   UNL     1       6.097  -5.915  26.316  0.00  0.00    +0.002 A 
ATOM     12  C   UNL     1       5.115  -6.164  25.356  0.00  0.00    +0.020 A 
ATOM     13  C   UNL     1       5.243  -5.622  24.078  0.00  0.00    +0.042 A 
ATOM     14 CL   UNL     1       4.026  -5.924  22.900  0.00  0.00    -0.084 Cl
ATOM     15  C   UNL     1       6.344  -4.832  23.749  0.00  0.00    +0.033 A 
ENDBRANCH   7   9
ENDBRANCH   2   5
BRANCH   1  16
ATOM     16  C   UNL     1      10.077   0.524  22.594  0.00  0.00    +0.218 C 
BRANCH  16  17
ATOM     17  O   UNL     1       9.740   1.360  21.470  0.00  0.00    -0.381 OA
ATOM     18  H   UNL     1       8.775   1.283  21.353  0.00  0.00    +0.210 HD
ENDBRANCH  16  17
BRANCH  16  19
ATOM     19  C   UNL     1      10.553   1.436  23.758  0.00  0.00    +0.089 C 
BRANCH  19  20
ATOM     20  N   UNL     1       9.767   1.108  24.970  0.00  0.00    -0.325 NA
ATOM     21  H   UNL     1       8.789   1.000  24.684  0.00  0.00    +0.119 HD
ATOM     22  H   UNL     1      10.049   0.204  25.343  0.00  0.00    +0.119 HD
ENDBRANCH  19  20
BRANCH  19  23
ATOM     23  C   UNL     1      10.417   2.932  23.421  0.00  0.00    +0.032 C 
BRANCH  23  24
ATOM     24  C   UNL     1       9.316   3.649  24.207  0.00  0.00    +0.071 C 
BRANCH  24  25
ATOM     25  S   UNL     1       7.925   4.001  23.079  0.00  0.00    -0.158 S 
BRANCH  25  26
ATOM     26  C   UNL     1       7.845   5.829  23.188  0.00  0.00    +0.040 C 
ATOM     27  C   UNL     1       7.288   6.348  21.864  0.00  0.00    +0.018 C 
ATOM     28  C   UNL     1       9.217   6.436  23.460  0.00  0.00    +0.018 C 
ENDBRANCH  25  26
ENDBRANCH  24  25
ENDBRANCH  23  24
ENDBRANCH  19  23
ENDBRANCH  16  19
ENDBRANCH   1  16
TORSDOF 10
ENDMDL
MODEL 7
REMARK VINA RESULT:      -6.0      3.773      7.807
REMARK  Name = 
REMARK  12 active torsions:
REMARK  status: ('A' for Active; 'I' for Inactive)
REMARK    1  A    between atoms: C_2  and  N_3
REMARK    2  A    between atoms: C_2  and  C_4
REMARK    3  A    between atoms: C_2  and  C_10
REMARK    4  A    between atoms: C_4  and  C_5
REMARK    5  A    between atoms: C_5  and  S_6
REMARK    6  A    between atoms: S_6  and  C_7
REMARK    7  A    between atoms: C_7  and  C_8
REMARK    8  A    between atoms: C_7  and  C_9
REMARK    9  A    between atoms: C_10  and  O_12
REMARK   10  A    between atoms: C_10  and  C_13
REMARK   11  A    between atoms: N_15  and  N_16
REMARK   12  A    between atoms: C_17  and  C_19
REMARK                            x       y       z     vdW  Elec       q    Type
REMARK                         _______ _______ _______ _____ _____    ______ ____
ROOT
ATOM      1  C   UNL     1       9.621  -2.296  23.330  0.00  0.00    +0.259 C 
ATOM      2  N   UNL     1       8.246  -2.191  23.271  0.00  0.00    -0.232 N 
ATOM      3  H   UNL     1       7.777  -1.659  22.536  0.00  0.00    +0.173 HD
ATOM      4  O   UNL     1      10.188  -3.121  24.041  0.00  0.00    -0.271 OA
ENDROOT
BRANCH   2   5
ATOM      5  N   UNL     1       7.482  -3.126  23.980  0.00  0.00    -0.230 N 
ATOM      6  H   UNL     1       7.454  -3.015  24.993  0.00  0.00    +0.173 HD
ATOM      7  C   UNL     1       6.959  -4.207  23.300  0.00  0.00    +0.260 C 
ATOM      8  O   UNL     1       7.184  -4.412  22.109  0.00  0.00    -0.269 OA
BRANCH   7   9
ATOM      9  C   UNL     1       6.104  -5.142  24.080  0.00  0.00    +0.040 A 
ATOM     10  C   UNL     1       5.163  -5.982  23.465  0.00  0.00    +0.013 A 
ATOM     11  C   UNL     1       4.414  -6.879  24.234  0.00  0.00    +0.002 A 
ATOM     12  C   UNL     1       4.603  -6.941  25.615  0.00  0.00    +0.020 A 
ATOM     13  C   UNL     1       5.543  -6.111  26.224  0.00  0.00    +0.042 A 
ATOM     14 CL   UNL     1       5.780  -6.198  27.926  0.00  0.00    -0.084 Cl
ATOM     15  C   UNL     1       6.298  -5.218  25.465  0.00  0.00    +0.033 A 
ENDBRANCH   7   9
ENDBRANCH   2   5
BRANCH   1  16
ATOM     16  C   UNL     1      10.376  -1.262  22.477  0.00  0.00    +0.218 C 
BRANCH  16  17
ATOM     17  O   UNL     1       9.703  -1.080  21.217  0.00  0.00    -0.381 OA
ATOM     18  H   UNL     1       8.966  -0.465  21.387  0.00  0.00    +0.210 HD
ENDBRANCH  16  17
BRANCH  16  19
ATOM     19  C   UNL     1      10.492   0.119  23.176  0.00  0.00    +0.089 C 
BRANCH  19  20
ATOM     20  N   UNL     1       9.974  -0.003  24.558  0.00  0.00    -0.325 NA
ATOM     21  H   UNL     1       9.089   0.511  24.603  0.00  0.00    +0.119 HD
ATOM     22  H   UNL     1       9.745  -0.973  24.768  0.00  0.00    +0.119 HD
ENDBRANCH  19  20
BRANCH  19  23
ATOM     23  C   UNL     1       9.733   1.223  22.417  0.00  0.00    +0.032 C 
BRANCH  23  24
ATOM     24  C   UNL     1       8.704   1.970  23.270  0.00  0.00    +0.071 C 
BRANCH  24  25
ATOM     25  S   UNL     1       9.424   3.563  23.798  0.00  0.00    -0.158 S 
BRANCH  25  26
ATOM     26  C   UNL     1       8.055   4.712  23.396  0.00  0.00    +0.040 C 
ATOM     27  C   UNL     1       7.266   4.106  22.237  0.00  0.00    +0.018 C 
ATOM     28  C   UNL     1       8.575   6.095  23.017  0.00  0.00    +0.018 C 
ENDBRANCH  25  26
ENDBRANCH  24  25
ENDBRANCH  23  24
ENDBRANCH  19  23
ENDBRANCH  16  19
ENDBRANCH   1  16
TORSDOF 10
ENDMDL
MODEL 8
REMARK VINA RESULT:      -6.0      4.287      8.198
REMARK  Name = 
REMARK  12 active torsions:
REMARK  status: ('A' for Active; 'I' for Inactive)
REMARK    1  A    between atoms: C_2  and  N_3
REMARK    2  A    between atoms: C_2  and  C_4
REMARK    3  A    between atoms: C_2  and  C_10
REMARK    4  A    between atoms: C_4  and  C_5
REMARK    5  A    between atoms: C_5  and  S_6
REMARK    6  A    between atoms: S_6  and  C_7
REMARK    7  A    between atoms: C_7  and  C_8
REMARK    8  A    between atoms: C_7  and  C_9
REMARK    9  A    between atoms: C_10  and  O_12
REMARK   10  A    between atoms: C_10  and  C_13
REMARK   11  A    between atoms: N_15  and  N_16
REMARK   12  A    between atoms: C_17  and  C_19
REMARK                            x       y       z     vdW  Elec       q    Type
REMARK                         _______ _______ _______ _____ _____    ______ ____
ROOT
ATOM      1  C   UNL     1       9.795  -0.015  22.541  0.00  0.00    +0.259 C 
ATOM      2  N   UNL     1       8.438  -0.226  22.401  0.00  0.00    -0.232 N 
ATOM      3  H   UNL     1       7.802   0.526  22.131  0.00  0.00    +0.173 HD
ATOM      4  O   UNL     1      10.600  -0.941  22.616  0.00  0.00    -0.271 OA
ENDROOT
BRANCH   2   5
ATOM      5  N   UNL     1       7.987  -1.543  22.246  0.00  0.00    -0.230 N 
ATOM      6  H   UNL     1       8.450  -2.100  21.530  0.00  0.00    +0.173 HD
ATOM      7  C   UNL     1       6.864  -1.943  22.941  0.00  0.00    +0.260 C 
ATOM      8  O   UNL     1       6.212  -1.176  23.646  0.00  0.00    -0.269 OA
BRANCH   7   9
ATOM      9  C   UNL     1       6.455  -3.367  22.793  0.00  0.00    +0.040 A 
ATOM     10  C   UNL     1       7.374  -4.378  22.474  0.00  0.00    +0.013 A 
ATOM     11  C   UNL     1       6.951  -5.709  22.392  0.00  0.00    +0.002 A 
ATOM     12  C   UNL     1       5.614  -6.034  22.628  0.00  0.00    +0.020 A 
ATOM     13  C   UNL     1       4.704  -5.029  22.952  0.00  0.00    +0.042 A 
ATOM     14 CL   UNL     1       3.059  -5.434  23.251  0.00  0.00    -0.084 Cl
ATOM     15  C   UNL     1       5.117  -3.700  23.041  0.00  0.00    +0.033 A 
ENDBRANCH   7   9
ENDBRANCH   2   5
BRANCH   1  16
ATOM     16  C   UNL     1      10.203   1.463  22.649  0.00  0.00    +0.218 C 
BRANCH  16  17
ATOM     17  O   UNL     1       9.453   2.250  21.704  0.00  0.00    -0.381 OA
ATOM     18  H   UNL     1       8.533   1.931  21.753  0.00  0.00    +0.210 HD
ENDBRANCH  16  17
BRANCH  16  19
ATOM     19  C   UNL     1       9.968   2.046  24.069  0.00  0.00    +0.089 C 
BRANCH  19  20
ATOM     20  N   UNL     1      10.080   0.949  25.058  0.00  0.00    -0.325 NA
ATOM     21  H   UNL     1       9.955   0.065  24.555  0.00  0.00    +0.119 HD
ATOM     22  H   UNL     1      11.021   0.916  25.447  0.00  0.00    +0.119 HD
ENDBRANCH  19  20
BRANCH  19  23
ATOM     23  C   UNL     1       8.600   2.741  24.196  0.00  0.00    +0.032 C 
BRANCH  23  24
ATOM     24  C   UNL     1       8.660   4.116  24.866  0.00  0.00    +0.071 C 
BRANCH  24  25
ATOM     25  S   UNL     1       8.589   5.402  23.573  0.00  0.00    -0.158 S 
BRANCH  25  26
ATOM     26  C   UNL     1      10.050   6.418  24.014  0.00  0.00    +0.040 C 
ATOM     27  C   UNL     1      11.298   5.625  23.632  0.00  0.00    +0.018 C 
ATOM     28  C   UNL     1      10.071   6.755  25.501  0.00  0.00    +0.018 C 
ENDBRANCH  25  26
ENDBRANCH  24  25
ENDBRANCH  23  24
ENDBRANCH  19  23
ENDBRANCH  16  19
ENDBRANCH   1  16
TORSDOF 10
ENDMDL
MODEL 9
REMARK VINA RESULT:      -6.0      2.499      3.356
REMARK  Name = 
REMARK  12 active torsions:
REMARK  status: ('A' for Active; 'I' for Inactive)
REMARK    1  A    between atoms: C_2  and  N_3
REMARK    2  A    between atoms: C_2  and  C_4
REMARK    3  A    between atoms: C_2  and  C_10
REMARK    4  A    between atoms: C_4  and  C_5
REMARK    5  A    between atoms: C_5  and  S_6
REMARK    6  A    between atoms: S_6  and  C_7
REMARK    7  A    between atoms: C_7  and  C_8
REMARK    8  A    between atoms: C_7  and  C_9
REMARK    9  A    between atoms: C_10  and  O_12
REMARK   10  A    between atoms: C_10  and  C_13
REMARK   11  A    between atoms: N_15  and  N_16
REMARK   12  A    between atoms: C_17  and  C_19
REMARK                            x       y       z     vdW  Elec       q    Type
REMARK                         _______ _______ _______ _____ _____    ______ ____
ROOT
ATOM      1  C   UNL     1       9.806  -0.933  24.483  0.00  0.00    +0.259 C 
ATOM      2  N   UNL     1      10.541  -0.090  23.675  0.00  0.00    -0.232 N 
ATOM      3  H   UNL     1      10.762  -0.329  22.706  0.00  0.00    +0.173 HD
ATOM      4  O   UNL     1       9.322  -0.564  25.550  0.00  0.00    -0.271 OA
ENDROOT
BRANCH   2   5
ATOM      5  N   UNL     1      10.652   1.255  24.051  0.00  0.00    -0.230 N 
ATOM      6  H   UNL     1      10.743   1.441  25.048  0.00  0.00    +0.173 HD
ATOM      7  C   UNL     1      10.473   2.228  23.089  0.00  0.00    +0.260 C 
ATOM      8  O   UNL     1      10.165   1.964  21.928  0.00  0.00    -0.269 OA
BRANCH   7   9
ATOM      9  C   UNL     1      10.659   3.641  23.519  0.00  0.00    +0.040 A 
ATOM     10  C   UNL     1      11.873   4.321  23.342  0.00  0.00    +0.013 A 
ATOM     11  C   UNL     1      11.986   5.663  23.719  0.00  0.00    +0.002 A 
ATOM     12  C   UNL     1      10.891   6.329  24.272  0.00  0.00    +0.020 A 
ATOM     13  C   UNL     1       9.684   5.653  24.441  0.00  0.00    +0.042 A 
ATOM     14 CL   UNL     1       8.333   6.479  25.115  0.00  0.00    -0.084 Cl
ATOM     15  C   UNL     1       9.560   4.317  24.064  0.00  0.00    +0.033 A 
ENDBRANCH   7   9
ENDBRANCH   2   5
BRANCH   1  16
ATOM     16  C   UNL     1       9.694  -2.377  23.964  0.00  0.00    +0.218 C 
BRANCH  16  17
ATOM     17  O   UNL     1       9.120  -3.221  24.980  0.00  0.00    -0.381 OA
ATOM     18  H   UNL     1       8.366  -2.727  25.352  0.00  0.00    +0.210 HD
ENDBRANCH  16  17
BRANCH  16  19
ATOM     19  C   UNL     1       8.820  -2.485  22.685  0.00  0.00    +0.089 C 
BRANCH  19  20
ATOM     20  N   UNL     1       9.521  -1.806  21.571  0.00  0.00    -0.325 NA
ATOM     21  H   UNL     1       9.708  -0.842  21.866  0.00  0.00    +0.119 HD
ATOM     22  H   UNL     1      10.433  -2.231  21.413  0.00  0.00    +0.119 HD
ENDBRANCH  19  20
BRANCH  19  23
ATOM     23  C   UNL     1       7.418  -1.879  22.883  0.00  0.00    +0.032 C 
BRANCH  23  24
ATOM     24  C   UNL     1       6.285  -2.732  22.305  0.00  0.00    +0.071 C 
BRANCH  24  25
ATOM     25  S   UNL     1       5.606  -3.783  23.635  0.00  0.00    -0.158 S 
BRANCH  25  26
ATOM     26  C   UNL     1       5.402  -5.374  22.748  0.00  0.00    +0.040 C 
ATOM     27  C   UNL     1       4.936  -6.414  23.765  0.00  0.00    +0.018 C 
ATOM     28  C   UNL     1       6.703  -5.821  22.090  0.00  0.00    +0.018 C 
ENDBRANCH  25  26
ENDBRANCH  24  25
ENDBRANCH  23  24
ENDBRANCH  19  23
ENDBRANCH  16  19
ENDBRANCH   1  16
TORSDOF 10
ENDMDL
