MODEL 1
REMARK VINA RESULT:      -7.7      0.000      0.000
REMARK  Name = 
REMARK  11 active torsions:
REMARK  status: ('A' for Active; 'I' for Inactive)
REMARK    1  A    between atoms: C_10  and  C_11
REMARK    2  A    between atoms: C_11  and  C_12
REMARK    3  A    between atoms: C_12  and  C_13
REMARK    4  A    between atoms: C_16  and  C_19
REMARK    5  A    between atoms: N_21  and  CA_22
REMARK    6  A    between atoms: CA_22  and  CB_24
REMARK    7  A    between atoms: CA_22  and  C_29
REMARK    8  A    between atoms: CB_24  and  CG_25
REMARK    9  A    between atoms: CG_25  and  CD_26
REMARK   10  A    between atoms: CD_26  and  OE1_27
REMARK   11  A    between atoms: C_29  and  O_30
REMARK                            x       y       z     vdW  Elec       q    Type
REMARK                         _______ _______ _______ _____ _____    ______ ____
ROOT
ATOM      1  C   UNK A   0      10.372   2.342  23.284  0.00  0.00    -0.047 A 
ATOM      2  C   UNK A   0      10.577   1.425  24.328  0.00  0.00    +0.004 A 
ATOM      3  C   UNK A   0      10.251   0.073  24.174  0.00  0.00    +0.013 A 
ATOM      4  C   UNK A   0       9.699  -0.380  22.973  0.00  0.00    +0.037 A 
ATOM      5  C   UNK A   0       9.590   0.502  21.893  0.00  0.00    +0.013 A 
ATOM      6  C   UNK A   0       9.931   1.850  22.048  0.00  0.00    +0.004 A 
ENDROOT
BRANCH   4   7
ATOM      7  C   UNK A   0       9.229  -1.792  22.886  0.00  0.00    +0.245 C 
ATOM      8  N   GLU A   1       9.230  -2.508  24.066  0.00  0.00    -0.298 N 
ATOM      9  H   GLU A   1       9.531  -2.053  24.924  0.00  0.00    +0.150 HD
ATOM     10  O   UNK A   0       8.885  -2.276  21.814  0.00  0.00    -0.270 OA
BRANCH   8  11
ATOM     11  CA  GLU A   1       8.674  -3.865  24.180  0.00  0.00    +0.182 C 
BRANCH  11  12
ATOM     12  C   GLU A   1       9.360  -4.557  25.370  0.00  0.00    +0.325 C 
ATOM     13  OXT GLU A   1       8.974  -4.535  26.527  0.00  0.00    -0.249 OA
BRANCH  12  14
ATOM     14  O   GLU A   1      10.443  -5.284  24.985  0.00  0.00    -0.479 OA
ATOM     15  H   GLU A   1      10.800  -4.964  24.129  0.00  0.00    +0.295 HD
ENDBRANCH  12  14
ENDBRANCH  11  12
BRANCH  11  16
ATOM     16  CB  GLU A   1       7.149  -3.877  24.333  0.00  0.00    +0.045 C 
BRANCH  16  17
ATOM     17  CG  GLU A   1       6.439  -4.532  23.145  0.00  0.00    +0.123 C 
BRANCH  17  18
ATOM     18  CD  GLU A   1       5.922  -3.534  22.146  0.00  0.00    +0.305 C 
ATOM     19  OE2 GLU A   1       5.642  -3.776  20.981  0.00  0.00    -0.251 OA
BRANCH  18  20
ATOM     20  OE1 GLU A   1       5.777  -2.301  22.688  0.00  0.00    -0.481 OA
ATOM     21  HE1 GLU A   1       5.644  -1.601  22.020  0.00  0.00    +0.295 HD
ENDBRANCH  18  20
ENDBRANCH  17  18
ENDBRANCH  16  17
ENDBRANCH  11  16
ENDBRANCH   8  11
ENDBRANCH   4   7
BRANCH   1  22
ATOM     22  C   UNK A   0      10.687   3.810  23.521  0.00  0.00    +0.040 C 
BRANCH  22  23
ATOM     23  C   UNK A   0       9.603   4.617  24.257  0.00  0.00    +0.042 C 
BRANCH  23  34
ATOM     24  N   UNK A   0       3.420   2.954  22.475  0.00  0.00    -0.329 N 
ATOM     25  H   UNK A   0       3.192   2.985  21.490  0.00  0.00    +0.145 HD
ATOM     26  H   UNK A   0       3.162   2.058  22.882  0.00  0.00    +0.145 HD
ATOM     27  C   UNK A   0       4.703   3.273  22.786  0.00  0.00    +0.195 A 
ATOM     28  N   UNK A   0       5.168   4.362  22.095  0.00  0.00    -0.314 N 
ATOM     29  H   UNK A   0       4.507   4.896  21.545  0.00  0.00    +0.170 HD
ATOM     30  C   UNK A   0       6.400   4.787  22.401  0.00  0.00    +0.124 A 
ATOM     31  N   UNK A   0       7.041   5.869  21.897  0.00  0.00    -0.347 N 
ATOM     32  H   UNK A   0       6.686   6.510  21.202  0.00  0.00    +0.167 HD
ATOM     33  C   UNK A   0       8.277   5.943  22.497  0.00  0.00    +0.088 A 
ATOM     34  C   UNK A   0       8.406   4.890  23.398  0.00  0.00    -0.015 A 
ATOM     35  C   UNK A   0       7.187   4.147  23.322  0.00  0.00    +0.086 A 
ATOM     36  C   UNK A   0       6.670   2.951  23.994  0.00  0.00    +0.284 A 
ATOM     37  O   UNK A   0       7.353   2.326  24.798  0.00  0.00    -0.265 OA
ATOM     38  N   UNK A   0       5.364   2.588  23.669  0.00  0.00    -0.177 NA
ENDBRANCH  23  34
ENDBRANCH  22  23
ENDBRANCH   1  22
TORSDOF 11
ENDMDL
MODEL 2
REMARK VINA RESULT:      -7.5      3.416      8.851
REMARK  Name = 
REMARK  11 active torsions:
REMARK  status: ('A' for Active; 'I' for Inactive)
REMARK    1  A    between atoms: C_10  and  C_11
REMARK    2  A    between atoms: C_11  and  C_12
REMARK    3  A    between atoms: C_12  and  C_13
REMARK    4  A    between atoms: C_16  and  C_19
REMARK    5  A    between atoms: N_21  and  CA_22
REMARK    6  A    between atoms: CA_22  and  CB_24
REMARK    7  A    between atoms: CA_22  and  C_29
REMARK    8  A    between atoms: CB_24  and  CG_25
REMARK    9  A    between atoms: CG_25  and  CD_26
REMARK   10  A    between atoms: CD_26  and  OE1_27
REMARK   11  A    between atoms: C_29  and  O_30
REMARK                            x       y       z     vdW  Elec       q    Type
REMARK                         _______ _______ _______ _____ _____    ______ ____
ROOT
ATOM      1  C   UNK A   0       8.687  -0.916  22.475  0.00  0.00    -0.047 A 
ATOM      2  C   UNK A   0       7.519  -0.284  22.933  0.00  0.00    +0.004 A 
ATOM      3  C   UNK A   0       7.411   1.111  22.944  0.00  0.00    +0.013 A 
ATOM      4  C   UNK A   0       8.480   1.898  22.509  0.00  0.00    +0.037 A 
ATOM      5  C   UNK A   0       9.605   1.280  21.954  0.00  0.00    +0.013 A 
ATOM      6  C   UNK A   0       9.702  -0.116  21.931  0.00  0.00    +0.004 A 
ENDROOT
BRANCH   4   7
ATOM      7  C   UNK A   0       8.394   3.378  22.666  0.00  0.00    +0.245 C 
ATOM      8  N   GLU A   1       9.361   3.964  23.458  0.00  0.00    -0.298 N 
ATOM      9  H   GLU A   1      10.079   3.381  23.879  0.00  0.00    +0.150 HD
ATOM     10  O   UNK A   0       7.495   4.016  22.131  0.00  0.00    -0.270 OA
BRANCH   8  11
ATOM     11  CA  GLU A   1       9.499   5.421  23.608  0.00  0.00    +0.182 C 
BRANCH  11  12
ATOM     12  C   GLU A   1       8.697   5.844  24.850  0.00  0.00    +0.325 C 
ATOM     13  OXT GLU A   1       8.942   5.522  26.001  0.00  0.00    -0.249 OA
BRANCH  12  14
ATOM     14  O   GLU A   1       7.689   6.703  24.541  0.00  0.00    -0.479 OA
ATOM     15  H   GLU A   1       7.950   7.633  24.713  0.00  0.00    +0.295 HD
ENDBRANCH  12  14
ENDBRANCH  11  12
BRANCH  11  16
ATOM     16  CB  GLU A   1      10.959   5.878  23.704  0.00  0.00    +0.045 C 
BRANCH  16  17
ATOM     17  CG  GLU A   1      11.954   4.750  23.421  0.00  0.00    +0.123 C 
BRANCH  17  18
ATOM     18  CD  GLU A   1      13.162   5.211  22.653  0.00  0.00    +0.305 C 
ATOM     19  OE2 GLU A   1      13.143   5.738  21.550  0.00  0.00    -0.251 OA
BRANCH  18  20
ATOM     20  OE1 GLU A   1      14.312   4.991  23.335  0.00  0.00    -0.481 OA
ATOM     21  HE1 GLU A   1      15.075   4.808  22.753  0.00  0.00    +0.295 HD
ENDBRANCH  18  20
ENDBRANCH  17  18
ENDBRANCH  16  17
ENDBRANCH  11  16
ENDBRANCH   8  11
ENDBRANCH   4   7
BRANCH   1  22
ATOM     22  C   UNK A   0       8.778  -2.431  22.538  0.00  0.00    +0.040 C 
BRANCH  22  23
ATOM     23  C   UNK A   0       8.669  -3.050  23.942  0.00  0.00    +0.042 C 
BRANCH  23  34
ATOM     24  N   UNK A   0       5.120  -7.185  27.746  0.00  0.00    -0.329 N 
ATOM     25  H   UNK A   0       4.773  -8.034  27.319  0.00  0.00    +0.145 HD
ATOM     26  H   UNK A   0       5.617  -7.387  28.611  0.00  0.00    +0.145 HD
ATOM     27  C   UNK A   0       5.864  -6.388  26.937  0.00  0.00    +0.195 A 
ATOM     28  N   UNK A   0       5.335  -6.256  25.680  0.00  0.00    -0.314 N 
ATOM     29  H   UNK A   0       4.410  -6.628  25.510  0.00  0.00    +0.170 HD
ATOM     30  C   UNK A   0       5.970  -5.424  24.845  0.00  0.00    +0.124 A 
ATOM     31  N   UNK A   0       5.602  -5.092  23.584  0.00  0.00    -0.347 N 
ATOM     32  H   UNK A   0       4.797  -5.436  23.081  0.00  0.00    +0.167 HD
ATOM     33  C   UNK A   0       6.529  -4.199  23.097  0.00  0.00    +0.088 A 
ATOM     34  C   UNK A   0       7.489  -3.966  24.076  0.00  0.00    -0.015 A 
ATOM     35  C   UNK A   0       7.119  -4.768  25.200  0.00  0.00    +0.086 A 
ATOM     36  C   UNK A   0       7.681  -4.985  26.535  0.00  0.00    +0.284 A 
ATOM     37  O   UNK A   0       8.727  -4.446  26.883  0.00  0.00    -0.265 OA
ATOM     38  N   UNK A   0       6.948  -5.823  27.375  0.00  0.00    -0.177 NA
ENDBRANCH  23  34
ENDBRANCH  22  23
ENDBRANCH   1  22
TORSDOF 11
ENDMDL
MODEL 3
REMARK VINA RESULT:      -7.4      1.098      1.589
REMARK  Name = 
REMARK  11 active torsions:
REMARK  status: ('A' for Active; 'I' for Inactive)
REMARK    1  A    between atoms: C_10  and  C_11
REMARK    2  A    between atoms: C_11  and  C_12
REMARK    3  A    between atoms: C_12  and  C_13
REMARK    4  A    between atoms: C_16  and  C_19
REMARK    5  A    between atoms: N_21  and  CA_22
REMARK    6  A    between atoms: CA_22  and  CB_24
REMARK    7  A    between atoms: CA_22  and  C_29
REMARK    8  A    between atoms: CB_24  and  CG_25
REMARK    9  A    between atoms: CG_25  and  CD_26
REMARK   10  A    between atoms: CD_26  and  OE1_27
REMARK   11  A    between atoms: C_29  and  O_30
REMARK                            x       y       z     vdW  Elec       q    Type
REMARK                         _______ _______ _______ _____ _____    ______ ____
ROOT
ATOM      1  C   UNK A   0      10.354   2.339  23.289  0.00  0.00    -0.047 A 
ATOM      2  C   UNK A   0      10.539   1.452  24.362  0.00  0.00    +0.004 A 
ATOM      3  C   UNK A   0      10.266   0.086  24.224  0.00  0.00    +0.013 A 
ATOM      4  C   UNK A   0       9.787  -0.410  23.009  0.00  0.00    +0.037 A 
ATOM      5  C   UNK A   0       9.700   0.445  21.906  0.00  0.00    +0.013 A 
ATOM      6  C   UNK A   0       9.989   1.807  22.046  0.00  0.00    +0.004 A 
ENDROOT
BRANCH   4   7
ATOM      7  C   UNK A   0       9.368  -1.838  22.932  0.00  0.00    +0.245 C 
ATOM      8  N   GLU A   1       9.255  -2.506  24.135  0.00  0.00    -0.298 N 
ATOM      9  H   GLU A   1       9.445  -2.007  25.000  0.00  0.00    +0.150 HD
ATOM     10  O   UNK A   0       9.160  -2.376  21.850  0.00  0.00    -0.270 OA
BRANCH   8  11
ATOM     11  CA  GLU A   1       8.727  -3.874  24.245  0.00  0.00    +0.182 C 
BRANCH  11  12
ATOM     12  C   GLU A   1       9.427  -4.555  25.434  0.00  0.00    +0.325 C 
ATOM     13  OXT GLU A   1       9.154  -4.390  26.612  0.00  0.00    -0.249 OA
BRANCH  12  14
ATOM     14  O   GLU A   1      10.369  -5.448  25.031  0.00  0.00    -0.479 OA
ATOM     15  H   GLU A   1      10.673  -5.256  24.119  0.00  0.00    +0.295 HD
ENDBRANCH  12  14
ENDBRANCH  11  12
BRANCH  11  16
ATOM     16  CB  GLU A   1       7.202  -3.918  24.397  0.00  0.00    +0.045 C 
BRANCH  16  17
ATOM     17  CG  GLU A   1       6.650  -5.345  24.443  0.00  0.00    +0.123 C 
BRANCH  17  18
ATOM     18  CD  GLU A   1       5.858  -5.629  25.689  0.00  0.00    +0.305 C 
ATOM     19  OE2 GLU A   1       4.655  -5.458  25.820  0.00  0.00    -0.251 OA
BRANCH  18  20
ATOM     20  OE1 GLU A   1       6.635  -6.124  26.682  0.00  0.00    -0.481 OA
ATOM     21  HE1 GLU A   1       7.519  -5.709  26.722  0.00  0.00    +0.295 HD
ENDBRANCH  18  20
ENDBRANCH  17  18
ENDBRANCH  16  17
ENDBRANCH  11  16
ENDBRANCH   8  11
ENDBRANCH   4   7
BRANCH   1  22
ATOM     22  C   UNK A   0      10.609   3.821  23.507  0.00  0.00    +0.040 C 
BRANCH  22  23
ATOM     23  C   UNK A   0       9.510   4.585  24.267  0.00  0.00    +0.042 C 
BRANCH  23  34
ATOM     24  N   UNK A   0       3.345   2.943  22.404  0.00  0.00    -0.329 N 
ATOM     25  H   UNK A   0       3.122   3.003  21.419  0.00  0.00    +0.145 HD
ATOM     26  H   UNK A   0       3.091   2.034  22.782  0.00  0.00    +0.145 HD
ATOM     27  C   UNK A   0       4.625   3.260  22.731  0.00  0.00    +0.195 A 
ATOM     28  N   UNK A   0       5.087   4.372  22.075  0.00  0.00    -0.314 N 
ATOM     29  H   UNK A   0       4.426   4.919  21.539  0.00  0.00    +0.170 HD
ATOM     30  C   UNK A   0       6.315   4.794  22.401  0.00  0.00    +0.124 A 
ATOM     31  N   UNK A   0       6.953   5.894  21.934  0.00  0.00    -0.347 N 
ATOM     32  H   UNK A   0       6.598   6.554  21.256  0.00  0.00    +0.167 HD
ATOM     33  C   UNK A   0       8.185   5.956  22.542  0.00  0.00    +0.088 A 
ATOM     34  C   UNK A   0       8.315   4.877  23.410  0.00  0.00    -0.015 A 
ATOM     35  C   UNK A   0       7.101   4.130  23.306  0.00  0.00    +0.086 A 
ATOM     36  C   UNK A   0       6.588   2.912  23.938  0.00  0.00    +0.284 A 
ATOM     37  O   UNK A   0       7.270   2.267  24.727  0.00  0.00    -0.265 OA
ATOM     38  N   UNK A   0       5.285   2.551  23.596  0.00  0.00    -0.177 NA
ENDBRANCH  23  34
ENDBRANCH  22  23
ENDBRANCH   1  22
TORSDOF 11
ENDMDL
MODEL 4
REMARK VINA RESULT:      -7.1      2.931      8.591
REMARK  Name = 
REMARK  11 active torsions:
REMARK  status: ('A' for Active; 'I' for Inactive)
REMARK    1  A    between atoms: C_10  and  C_11
REMARK    2  A    between atoms: C_11  and  C_12
REMARK    3  A    between atoms: C_12  and  C_13
REMARK    4  A    between atoms: C_16  and  C_19
REMARK    5  A    between atoms: N_21  and  CA_22
REMARK    6  A    between atoms: CA_22  and  CB_24
REMARK    7  A    between atoms: CA_22  and  C_29
REMARK    8  A    between atoms: CB_24  and  CG_25
REMARK    9  A    between atoms: CG_25  and  CD_26
REMARK   10  A    between atoms: CD_26  and  OE1_27
REMARK   11  A    between atoms: C_29  and  O_30
REMARK                            x       y       z     vdW  Elec       q    Type
REMARK                         _______ _______ _______ _____ _____    ______ ____
ROOT
ATOM      1  C   UNK A   0       9.562  -1.049  22.986  0.00  0.00    -0.047 A 
ATOM      2  C   UNK A   0       9.579  -0.211  21.858  0.00  0.00    +0.004 A 
ATOM      3  C   UNK A   0       9.849   1.157  21.981  0.00  0.00    +0.013 A 
ATOM      4  C   UNK A   0      10.090   1.711  23.240  0.00  0.00    +0.037 A 
ATOM      5  C   UNK A   0      10.180   0.870  24.354  0.00  0.00    +0.013 A 
ATOM      6  C   UNK A   0       9.924  -0.500  24.223  0.00  0.00    +0.004 A 
ENDROOT
BRANCH   4   7
ATOM      7  C   UNK A   0      10.231   3.190  23.359  0.00  0.00    +0.245 C 
ATOM      8  N   GLU A   1       9.063   3.922  23.278  0.00  0.00    -0.298 N 
ATOM      9  H   GLU A   1       8.179   3.435  23.155  0.00  0.00    +0.150 HD
ATOM     10  O   UNK A   0      11.332   3.708  23.500  0.00  0.00    -0.270 OA
BRANCH   8  11
ATOM     11  CA  GLU A   1       9.010   5.374  23.507  0.00  0.00    +0.182 C 
BRANCH  11  12
ATOM     12  C   GLU A   1       7.892   5.950  22.621  0.00  0.00    +0.325 C 
ATOM     13  OXT GLU A   1       7.501   7.106  22.630  0.00  0.00    -0.249 OA
BRANCH  12  14
ATOM     14  O   GLU A   1       7.410   5.032  21.743  0.00  0.00    -0.479 OA
ATOM     15  H   GLU A   1       7.149   5.452  20.896  0.00  0.00    +0.295 HD
ENDBRANCH  12  14
ENDBRANCH  11  12
BRANCH  11  16
ATOM     16  CB  GLU A   1       8.798   5.740  24.981  0.00  0.00    +0.045 C 
BRANCH  16  17
ATOM     17  CG  GLU A   1       7.429   5.304  25.510  0.00  0.00    +0.123 C 
BRANCH  17  18
ATOM     18  CD  GLU A   1       7.516   4.187  26.513  0.00  0.00    +0.305 C 
ATOM     19  OE2 GLU A   1       7.352   4.302  27.719  0.00  0.00    -0.251 OA
BRANCH  18  20
ATOM     20  OE1 GLU A   1       7.787   2.996  25.925  0.00  0.00    -0.481 OA
ATOM     21  HE1 GLU A   1       7.712   3.024  24.951  0.00  0.00    +0.295 HD
ENDBRANCH  18  20
ENDBRANCH  17  18
ENDBRANCH  16  17
ENDBRANCH  11  16
ENDBRANCH   8  11
ENDBRANCH   4   7
BRANCH   1  22
ATOM     22  C   UNK A   0       9.206  -2.515  22.808  0.00  0.00    +0.040 C 
BRANCH  22  23
ATOM     23  C   UNK A   0       9.077  -3.335  24.103  0.00  0.00    +0.042 C 
BRANCH  23  34
ATOM     24  N   UNK A   0       4.912  -7.143  27.614  0.00  0.00    -0.329 N 
ATOM     25  H   UNK A   0       4.540  -7.968  27.163  0.00  0.00    +0.145 HD
ATOM     26  H   UNK A   0       5.317  -7.372  28.518  0.00  0.00    +0.145 HD
ATOM     27  C   UNK A   0       5.782  -6.414  26.866  0.00  0.00    +0.195 A 
ATOM     28  N   UNK A   0       5.372  -6.258  25.568  0.00  0.00    -0.314 N 
ATOM     29  H   UNK A   0       4.439  -6.560  25.322  0.00  0.00    +0.170 HD
ATOM     30  C   UNK A   0       6.138  -5.486  24.786  0.00  0.00    +0.124 A 
ATOM     31  N   UNK A   0       5.905  -5.142  23.496  0.00  0.00    -0.347 N 
ATOM     32  H   UNK A   0       5.121  -5.430  22.928  0.00  0.00    +0.167 HD
ATOM     33  C   UNK A   0       6.934  -4.328  23.085  0.00  0.00    +0.088 A 
ATOM     34  C   UNK A   0       7.824  -4.156  24.142  0.00  0.00    -0.015 A 
ATOM     35  C   UNK A   0       7.300  -4.915  25.234  0.00  0.00    +0.086 A 
ATOM     36  C   UNK A   0       7.728  -5.157  26.614  0.00  0.00    +0.284 A 
ATOM     37  O   UNK A   0       8.779  -4.696  27.046  0.00  0.00    -0.265 OA
ATOM     38  N   UNK A   0       6.865  -5.927  27.393  0.00  0.00    -0.177 NA
ENDBRANCH  23  34
ENDBRANCH  22  23
ENDBRANCH   1  22
TORSDOF 11
ENDMDL
MODEL 5
REMARK VINA RESULT:      -7.0      2.784      3.982
REMARK  Name = 
REMARK  11 active torsions:
REMARK  status: ('A' for Active; 'I' for Inactive)
REMARK    1  A    between atoms: C_10  and  C_11
REMARK    2  A    between atoms: C_11  and  C_12
REMARK    3  A    between atoms: C_12  and  C_13
REMARK    4  A    between atoms: C_16  and  C_19
REMARK    5  A    between atoms: N_21  and  CA_22
REMARK    6  A    between atoms: CA_22  and  CB_24
REMARK    7  A    between atoms: CA_22  and  C_29
REMARK    8  A    between atoms: CB_24  and  CG_25
REMARK    9  A    between atoms: CG_25  and  CD_26
REMARK   10  A    between atoms: CD_26  and  OE1_27
REMARK   11  A    between atoms: C_29  and  O_30
REMARK                            x       y       z     vdW  Elec       q    Type
REMARK                         _______ _______ _______ _____ _____    ______ ____
ROOT
ATOM      1  C   UNK A   0       7.431   1.858  24.882  0.00  0.00    -0.047 A 
ATOM      2  C   UNK A   0       6.894   1.400  23.667  0.00  0.00    +0.004 A 
ATOM      3  C   UNK A   0       7.074   0.075  23.254  0.00  0.00    +0.013 A 
ATOM      4  C   UNK A   0       7.810  -0.810  24.045  0.00  0.00    +0.037 A 
ATOM      5  C   UNK A   0       8.258  -0.394  25.303  0.00  0.00    +0.013 A 
ATOM      6  C   UNK A   0       8.063   0.928  25.718  0.00  0.00    +0.004 A 
ENDROOT
BRANCH   4   7
ATOM      7  C   UNK A   0       8.108  -2.171  23.515  0.00  0.00    +0.245 C 
ATOM      8  N   GLU A   1       8.094  -3.200  24.435  0.00  0.00    -0.298 N 
ATOM      9  H   GLU A   1       7.876  -2.995  25.406  0.00  0.00    +0.150 HD
ATOM     10  O   UNK A   0       8.368  -2.341  22.329  0.00  0.00    -0.270 OA
BRANCH   8  11
ATOM     11  CA  GLU A   1       8.236  -4.614  24.057  0.00  0.00    +0.182 C 
BRANCH  11  12
ATOM     12  C   GLU A   1       8.905  -5.351  25.230  0.00  0.00    +0.325 C 
ATOM     13  OXT GLU A   1       8.345  -5.733  26.244  0.00  0.00    -0.249 OA
BRANCH  12  14
ATOM     14  O   GLU A   1      10.217  -5.610  24.990  0.00  0.00    -0.479 OA
ATOM     15  H   GLU A   1      10.395  -6.574  24.993  0.00  0.00    +0.295 HD
ENDBRANCH  12  14
ENDBRANCH  11  12
BRANCH  11  16
ATOM     16  CB  GLU A   1       6.903  -5.269  23.675  0.00  0.00    +0.045 C 
BRANCH  16  17
ATOM     17  CG  GLU A   1       6.909  -5.842  22.255  0.00  0.00    +0.123 C 
BRANCH  17  18
ATOM     18  CD  GLU A   1       6.075  -5.039  21.295  0.00  0.00    +0.305 C 
ATOM     19  OE2 GLU A   1       5.521  -3.980  21.549  0.00  0.00    -0.251 OA
BRANCH  18  20
ATOM     20  OE1 GLU A   1       6.010  -5.619  20.072  0.00  0.00    -0.481 OA
ATOM     21  HE1 GLU A   1       6.797  -5.440  19.520  0.00  0.00    +0.295 HD
ENDBRANCH  18  20
ENDBRANCH  17  18
ENDBRANCH  16  17
ENDBRANCH  11  16
ENDBRANCH   8  11
ENDBRANCH   4   7
BRANCH   1  22
ATOM     22  C   UNK A   0       7.258   3.319  25.258  0.00  0.00    +0.040 C 
BRANCH  22  23
ATOM     23  C   UNK A   0       7.387   4.328  24.104  0.00  0.00    +0.042 C 
BRANCH  23  34
ATOM     24  N   UNK A   0      13.898   5.299  23.185  0.00  0.00    -0.329 N 
ATOM     25  H   UNK A   0      14.415   5.743  23.932  0.00  0.00    +0.145 HD
ATOM     26  H   UNK A   0      14.348   4.435  22.893  0.00  0.00    +0.145 HD
ATOM     27  C   UNK A   0      12.577   5.095  23.433  0.00  0.00    +0.195 A 
ATOM     28  N   UNK A   0      11.971   6.171  24.028  0.00  0.00    -0.314 N 
ATOM     29  H   UNK A   0      12.494   7.033  24.101  0.00  0.00    +0.170 HD
ATOM     30  C   UNK A   0      10.652   6.077  24.235  0.00  0.00    +0.124 A 
ATOM     31  N   UNK A   0       9.835   7.028  24.749  0.00  0.00    -0.347 N 
ATOM     32  H   UNK A   0      10.106   7.948  25.066  0.00  0.00    +0.167 HD
ATOM     33  C   UNK A   0       8.558   6.519  24.771  0.00  0.00    +0.088 A 
ATOM     34  C   UNK A   0       8.578   5.226  24.255  0.00  0.00    -0.015 A 
ATOM     35  C   UNK A   0       9.939   4.952  23.917  0.00  0.00    +0.086 A 
ATOM     36  C   UNK A   0      10.640   3.804  23.336  0.00  0.00    +0.284 A 
ATOM     37  O   UNK A   0      10.048   2.763  23.069  0.00  0.00    -0.265 OA
ATOM     38  N   UNK A   0      12.003   3.979  23.099  0.00  0.00    -0.177 NA
ENDBRANCH  23  34
ENDBRANCH  22  23
ENDBRANCH   1  22
TORSDOF 11
ENDMDL
MODEL 6
REMARK VINA RESULT:      -6.9      1.983      2.966
REMARK  Name = 
REMARK  11 active torsions:
REMARK  status: ('A' for Active; 'I' for Inactive)
REMARK    1  A    between atoms: C_10  and  C_11
REMARK    2  A    between atoms: C_11  and  C_12
REMARK    3  A    between atoms: C_12  and  C_13
REMARK    4  A    between atoms: C_16  and  C_19
REMARK    5  A    between atoms: N_21  and  CA_22
REMARK    6  A    between atoms: CA_22  and  CB_24
REMARK    7  A    between atoms: CA_22  and  C_29
REMARK    8  A    between atoms: CB_24  and  CG_25
REMARK    9  A    between atoms: CG_25  and  CD_26
REMARK   10  A    between atoms: CD_26  and  OE1_27
REMARK   11  A    between atoms: C_29  and  O_30
REMARK                            x       y       z     vdW  Elec       q    Type
REMARK                         _______ _______ _______ _____ _____    ______ ____
ROOT
ATOM      1  C   UNK A   0      10.037   0.019  24.473  0.00  0.00    -0.047 A 
ATOM      2  C   UNK A   0       9.257  -0.369  25.574  0.00  0.00    +0.004 A 
ATOM      3  C   UNK A   0       8.747  -1.669  25.674  0.00  0.00    +0.013 A 
ATOM      4  C   UNK A   0       8.997  -2.597  24.661  0.00  0.00    +0.037 A 
ATOM      5  C   UNK A   0       9.857  -2.253  23.613  0.00  0.00    +0.013 A 
ATOM      6  C   UNK A   0      10.377  -0.957  23.526  0.00  0.00    +0.004 A 
ENDROOT
BRANCH   4   7
ATOM      7  C   UNK A   0       8.323  -3.925  24.721  0.00  0.00    +0.245 C 
ATOM      8  N   GLU A   1       7.193  -4.000  25.511  0.00  0.00    -0.298 N 
ATOM      9  H   GLU A   1       6.870  -3.167  25.995  0.00  0.00    +0.150 HD
ATOM     10  O   UNK A   0       8.775  -4.888  24.113  0.00  0.00    -0.270 OA
BRANCH   8  11
ATOM     11  CA  GLU A   1       6.338  -5.195  25.575  0.00  0.00    +0.182 C 
BRANCH  11  12
ATOM     12  C   GLU A   1       6.475  -5.798  26.983  0.00  0.00    +0.325 C 
ATOM     13  OXT GLU A   1       7.221  -5.397  27.861  0.00  0.00    -0.249 OA
BRANCH  12  14
ATOM     14  O   GLU A   1       5.601  -6.818  27.191  0.00  0.00    -0.479 OA
ATOM     15  H   GLU A   1       6.013  -7.685  26.994  0.00  0.00    +0.295 HD
ENDBRANCH  12  14
ENDBRANCH  11  12
BRANCH  11  16
ATOM     16  CB  GLU A   1       4.873  -4.902  25.233  0.00  0.00    +0.045 C 
BRANCH  16  17
ATOM     17  CG  GLU A   1       4.716  -3.794  24.189  0.00  0.00    +0.123 C 
BRANCH  17  18
ATOM     18  CD  GLU A   1       4.829  -4.298  22.777  0.00  0.00    +0.305 C 
ATOM     19  OE2 GLU A   1       4.554  -5.428  22.402  0.00  0.00    -0.251 OA
BRANCH  18  20
ATOM     20  OE1 GLU A   1       5.267  -3.336  21.928  0.00  0.00    -0.481 OA
ATOM     21  HE1 GLU A   1       6.229  -3.381  21.760  0.00  0.00    +0.295 HD
ENDBRANCH  18  20
ENDBRANCH  17  18
ENDBRANCH  16  17
ENDBRANCH  11  16
ENDBRANCH   8  11
ENDBRANCH   4   7
BRANCH   1  22
ATOM     22  C   UNK A   0      10.518   1.457  24.382  0.00  0.00    +0.040 C 
BRANCH  22  23
ATOM     23  C   UNK A   0      10.469   2.093  22.982  0.00  0.00    +0.042 C 
BRANCH  23  34
ATOM     24  N   UNK A   0       5.254   6.212  22.925  0.00  0.00    -0.329 N 
ATOM     25  H   UNK A   0       4.334   5.804  23.025  0.00  0.00    +0.145 HD
ATOM     26  H   UNK A   0       5.392   6.969  23.589  0.00  0.00    +0.145 HD
ATOM     27  C   UNK A   0       6.289   5.333  22.973  0.00  0.00    +0.195 A 
ATOM     28  N   UNK A   0       6.055   4.190  22.253  0.00  0.00    -0.314 N 
ATOM     29  H   UNK A   0       5.235   4.157  21.662  0.00  0.00    +0.170 HD
ATOM     30  C   UNK A   0       7.059   3.307  22.188  0.00  0.00    +0.124 A 
ATOM     31  N   UNK A   0       7.082   2.143  21.493  0.00  0.00    -0.347 N 
ATOM     32  H   UNK A   0       6.334   1.764  20.929  0.00  0.00    +0.167 HD
ATOM     33  C   UNK A   0       8.309   1.557  21.693  0.00  0.00    +0.088 A 
ATOM     34  C   UNK A   0       9.070   2.374  22.525  0.00  0.00    -0.015 A 
ATOM     35  C   UNK A   0       8.247   3.499  22.842  0.00  0.00    +0.086 A 
ATOM     36  C   UNK A   0       8.430   4.709  23.647  0.00  0.00    +0.284 A 
ATOM     37  O   UNK A   0       9.463   4.905  24.278  0.00  0.00    -0.265 OA
ATOM     38  N   UNK A   0       7.369   5.614  23.636  0.00  0.00    -0.177 NA
ENDBRANCH  23  34
ENDBRANCH  22  23
ENDBRANCH   1  22
TORSDOF 11
ENDMDL
MODEL 7
REMARK VINA RESULT:      -6.9      2.316      3.394
REMARK  Name = 
REMARK  11 active torsions:
REMARK  status: ('A' for Active; 'I' for Inactive)
REMARK    1  A    between atoms: C_10  and  C_11
REMARK    2  A    between atoms: C_11  and  C_12
REMARK    3  A    between atoms: C_12  and  C_13
REMARK    4  A    between atoms: C_16  and  C_19
REMARK    5  A    between atoms: N_21  and  CA_22
REMARK    6  A    between atoms: CA_22  and  CB_24
REMARK    7  A    between atoms: CA_22  and  C_29
REMARK    8  A    between atoms: CB_24  and  CG_25
REMARK    9  A    between atoms: CG_25  and  CD_26
REMARK   10  A    between atoms: CD_26  and  OE1_27
REMARK   11  A    between atoms: C_29  and  O_30
REMARK                            x       y       z     vdW  Elec       q    Type
REMARK                         _______ _______ _______ _____ _____    ______ ____
ROOT
ATOM      1  C   UNK A   0       9.362  -0.647  22.278  0.00  0.00    -0.047 A 
ATOM      2  C   UNK A   0      10.337  -1.362  22.993  0.00  0.00    +0.004 A 
ATOM      3  C   UNK A   0      10.020  -2.561  23.642  0.00  0.00    +0.013 A 
ATOM      4  C   UNK A   0       8.714  -3.055  23.598  0.00  0.00    +0.037 A 
ATOM      5  C   UNK A   0       7.763  -2.407  22.804  0.00  0.00    +0.013 A 
ATOM      6  C   UNK A   0       8.089  -1.216  22.145  0.00  0.00    +0.004 A 
ENDROOT
BRANCH   4   7
ATOM      7  C   UNK A   0       8.371  -4.253  24.415  0.00  0.00    +0.245 C 
ATOM      8  N   GLU A   1       7.132  -4.242  25.023  0.00  0.00    -0.298 N 
ATOM      9  H   GLU A   1       6.517  -3.445  24.883  0.00  0.00    +0.150 HD
ATOM     10  O   UNK A   0       9.167  -5.176  24.544  0.00  0.00    -0.270 OA
BRANCH   8  11
ATOM     11  CA  GLU A   1       6.586  -5.397  25.752  0.00  0.00    +0.182 C 
BRANCH  11  12
ATOM     12  C   GLU A   1       6.996  -5.259  27.228  0.00  0.00    +0.325 C 
ATOM     13  OXT GLU A   1       6.339  -4.718  28.102  0.00  0.00    -0.249 OA
BRANCH  12  14
ATOM     14  O   GLU A   1       8.173  -5.884  27.494  0.00  0.00    -0.479 OA
ATOM     15  H   GLU A   1       8.703  -6.006  26.677  0.00  0.00    +0.295 HD
ENDBRANCH  12  14
ENDBRANCH  11  12
BRANCH  11  16
ATOM     16  CB  GLU A   1       5.066  -5.535  25.605  0.00  0.00    +0.045 C 
BRANCH  16  17
ATOM     17  CG  GLU A   1       4.557  -5.069  24.239  0.00  0.00    +0.123 C 
BRANCH  17  18
ATOM     18  CD  GLU A   1       3.825  -6.146  23.487  0.00  0.00    +0.305 C 
ATOM     19  OE2 GLU A   1       2.906  -5.964  22.702  0.00  0.00    -0.251 OA
BRANCH  18  20
ATOM     20  OE1 GLU A   1       4.314  -7.380  23.762  0.00  0.00    -0.481 OA
ATOM     21  HE1 GLU A   1       3.666  -7.957  24.212  0.00  0.00    +0.295 HD
ENDBRANCH  18  20
ENDBRANCH  17  18
ENDBRANCH  16  17
ENDBRANCH  11  16
ENDBRANCH   8  11
ENDBRANCH   4   7
BRANCH   1  22
ATOM     22  C   UNK A   0       9.742   0.679  21.640  0.00  0.00    +0.040 C 
BRANCH  22  23
ATOM     23  C   UNK A   0       9.966   1.850  22.612  0.00  0.00    +0.042 C 
BRANCH  23  34
ATOM     24  N   UNK A   0       3.740   2.898  24.689  0.00  0.00    -0.329 N 
ATOM     25  H   UNK A   0       3.615   3.370  25.575  0.00  0.00    +0.145 HD
ATOM     26  H   UNK A   0       3.192   3.343  23.957  0.00  0.00    +0.145 HD
ATOM     27  C   UNK A   0       5.029   2.734  24.294  0.00  0.00    +0.195 A 
ATOM     28  N   UNK A   0       5.855   2.333  25.311  0.00  0.00    -0.314 N 
ATOM     29  H   UNK A   0       5.434   2.069  26.192  0.00  0.00    +0.170 HD
ATOM     30  C   UNK A   0       7.128   2.075  24.985  0.00  0.00    +0.124 A 
ATOM     31  N   UNK A   0       8.105   1.613  25.802  0.00  0.00    -0.347 N 
ATOM     32  H   UNK A   0       8.018   1.407  26.787  0.00  0.00    +0.167 HD
ATOM     33  C   UNK A   0       9.251   1.477  25.054  0.00  0.00    +0.088 A 
ATOM     34  C   UNK A   0       8.981   1.857  23.742  0.00  0.00    -0.015 A 
ATOM     35  C   UNK A   0       7.607   2.246  23.713  0.00  0.00    +0.086 A 
ATOM     36  C   UNK A   0       6.700   2.733  22.669  0.00  0.00    +0.284 A 
ATOM     37  O   UNK A   0       7.094   2.935  21.526  0.00  0.00    -0.265 OA
ATOM     38  N   UNK A   0       5.377   2.936  23.059  0.00  0.00    -0.177 NA
ENDBRANCH  23  34
ENDBRANCH  22  23
ENDBRANCH   1  22
TORSDOF 11
ENDMDL
MODEL 8
REMARK VINA RESULT:      -6.8      2.926      3.921
REMARK  Name = 
REMARK  11 active torsions:
REMARK  status: ('A' for Active; 'I' for Inactive)
REMARK    1  A    between atoms: C_10  and  C_11
REMARK    2  A    between atoms: C_11  and  C_12
REMARK    3  A    between atoms: C_12  and  C_13
REMARK    4  A    between atoms: C_16  and  C_19
REMARK    5  A    between atoms: N_21  and  CA_22
REMARK    6  A    between atoms: CA_22  and  CB_24
REMARK    7  A    between atoms: CA_22  and  C_29
REMARK    8  A    between atoms: CB_24  and  CG_25
REMARK    9  A    between atoms: CG_25  and  CD_26
REMARK   10  A    between atoms: CD_26  and  OE1_27
REMARK   11  A    between atoms: C_29  and  O_30
REMARK                            x       y       z     vdW  Elec       q    Type
REMARK                         _______ _______ _______ _____ _____    ______ ____
ROOT
ATOM      1  C   UNK A   0       9.296  -0.708  24.729  0.00  0.00    -0.047 A 
ATOM      2  C   UNK A   0       9.840  -1.802  24.036  0.00  0.00    +0.004 A 
ATOM      3  C   UNK A   0       9.045  -2.897  23.678  0.00  0.00    +0.013 A 
ATOM      4  C   UNK A   0       7.692  -2.920  24.023  0.00  0.00    +0.037 A 
ATOM      5  C   UNK A   0       7.117  -1.793  24.620  0.00  0.00    +0.013 A 
ATOM      6  C   UNK A   0       7.914  -0.695  24.962  0.00  0.00    +0.004 A 
ENDROOT
BRANCH   4   7
ATOM      7  C   UNK A   0       6.904  -4.157  23.758  0.00  0.00    +0.245 C 
ATOM      8  N   GLU A   1       6.080  -4.585  24.779  0.00  0.00    -0.298 N 
ATOM      9  H   GLU A   1       6.036  -4.048  25.641  0.00  0.00    +0.150 HD
ATOM     10  O   UNK A   0       7.012  -4.757  22.695  0.00  0.00    -0.270 OA
BRANCH   8  11
ATOM     11  CA  GLU A   1       5.140  -5.707  24.634  0.00  0.00    +0.182 C 
BRANCH  11  12
ATOM     12  C   GLU A   1       5.097  -6.463  25.972  0.00  0.00    +0.325 C 
ATOM     13  OXT GLU A   1       4.183  -7.171  26.362  0.00  0.00    -0.249 OA
BRANCH  12  14
ATOM     14  O   GLU A   1       6.250  -6.320  26.678  0.00  0.00    -0.479 OA
ATOM     15  H   GLU A   1       6.973  -6.855  26.289  0.00  0.00    +0.295 HD
ENDBRANCH  12  14
ENDBRANCH  11  12
BRANCH  11  16
ATOM     16  CB  GLU A   1       3.738  -5.261  24.200  0.00  0.00    +0.045 C 
BRANCH  16  17
ATOM     17  CG  GLU A   1       3.162  -6.126  23.076  0.00  0.00    +0.123 C 
BRANCH  17  18
ATOM     18  CD  GLU A   1       2.188  -7.160  23.570  0.00  0.00    +0.305 C 
ATOM     19  OE2 GLU A   1       0.979  -7.008  23.663  0.00  0.00    -0.251 OA
BRANCH  18  20
ATOM     20  OE1 GLU A   1       2.804  -8.321  23.899  0.00  0.00    -0.481 OA
ATOM     21  HE1 GLU A   1       3.551  -8.540  23.309  0.00  0.00    +0.295 HD
ENDBRANCH  18  20
ENDBRANCH  17  18
ENDBRANCH  16  17
ENDBRANCH  11  16
ENDBRANCH   8  11
ENDBRANCH   4   7
BRANCH   1  22
ATOM     22  C   UNK A   0      10.212   0.429  25.147  0.00  0.00    +0.040 C 
BRANCH  22  23
ATOM     23  C   UNK A   0      10.749   1.311  24.006  0.00  0.00    +0.042 C 
BRANCH  23  34
ATOM     24  N   UNK A   0       5.379   4.849  22.328  0.00  0.00    -0.329 N 
ATOM     25  H   UNK A   0       4.638   4.370  21.835  0.00  0.00    +0.145 HD
ATOM     26  H   UNK A   0       5.016   5.349  23.136  0.00  0.00    +0.145 HD
ATOM     27  C   UNK A   0       6.441   4.077  22.676  0.00  0.00    +0.195 A 
ATOM     28  N   UNK A   0       6.836   3.226  21.676  0.00  0.00    -0.314 N 
ATOM     29  H   UNK A   0       6.417   3.337  20.762  0.00  0.00    +0.170 HD
ATOM     30  C   UNK A   0       7.925   2.485  21.913  0.00  0.00    +0.124 A 
ATOM     31  N   UNK A   0       8.532   1.625  21.060  0.00  0.00    -0.347 N 
ATOM     32  H   UNK A   0       8.240   1.406  20.118  0.00  0.00    +0.167 HD
ATOM     33  C   UNK A   0       9.622   1.090  21.705  0.00  0.00    +0.088 A 
ATOM     34  C   UNK A   0       9.700   1.632  22.985  0.00  0.00    -0.015 A 
ATOM     35  C   UNK A   0       8.594   2.528  23.108  0.00  0.00    +0.086 A 
ATOM     36  C   UNK A   0       8.101   3.410  24.169  0.00  0.00    +0.284 A 
ATOM     37  O   UNK A   0       8.647   3.454  25.267  0.00  0.00    -0.265 OA
ATOM     38  N   UNK A   0       6.993   4.193  23.845  0.00  0.00    -0.177 NA
ENDBRANCH  23  34
ENDBRANCH  22  23
ENDBRANCH   1  22
TORSDOF 11
ENDMDL
MODEL 9
REMARK VINA RESULT:      -6.8      3.642      8.749
REMARK  Name = 
REMARK  11 active torsions:
REMARK  status: ('A' for Active; 'I' for Inactive)
REMARK    1  A    between atoms: C_10  and  C_11
REMARK    2  A    between atoms: C_11  and  C_12
REMARK    3  A    between atoms: C_12  and  C_13
REMARK    4  A    between atoms: C_16  and  C_19
REMARK    5  A    between atoms: N_21  and  CA_22
REMARK    6  A    between atoms: CA_22  and  CB_24
REMARK    7  A    between atoms: CA_22  and  C_29
REMARK    8  A    between atoms: CB_24  and  CG_25
REMARK    9  A    between atoms: CG_25  and  CD_26
REMARK   10  A    between atoms: CD_26  and  OE1_27
REMARK   11  A    between atoms: C_29  and  O_30
REMARK                            x       y       z     vdW  Elec       q    Type
REMARK                         _______ _______ _______ _____ _____    ______ ____
ROOT
ATOM      1  C   UNK A   0       6.939  -2.744  23.521  0.00  0.00    -0.047 A 
ATOM      2  C   UNK A   0       8.245  -2.918  24.009  0.00  0.00    +0.004 A 
ATOM      3  C   UNK A   0       9.035  -1.818  24.363  0.00  0.00    +0.013 A 
ATOM      4  C   UNK A   0       8.533  -0.522  24.219  0.00  0.00    +0.037 A 
ATOM      5  C   UNK A   0       7.201  -0.342  23.834  0.00  0.00    +0.013 A 
ATOM      6  C   UNK A   0       6.410  -1.446  23.496  0.00  0.00    +0.004 A 
ENDROOT
BRANCH   4   7
ATOM      7  C   UNK A   0       9.443   0.632  24.466  0.00  0.00    +0.245 C 
ATOM      8  N   GLU A   1       9.090   1.824  23.867  0.00  0.00    -0.298 N 
ATOM      9  H   GLU A   1       8.243   1.868  23.308  0.00  0.00    +0.150 HD
ATOM     10  O   UNK A   0      10.453   0.503  25.148  0.00  0.00    -0.270 OA
BRANCH   8  11
ATOM     11  CA  GLU A   1       9.803   3.087  24.115  0.00  0.00    +0.182 C 
BRANCH  11  12
ATOM     12  C   GLU A   1      10.840   3.272  22.994  0.00  0.00    +0.325 C 
ATOM     13  OXT GLU A   1      11.893   3.880  23.091  0.00  0.00    -0.249 OA
BRANCH  12  14
ATOM     14  O   GLU A   1      10.492   2.608  21.860  0.00  0.00    -0.479 OA
ATOM     15  H   GLU A   1      11.281   2.377  21.327  0.00  0.00    +0.295 HD
ENDBRANCH  12  14
ENDBRANCH  11  12
BRANCH  11  16
ATOM     16  CB  GLU A   1       8.864   4.296  24.212  0.00  0.00    +0.045 C 
BRANCH  16  17
ATOM     17  CG  GLU A   1       7.426   3.964  23.808  0.00  0.00    +0.123 C 
BRANCH  17  18
ATOM     18  CD  GLU A   1       7.219   3.963  22.318  0.00  0.00    +0.305 C 
ATOM     19  OE2 GLU A   1       7.372   2.999  21.581  0.00  0.00    -0.251 OA
BRANCH  18  20
ATOM     20  OE1 GLU A   1       6.818   5.173  21.860  0.00  0.00    -0.481 OA
ATOM     21  HE1 GLU A   1       6.612   5.173  20.905  0.00  0.00    +0.295 HD
ENDBRANCH  18  20
ENDBRANCH  17  18
ENDBRANCH  16  17
ENDBRANCH  11  16
ENDBRANCH   8  11
ENDBRANCH   4   7
BRANCH   1  22
ATOM     22  C   UNK A   0       6.143  -3.965  23.095  0.00  0.00    +0.040 C 
BRANCH  22  23
ATOM     23  C   UNK A   0       6.694  -5.322  23.567  0.00  0.00    +0.042 C 
BRANCH  23  34
ATOM     24  N   UNK A   0       5.496  -6.767  29.943  0.00  0.00    -0.329 N 
ATOM     25  H   UNK A   0       5.159  -7.696  30.157  0.00  0.00    +0.145 HD
ATOM     26  H   UNK A   0       6.300  -6.528  30.518  0.00  0.00    +0.145 HD
ATOM     27  C   UNK A   0       5.755  -6.530  28.630  0.00  0.00    +0.195 A 
ATOM     28  N   UNK A   0       4.788  -7.027  27.795  0.00  0.00    -0.314 N 
ATOM     29  H   UNK A   0       3.938  -7.385  28.209  0.00  0.00    +0.170 HD
ATOM     30  C   UNK A   0       4.932  -6.767  26.490  0.00  0.00    +0.124 A 
ATOM     31  N   UNK A   0       4.080  -7.101  25.490  0.00  0.00    -0.347 N 
ATOM     32  H   UNK A   0       3.213  -7.611  25.583  0.00  0.00    +0.167 HD
ATOM     33  C   UNK A   0       4.607  -6.628  24.311  0.00  0.00    +0.088 A 
ATOM     34  C   UNK A   0       5.809  -5.980  24.582  0.00  0.00    -0.015 A 
ATOM     35  C   UNK A   0       6.009  -6.082  25.993  0.00  0.00    +0.086 A 
ATOM     36  C   UNK A   0       7.048  -5.620  26.918  0.00  0.00    +0.284 A 
ATOM     37  O   UNK A   0       8.047  -5.035  26.515  0.00  0.00    -0.265 OA
ATOM     38  N   UNK A   0       6.818  -5.877  28.269  0.00  0.00    -0.177 NA
ENDBRANCH  23  34
ENDBRANCH  22  23
ENDBRANCH   1  22
TORSDOF 11
ENDMDL
