MODEL 1
REMARK VINA RESULT:      -6.7      0.000      0.000
REMARK  Name = 
REMARK  16 active torsions:
REMARK  status: ('A' for Active; 'I' for Inactive)
REMARK    1  A    between atoms: C_2  and  N_3
REMARK    2  A    between atoms: C_2  and  C_4
REMARK    3  A    between atoms: C_2  and  C_11
REMARK    4  A    between atoms: C_4  and  C_5
REMARK    5  A    between atoms: N_13  and  C_14
REMARK    6  A    between atoms: C_14  and  C_15
REMARK    7  A    between atoms: C_15  and  O_16
REMARK    8  A    between atoms: O_16  and  C_17
REMARK    9  A    between atoms: C_17  and  C_18
REMARK   10  A    between atoms: C_18  and  O_19
REMARK   11  A    between atoms: O_19  and  C_20
REMARK   12  A    between atoms: C_20  and  C_21
REMARK   13  A    between atoms: C_21  and  N_22
REMARK   14  A    between atoms: C_23  and  C_25
REMARK   15  A    between atoms: C_28  and  S_31
REMARK   16  A    between atoms: S_31  and  N_32
REMARK                            x       y       z     vdW  Elec       q    Type
REMARK                         _______ _______ _______ _____ _____    ______ ____
ROOT
ATOM      1  C   UNL     1       6.301  -6.393  29.107  0.00  0.00    +0.188 C 
ENDROOT
BRANCH   1   2
ATOM      2  O   UNL     1       7.176  -6.049  28.026  0.00  0.00    -0.376 OA
BRANCH   2   3
ATOM      3  C   UNL     1       6.661  -5.045  27.151  0.00  0.00    +0.178 C 
BRANCH   3   4
ATOM      4  C   UNL     1       7.422  -5.004  25.828  0.00  0.00    +0.132 C 
BRANCH   4   5
ATOM      5  N   UNL     1       7.920  -3.693  25.514  0.00  0.00    -0.309 N 
ATOM      6  H   UNL     1       7.272  -2.922  25.593  0.00  0.00    +0.149 HD
ATOM      7  C   UNL     1       9.135  -3.517  24.883  0.00  0.00    +0.244 C 
ATOM      8  O   UNL     1       9.897  -4.431  24.582  0.00  0.00    -0.270 OA
BRANCH   7   9
ATOM      9  C   UNL     1       9.424  -2.111  24.520  0.00  0.00    +0.037 A 
ATOM     10  C   UNL     1      10.049  -1.834  23.302  0.00  0.00    +0.015 A 
ATOM     11  C   UNL     1      10.188  -0.502  22.890  0.00  0.00    +0.029 A 
ATOM     12  C   UNL     1       9.711   0.527  23.713  0.00  0.00    +0.105 A 
ATOM     13  C   UNL     1       9.127   0.247  24.952  0.00  0.00    +0.029 A 
ATOM     14  C   UNL     1       8.999  -1.072  25.361  0.00  0.00    +0.015 A 
BRANCH  12  15
ATOM     15  S   UNL     1       9.754   2.206  23.162  0.00  0.00    +0.056 S 
ATOM     16  O   UNL     1      11.013   2.792  23.559  0.00  0.00    -0.153 OA
ATOM     17  O   UNL     1       8.483   2.832  23.440  0.00  0.00    -0.153 OA
BRANCH  15  18
ATOM     18  N   UNL     1       9.832   2.014  21.500  0.00  0.00    -0.204 NA
ATOM     19  H   UNL     1       9.120   1.350  21.196  0.00  0.00    +0.144 HD
ATOM     20  H   UNL     1      10.782   1.761  21.228  0.00  0.00    +0.144 HD
ENDBRANCH  15  18
ENDBRANCH  12  15
ENDBRANCH   7   9
ENDBRANCH   4   5
ENDBRANCH   3   4
ENDBRANCH   2   3
ENDBRANCH   1   2
BRANCH   1  21
ATOM     21  C   UNL     1       5.305  -5.279  29.454  0.00  0.00    +0.188 C 
BRANCH  21  22
ATOM     22  O   UNL     1       4.021  -5.773  29.859  0.00  0.00    -0.376 OA
BRANCH  22  23
ATOM     23  C   UNL     1       3.666  -7.034  29.288  0.00  0.00    +0.178 C 
BRANCH  23  24
ATOM     24  C   UNL     1       2.595  -6.890  28.208  0.00  0.00    +0.132 C 
BRANCH  24  26
ATOM     25  C   UNL     1       3.402  -6.208  25.995  0.00  0.00    +0.230 C 
ATOM     26  N   UNL     1       3.072  -7.211  26.886  0.00  0.00    -0.312 N 
ATOM     27  H   UNL     1       3.184  -8.183  26.625  0.00  0.00    +0.149 HD
ATOM     28  O   UNL     1       3.160  -5.022  26.210  0.00  0.00    -0.274 OA
BRANCH  25  29
ATOM     29  C   UNL     1       3.970  -6.745  24.670  0.00  0.00    +0.142 C 
BRANCH  29  30
ATOM     30  N   UNL     1       3.366  -8.081  24.446  0.00  0.00    -0.320 NA
ATOM     31  H   UNL     1       3.414  -8.303  23.451  0.00  0.00    +0.119 HD
ATOM     32  H   UNL     1       3.973  -8.774  24.894  0.00  0.00    +0.119 HD
ENDBRANCH  29  30
BRANCH  29  33
ATOM     33  C   UNL     1       3.666  -5.810  23.486  0.00  0.00    +0.063 C 
BRANCH  33  34
ATOM     34  C   UNL     1       4.888  -5.097  22.943  0.00  0.00    -0.045 A 
ATOM     35  C   UNL     1       4.965  -3.697  22.971  0.00  0.00    +0.004 A 
ATOM     36  C   UNL     1       6.091  -3.034  22.485  0.00  0.00    +0.000 A 
ATOM     37  C   UNL     1       7.153  -3.761  21.954  0.00  0.00    +0.000 A 
ATOM     38  C   UNL     1       7.087  -5.153  21.912  0.00  0.00    +0.000 A 
ATOM     39  C   UNL     1       5.963  -5.820  22.408  0.00  0.00    +0.004 A 
ENDBRANCH  33  34
ENDBRANCH  29  33
ENDBRANCH  25  29
ENDBRANCH  24  26
ENDBRANCH  23  24
ENDBRANCH  22  23
ENDBRANCH  21  22
ENDBRANCH   1  21
TORSDOF 16
ENDMDL
MODEL 2
REMARK VINA RESULT:      -6.6      2.500      4.968
REMARK  Name = 
REMARK  16 active torsions:
REMARK  status: ('A' for Active; 'I' for Inactive)
REMARK    1  A    between atoms: C_2  and  N_3
REMARK    2  A    between atoms: C_2  and  C_4
REMARK    3  A    between atoms: C_2  and  C_11
REMARK    4  A    between atoms: C_4  and  C_5
REMARK    5  A    between atoms: N_13  and  C_14
REMARK    6  A    between atoms: C_14  and  C_15
REMARK    7  A    between atoms: C_15  and  O_16
REMARK    8  A    between atoms: O_16  and  C_17
REMARK    9  A    between atoms: C_17  and  C_18
REMARK   10  A    between atoms: C_18  and  O_19
REMARK   11  A    between atoms: O_19  and  C_20
REMARK   12  A    between atoms: C_20  and  C_21
REMARK   13  A    between atoms: C_21  and  N_22
REMARK   14  A    between atoms: C_23  and  C_25
REMARK   15  A    between atoms: C_28  and  S_31
REMARK   16  A    between atoms: S_31  and  N_32
REMARK                            x       y       z     vdW  Elec       q    Type
REMARK                         _______ _______ _______ _____ _____    ______ ____
ROOT
ATOM      1  C   UNL     1       5.879  -5.685  22.205  0.00  0.00    +0.188 C 
ENDROOT
BRANCH   1   2
ATOM      2  O   UNL     1       5.320  -4.525  21.578  0.00  0.00    -0.376 OA
BRANCH   2   3
ATOM      3  C   UNL     1       6.060  -3.324  21.803  0.00  0.00    +0.178 C 
BRANCH   3   4
ATOM      4  C   UNL     1       5.687  -2.671  23.131  0.00  0.00    +0.132 C 
BRANCH   4   5
ATOM      5  N   UNL     1       6.069  -1.287  23.197  0.00  0.00    -0.309 N 
ATOM      6  H   UNL     1       6.438  -0.869  22.354  0.00  0.00    +0.149 HD
ATOM      7  C   UNL     1       6.181  -0.628  24.404  0.00  0.00    +0.244 C 
ATOM      8  O   UNL     1       5.930  -1.132  25.495  0.00  0.00    -0.270 OA
BRANCH   7   9
ATOM      9  C   UNL     1       6.713   0.749  24.288  0.00  0.00    +0.037 A 
ATOM     10  C   UNL     1       7.009   1.468  25.449  0.00  0.00    +0.015 A 
ATOM     11  C   UNL     1       7.650   2.710  25.342  0.00  0.00    +0.029 A 
ATOM     12  C   UNL     1       7.968   3.213  24.074  0.00  0.00    +0.105 A 
ATOM     13  C   UNL     1       7.629   2.512  22.914  0.00  0.00    +0.029 A 
ATOM     14  C   UNL     1       6.986   1.287  23.023  0.00  0.00    +0.015 A 
BRANCH  12  15
ATOM     15  S   UNL     1       8.891   4.712  23.913  0.00  0.00    +0.056 S 
ATOM     16  O   UNL     1       9.168   5.231  25.232  0.00  0.00    -0.153 OA
ATOM     17  O   UNL     1       8.311   5.520  22.866  0.00  0.00    -0.153 OA
BRANCH  15  18
ATOM     18  N   UNL     1      10.351   4.147  23.318  0.00  0.00    -0.204 NA
ATOM     19  H   UNL     1      11.117   4.497  23.893  0.00  0.00    +0.144 HD
ATOM     20  H   UNL     1      10.432   4.380  22.328  0.00  0.00    +0.144 HD
ENDBRANCH  15  18
ENDBRANCH  12  15
ENDBRANCH   7   9
ENDBRANCH   4   5
ENDBRANCH   3   4
ENDBRANCH   2   3
ENDBRANCH   1   2
BRANCH   1  21
ATOM     21  C   UNL     1       5.023  -6.218  23.361  0.00  0.00    +0.188 C 
BRANCH  21  22
ATOM     22  O   UNL     1       5.684  -6.156  24.632  0.00  0.00    -0.376 OA
BRANCH  22  23
ATOM     23  C   UNL     1       4.853  -5.720  25.709  0.00  0.00    +0.178 C 
BRANCH  23  24
ATOM     24  C   UNL     1       5.478  -4.554  26.475  0.00  0.00    +0.132 C 
BRANCH  24  26
ATOM     25  C   UNL     1       7.925  -4.702  26.447  0.00  0.00    +0.230 C 
ATOM     26  N   UNL     1       6.759  -4.150  25.952  0.00  0.00    -0.312 N 
ATOM     27  H   UNL     1       6.794  -3.472  25.201  0.00  0.00    +0.149 HD
ATOM     28  O   UNL     1       7.949  -5.422  27.442  0.00  0.00    -0.274 OA
BRANCH  25  29
ATOM     29  C   UNL     1       9.183  -4.209  25.709  0.00  0.00    +0.142 C 
BRANCH  29  30
ATOM     30  N   UNL     1      10.119  -5.357  25.629  0.00  0.00    -0.320 NA
ATOM     31  H   UNL     1      10.491  -5.545  26.560  0.00  0.00    +0.119 HD
ATOM     32  H   UNL     1       9.568  -6.189  25.397  0.00  0.00    +0.119 HD
ENDBRANCH  29  30
BRANCH  29  33
ATOM     33  C   UNL     1       8.860  -3.675  24.303  0.00  0.00    +0.063 C 
BRANCH  33  34
ATOM     34  C   UNL     1       9.414  -2.291  24.034  0.00  0.00    -0.045 A 
ATOM     35  C   UNL     1       9.693  -1.418  25.097  0.00  0.00    +0.004 A 
ATOM     36  C   UNL     1      10.215  -0.147  24.857  0.00  0.00    +0.000 A 
ATOM     37  C   UNL     1      10.456   0.273  23.553  0.00  0.00    +0.000 A 
ATOM     38  C   UNL     1      10.176  -0.580  22.487  0.00  0.00    +0.000 A 
ATOM     39  C   UNL     1       9.663  -1.858  22.724  0.00  0.00    +0.004 A 
ENDBRANCH  33  34
ENDBRANCH  29  33
ENDBRANCH  25  29
ENDBRANCH  24  26
ENDBRANCH  23  24
ENDBRANCH  22  23
ENDBRANCH  21  22
ENDBRANCH   1  21
TORSDOF 16
ENDMDL
MODEL 3
REMARK VINA RESULT:      -6.6      4.156      9.033
REMARK  Name = 
REMARK  16 active torsions:
REMARK  status: ('A' for Active; 'I' for Inactive)
REMARK    1  A    between atoms: C_2  and  N_3
REMARK    2  A    between atoms: C_2  and  C_4
REMARK    3  A    between atoms: C_2  and  C_11
REMARK    4  A    between atoms: C_4  and  C_5
REMARK    5  A    between atoms: N_13  and  C_14
REMARK    6  A    between atoms: C_14  and  C_15
REMARK    7  A    between atoms: C_15  and  O_16
REMARK    8  A    between atoms: O_16  and  C_17
REMARK    9  A    between atoms: C_17  and  C_18
REMARK   10  A    between atoms: C_18  and  O_19
REMARK   11  A    between atoms: O_19  and  C_20
REMARK   12  A    between atoms: C_20  and  C_21
REMARK   13  A    between atoms: C_21  and  N_22
REMARK   14  A    between atoms: C_23  and  C_25
REMARK   15  A    between atoms: C_28  and  S_31
REMARK   16  A    between atoms: S_31  and  N_32
REMARK                            x       y       z     vdW  Elec       q    Type
REMARK                         _______ _______ _______ _____ _____    ______ ____
ROOT
ATOM      1  C   UNL     1       5.478   4.966  23.291  0.00  0.00    +0.188 C 
ENDROOT
BRANCH   1   2
ATOM      2  O   UNL     1       6.492   4.580  22.355  0.00  0.00    -0.376 OA
BRANCH   2   3
ATOM      3  C   UNL     1       6.535   3.179  22.083  0.00  0.00    +0.178 C 
BRANCH   3   4
ATOM      4  C   UNL     1       5.713   2.382  23.093  0.00  0.00    +0.132 C 
BRANCH   4   5
ATOM      5  N   UNL     1       6.268   1.083  23.360  0.00  0.00    -0.309 N 
ATOM      6  H   UNL     1       6.374   0.456  22.574  0.00  0.00    +0.149 HD
ATOM      7  C   UNL     1       6.403   0.609  24.649  0.00  0.00    +0.244 C 
ATOM      8  O   UNL     1       6.113   1.249  25.655  0.00  0.00    -0.270 OA
BRANCH   7   9
ATOM      9  C   UNL     1       6.867  -0.795  24.726  0.00  0.00    +0.037 A 
ATOM     10  C   UNL     1       6.530  -1.684  23.703  0.00  0.00    +0.015 A 
ATOM     11  C   UNL     1       7.090  -2.968  23.698  0.00  0.00    +0.029 A 
ATOM     12  C   UNL     1       7.965  -3.341  24.727  0.00  0.00    +0.105 A 
ATOM     13  C   UNL     1       8.264  -2.465  25.773  0.00  0.00    +0.029 A 
ATOM     14  C   UNL     1       7.700  -1.197  25.780  0.00  0.00    +0.015 A 
BRANCH  12  15
ATOM     15  S   UNL     1       8.788  -4.906  24.678  0.00  0.00    +0.056 S 
ATOM     16  O   UNL     1      10.199  -4.694  24.898  0.00  0.00    -0.153 OA
ATOM     17  O   UNL     1       8.281  -5.677  23.567  0.00  0.00    -0.153 OA
BRANCH  15  18
ATOM     18  N   UNL     1       8.203  -5.638  26.066  0.00  0.00    -0.204 NA
ATOM     19  H   UNL     1       7.429  -5.091  26.444  0.00  0.00    +0.144 HD
ATOM     20  H   UNL     1       8.968  -5.787  26.723  0.00  0.00    +0.144 HD
ENDBRANCH  15  18
ENDBRANCH  12  15
ENDBRANCH   7   9
ENDBRANCH   4   5
ENDBRANCH   3   4
ENDBRANCH   2   3
ENDBRANCH   1   2
BRANCH   1  21
ATOM     21  C   UNL     1       5.776   6.299  23.988  0.00  0.00    +0.188 C 
BRANCH  21  22
ATOM     22  O   UNL     1       6.208   6.144  25.346  0.00  0.00    -0.376 OA
BRANCH  22  23
ATOM     23  C   UNL     1       6.152   4.803  25.835  0.00  0.00    +0.178 C 
BRANCH  23  24
ATOM     24  C   UNL     1       7.519   4.310  26.308  0.00  0.00    +0.132 C 
BRANCH  24  26
ATOM     25  C   UNL     1       9.236   4.352  24.559  0.00  0.00    +0.230 C 
ATOM     26  N   UNL     1       8.279   3.657  25.272  0.00  0.00    -0.312 N 
ATOM     27  H   UNL     1       8.117   2.675  25.087  0.00  0.00    +0.149 HD
ATOM     28  O   UNL     1       9.378   5.570  24.649  0.00  0.00    -0.274 OA
BRANCH  25  29
ATOM     29  C   UNL     1       9.998   3.468  23.556  0.00  0.00    +0.142 C 
BRANCH  29  30
ATOM     30  N   UNL     1      11.191   4.232  23.119  0.00  0.00    -0.320 NA
ATOM     31  H   UNL     1      10.974   4.711  22.244  0.00  0.00    +0.119 HD
ATOM     32  H   UNL     1      11.340   4.986  23.795  0.00  0.00    +0.119 HD
ENDBRANCH  29  30
BRANCH  29  33
ATOM     33  C   UNL     1      10.414   2.119  24.169  0.00  0.00    +0.063 C 
BRANCH  33  34
ATOM     34  C   UNL     1      10.153   0.931  23.265  0.00  0.00    -0.045 A 
ATOM     35  C   UNL     1      10.554  -0.356  23.652  0.00  0.00    +0.004 A 
ATOM     36  C   UNL     1      10.306  -1.456  22.831  0.00  0.00    +0.000 A 
ATOM     37  C   UNL     1       9.663  -1.283  21.610  0.00  0.00    +0.000 A 
ATOM     38  C   UNL     1       9.266  -0.008  21.209  0.00  0.00    +0.000 A 
ATOM     39  C   UNL     1       9.505   1.094  22.034  0.00  0.00    +0.004 A 
ENDBRANCH  33  34
ENDBRANCH  29  33
ENDBRANCH  25  29
ENDBRANCH  24  26
ENDBRANCH  23  24
ENDBRANCH  22  23
ENDBRANCH  21  22
ENDBRANCH   1  21
TORSDOF 16
ENDMDL
MODEL 4
REMARK VINA RESULT:      -6.5      1.806      4.041
REMARK  Name = 
REMARK  16 active torsions:
REMARK  status: ('A' for Active; 'I' for Inactive)
REMARK    1  A    between atoms: C_2  and  N_3
REMARK    2  A    between atoms: C_2  and  C_4
REMARK    3  A    between atoms: C_2  and  C_11
REMARK    4  A    between atoms: C_4  and  C_5
REMARK    5  A    between atoms: N_13  and  C_14
REMARK    6  A    between atoms: C_14  and  C_15
REMARK    7  A    between atoms: C_15  and  O_16
REMARK    8  A    between atoms: O_16  and  C_17
REMARK    9  A    between atoms: C_17  and  C_18
REMARK   10  A    between atoms: C_18  and  O_19
REMARK   11  A    between atoms: O_19  and  C_20
REMARK   12  A    between atoms: C_20  and  C_21
REMARK   13  A    between atoms: C_21  and  N_22
REMARK   14  A    between atoms: C_23  and  C_25
REMARK   15  A    between atoms: C_28  and  S_31
REMARK   16  A    between atoms: S_31  and  N_32
REMARK                            x       y       z     vdW  Elec       q    Type
REMARK                         _______ _______ _______ _____ _____    ______ ____
ROOT
ATOM      1  C   UNL     1       3.000  -6.089  23.123  0.00  0.00    +0.188 C 
ENDROOT
BRANCH   1   2
ATOM      2  O   UNL     1       4.200  -5.419  22.719  0.00  0.00    -0.376 OA
BRANCH   2   3
ATOM      3  C   UNL     1       5.401  -6.106  23.072  0.00  0.00    +0.178 C 
BRANCH   3   4
ATOM      4  C   UNL     1       6.559  -5.727  22.152  0.00  0.00    +0.132 C 
BRANCH   4   5
ATOM      5  N   UNL     1       6.914  -4.337  22.247  0.00  0.00    -0.309 N 
ATOM      6  H   UNL     1       6.503  -3.709  21.571  0.00  0.00    +0.149 HD
ATOM      7  C   UNL     1       7.960  -3.914  23.042  0.00  0.00    +0.244 C 
ATOM      8  O   UNL     1       8.633  -4.655  23.752  0.00  0.00    -0.270 OA
BRANCH   7   9
ATOM      9  C   UNL     1       8.264  -2.471  22.914  0.00  0.00    +0.037 A 
ATOM     10  C   UNL     1       7.214  -1.558  22.800  0.00  0.00    +0.015 A 
ATOM     11  C   UNL     1       7.492  -0.185  22.828  0.00  0.00    +0.029 A 
ATOM     12  C   UNL     1       8.819   0.246  22.956  0.00  0.00    +0.105 A 
ATOM     13  C   UNL     1       9.872  -0.671  23.024  0.00  0.00    +0.029 A 
ATOM     14  C   UNL     1       9.594  -2.030  22.986  0.00  0.00    +0.015 A 
BRANCH  12  15
ATOM     15  S   UNL     1       9.189   1.966  23.127  0.00  0.00    +0.056 S 
ATOM     16  O   UNL     1      10.027   2.147  24.288  0.00  0.00    -0.153 OA
ATOM     17  O   UNL     1       7.988   2.737  22.907  0.00  0.00    -0.153 OA
BRANCH  15  18
ATOM     18  N   UNL     1      10.171   2.233  21.796  0.00  0.00    -0.204 NA
ATOM     19  H   UNL     1      10.133   3.218  21.532  0.00  0.00    +0.144 HD
ATOM     20  H   UNL     1       9.917   1.590  21.047  0.00  0.00    +0.144 HD
ENDBRANCH  15  18
ENDBRANCH  12  15
ENDBRANCH   7   9
ENDBRANCH   4   5
ENDBRANCH   3   4
ENDBRANCH   2   3
ENDBRANCH   1   2
BRANCH   1  21
ATOM     21  C   UNL     1       2.063  -5.201  23.951  0.00  0.00    +0.188 C 
BRANCH  21  22
ATOM     22  O   UNL     1       2.252  -5.341  25.366  0.00  0.00    -0.376 OA
BRANCH  22  23
ATOM     23  C   UNL     1       2.405  -6.690  25.810  0.00  0.00    +0.178 C 
BRANCH  23  24
ATOM     24  C   UNL     1       3.460  -6.812  26.910  0.00  0.00    +0.132 C 
BRANCH  24  26
ATOM     25  C   UNL     1       5.707  -6.023  27.491  0.00  0.00    +0.230 C 
ATOM     26  N   UNL     1       4.538  -5.865  26.773  0.00  0.00    -0.312 N 
ATOM     27  H   UNL     1       4.436  -5.093  26.126  0.00  0.00    +0.149 HD
ATOM     28  O   UNL     1       5.831  -6.860  28.383  0.00  0.00    -0.274 OA
BRANCH  25  29
ATOM     29  C   UNL     1       6.769  -4.963  27.150  0.00  0.00    +0.142 C 
BRANCH  29  30
ATOM     30  N   UNL     1       7.955  -5.685  26.628  0.00  0.00    -0.320 NA
ATOM     31  H   UNL     1       8.020  -5.528  25.622  0.00  0.00    +0.119 HD
ATOM     32  H   UNL     1       8.788  -5.233  27.015  0.00  0.00    +0.119 HD
ENDBRANCH  29  30
BRANCH  29  33
ATOM     33  C   UNL     1       6.261  -3.942  26.118  0.00  0.00    +0.063 C 
BRANCH  33  34
ATOM     34  C   UNL     1       6.832  -2.550  26.304  0.00  0.00    -0.045 A 
ATOM     35  C   UNL     1       8.208  -2.369  26.504  0.00  0.00    +0.004 A 
ATOM     36  C   UNL     1       8.742  -1.090  26.664  0.00  0.00    +0.000 A 
ATOM     37  C   UNL     1       7.908   0.023  26.635  0.00  0.00    +0.000 A 
ATOM     38  C   UNL     1       6.537  -0.144  26.444  0.00  0.00    +0.000 A 
ATOM     39  C   UNL     1       6.001  -1.423  26.274  0.00  0.00    +0.004 A 
ENDBRANCH  33  34
ENDBRANCH  29  33
ENDBRANCH  25  29
ENDBRANCH  24  26
ENDBRANCH  23  24
ENDBRANCH  22  23
ENDBRANCH  21  22
ENDBRANCH   1  21
TORSDOF 16
ENDMDL
MODEL 5
REMARK VINA RESULT:      -6.5      3.069      5.327
REMARK  Name = 
REMARK  16 active torsions:
REMARK  status: ('A' for Active; 'I' for Inactive)
REMARK    1  A    between atoms: C_2  and  N_3
REMARK    2  A    between atoms: C_2  and  C_4
REMARK    3  A    between atoms: C_2  and  C_11
REMARK    4  A    between atoms: C_4  and  C_5
REMARK    5  A    between atoms: N_13  and  C_14
REMARK    6  A    between atoms: C_14  and  C_15
REMARK    7  A    between atoms: C_15  and  O_16
REMARK    8  A    between atoms: O_16  and  C_17
REMARK    9  A    between atoms: C_17  and  C_18
REMARK   10  A    between atoms: C_18  and  O_19
REMARK   11  A    between atoms: O_19  and  C_20
REMARK   12  A    between atoms: C_20  and  C_21
REMARK   13  A    between atoms: C_21  and  N_22
REMARK   14  A    between atoms: C_23  and  C_25
REMARK   15  A    between atoms: C_28  and  S_31
REMARK   16  A    between atoms: S_31  and  N_32
REMARK                            x       y       z     vdW  Elec       q    Type
REMARK                         _______ _______ _______ _____ _____    ______ ____
ROOT
ATOM      1  C   UNL     1       5.207  -3.496  26.047  0.00  0.00    +0.188 C 
ENDROOT
BRANCH   1   2
ATOM      2  O   UNL     1       6.556  -3.395  25.576  0.00  0.00    -0.376 OA
BRANCH   2   3
ATOM      3  C   UNL     1       7.365  -2.475  26.310  0.00  0.00    +0.178 C 
BRANCH   3   4
ATOM      4  C   UNL     1       6.595  -1.207  26.669  0.00  0.00    +0.132 C 
BRANCH   4   5
ATOM      5  N   UNL     1       7.086  -0.044  25.982  0.00  0.00    -0.309 N 
ATOM      6  H   UNL     1       8.035   0.242  26.179  0.00  0.00    +0.149 HD
ATOM      7  C   UNL     1       6.237   0.799  25.295  0.00  0.00    +0.244 C 
ATOM      8  O   UNL     1       5.029   0.616  25.173  0.00  0.00    -0.270 OA
BRANCH   7   9
ATOM      9  C   UNL     1       6.897   2.014  24.765  0.00  0.00    +0.037 A 
ATOM     10  C   UNL     1       6.613   2.433  23.463  0.00  0.00    +0.015 A 
ATOM     11  C   UNL     1       7.118   3.660  23.012  0.00  0.00    +0.029 A 
ATOM     12  C   UNL     1       7.911   4.434  23.869  0.00  0.00    +0.105 A 
ATOM     13  C   UNL     1       8.231   3.990  25.155  0.00  0.00    +0.029 A 
ATOM     14  C   UNL     1       7.736   2.770  25.595  0.00  0.00    +0.015 A 
BRANCH  12  15
ATOM     15  S   UNL     1       8.454   6.043  23.375  0.00  0.00    +0.056 S 
ATOM     16  O   UNL     1       9.897   6.054  23.337  0.00  0.00    -0.153 OA
ATOM     17  O   UNL     1       7.687   7.043  24.081  0.00  0.00    -0.153 OA
BRANCH  15  18
ATOM     18  N   UNL     1       7.944   6.096  21.781  0.00  0.00    -0.204 NA
ATOM     19  H   UNL     1       8.575   6.683  21.236  0.00  0.00    +0.144 HD
ATOM     20  H   UNL     1       6.967   6.387  21.742  0.00  0.00    +0.144 HD
ENDBRANCH  15  18
ENDBRANCH  12  15
ENDBRANCH   7   9
ENDBRANCH   4   5
ENDBRANCH   3   4
ENDBRANCH   2   3
ENDBRANCH   1   2
BRANCH   1  21
ATOM     21  C   UNL     1       4.534  -4.822  25.670  0.00  0.00    +0.188 C 
BRANCH  21  22
ATOM     22  O   UNL     1       4.524  -5.071  24.258  0.00  0.00    -0.376 OA
BRANCH  22  23
ATOM     23  C   UNL     1       5.293  -6.205  23.853  0.00  0.00    +0.178 C 
BRANCH  23  24
ATOM     24  C   UNL     1       6.244  -5.868  22.704  0.00  0.00    +0.132 C 
BRANCH  24  26
ATOM     25  C   UNL     1       6.391  -3.566  21.873  0.00  0.00    +0.230 C 
ATOM     26  N   UNL     1       6.779  -4.532  22.781  0.00  0.00    -0.312 N 
ATOM     27  H   UNL     1       7.428  -4.303  23.524  0.00  0.00    +0.149 HD
ATOM     28  O   UNL     1       5.715  -3.822  20.879  0.00  0.00    -0.274 OA
BRANCH  25  29
ATOM     29  C   UNL     1       7.003  -2.185  22.166  0.00  0.00    +0.142 C 
BRANCH  29  30
ATOM     30  N   UNL     1       6.103  -1.504  23.128  0.00  0.00    -0.320 NA
ATOM     31  H   UNL     1       5.246  -1.236  22.645  0.00  0.00    +0.119 HD
ATOM     32  H   UNL     1       5.804  -2.200  23.817  0.00  0.00    +0.119 HD
ENDBRANCH  29  30
BRANCH  29  33
ATOM     33  C   UNL     1       8.427  -2.291  22.739  0.00  0.00    +0.063 C 
BRANCH  33  34
ATOM     34  C   UNL     1       9.126  -0.954  22.887  0.00  0.00    -0.045 A 
ATOM     35  C   UNL     1       9.787  -0.626  24.081  0.00  0.00    +0.004 A 
ATOM     36  C   UNL     1      10.442   0.597  24.220  0.00  0.00    +0.000 A 
ATOM     37  C   UNL     1      10.439   1.512  23.172  0.00  0.00    +0.000 A 
ATOM     38  C   UNL     1       9.780   1.203  21.983  0.00  0.00    +0.000 A 
ATOM     39  C   UNL     1       9.130  -0.025  21.838  0.00  0.00    +0.004 A 
ENDBRANCH  33  34
ENDBRANCH  29  33
ENDBRANCH  25  29
ENDBRANCH  24  26
ENDBRANCH  23  24
ENDBRANCH  22  23
ENDBRANCH  21  22
ENDBRANCH   1  21
TORSDOF 16
ENDMDL
MODEL 6
REMARK VINA RESULT:      -6.4      2.154      3.200
REMARK  Name = 
REMARK  16 active torsions:
REMARK  status: ('A' for Active; 'I' for Inactive)
REMARK    1  A    between atoms: C_2  and  N_3
REMARK    2  A    between atoms: C_2  and  C_4
REMARK    3  A    between atoms: C_2  and  C_11
REMARK    4  A    between atoms: C_4  and  C_5
REMARK    5  A    between atoms: N_13  and  C_14
REMARK    6  A    between atoms: C_14  and  C_15
REMARK    7  A    between atoms: C_15  and  O_16
REMARK    8  A    between atoms: O_16  and  C_17
REMARK    9  A    between atoms: C_17  and  C_18
REMARK   10  A    between atoms: C_18  and  O_19
REMARK   11  A    between atoms: O_19  and  C_20
REMARK   12  A    between atoms: C_20  and  C_21
REMARK   13  A    between atoms: C_21  and  N_22
REMARK   14  A    between atoms: C_23  and  C_25
REMARK   15  A    between atoms: C_28  and  S_31
REMARK   16  A    between atoms: S_31  and  N_32
REMARK                            x       y       z     vdW  Elec       q    Type
REMARK                         _______ _______ _______ _____ _____    ______ ____
ROOT
ATOM      1  C   UNL     1       7.954  -5.177  25.308  0.00  0.00    +0.188 C 
ENDROOT
BRANCH   1   2
ATOM      2  O   UNL     1       8.997  -4.461  24.636  0.00  0.00    -0.376 OA
BRANCH   2   3
ATOM      3  C   UNL     1       9.020  -3.061  24.916  0.00  0.00    +0.178 C 
BRANCH   3   4
ATOM      4  C   UNL     1       9.736  -2.278  23.818  0.00  0.00    +0.132 C 
BRANCH   4   5
ATOM      5  N   UNL     1       9.444  -0.871  23.857  0.00  0.00    -0.309 N 
ATOM      6  H   UNL     1       9.034  -0.508  24.707  0.00  0.00    +0.149 HD
ATOM      7  C   UNL     1       9.468  -0.098  22.714  0.00  0.00    +0.244 C 
ATOM      8  O   UNL     1       9.775  -0.517  21.602  0.00  0.00    -0.270 OA
BRANCH   7   9
ATOM      9  C   UNL     1       9.012   1.295  22.922  0.00  0.00    +0.037 A 
ATOM     10  C   UNL     1       9.646   2.086  23.883  0.00  0.00    +0.015 A 
ATOM     11  C   UNL     1       9.318   3.445  23.978  0.00  0.00    +0.029 A 
ATOM     12  C   UNL     1       8.350   3.981  23.118  0.00  0.00    +0.105 A 
ATOM     13  C   UNL     1       7.686   3.176  22.189  0.00  0.00    +0.029 A 
ATOM     14  C   UNL     1       8.007   1.829  22.103  0.00  0.00    +0.015 A 
BRANCH  12  15
ATOM     15  S   UNL     1       8.010   5.716  23.125  0.00  0.00    +0.056 S 
ATOM     16  O   UNL     1       9.249   6.431  23.318  0.00  0.00    -0.153 OA
ATOM     17  O   UNL     1       6.834   5.968  23.925  0.00  0.00    -0.153 OA
BRANCH  15  18
ATOM     18  N   UNL     1       7.562   5.978  21.532  0.00  0.00    -0.204 NA
ATOM     19  H   UNL     1       7.297   5.094  21.098  0.00  0.00    +0.144 HD
ATOM     20  H   UNL     1       8.306   6.476  21.044  0.00  0.00    +0.144 HD
ENDBRANCH  15  18
ENDBRANCH  12  15
ENDBRANCH   7   9
ENDBRANCH   4   5
ENDBRANCH   3   4
ENDBRANCH   2   3
ENDBRANCH   1   2
BRANCH   1  21
ATOM     21  C   UNL     1       7.769  -4.745  26.769  0.00  0.00    +0.188 C 
BRANCH  21  22
ATOM     22  O   UNL     1       7.382  -5.822  27.633  0.00  0.00    -0.376 OA
BRANCH  22  23
ATOM     23  C   UNL     1       6.148  -5.612  28.321  0.00  0.00    +0.178 C 
BRANCH  23  24
ATOM     24  C   UNL     1       5.179  -6.777  28.124  0.00  0.00    +0.132 C 
BRANCH  24  26
ATOM     25  C   UNL     1       3.999  -6.617  25.981  0.00  0.00    +0.230 C 
ATOM     26  N   UNL     1       5.018  -7.156  26.742  0.00  0.00    -0.312 N 
ATOM     27  H   UNL     1       5.675  -7.806  26.330  0.00  0.00    +0.149 HD
ATOM     28  O   UNL     1       3.100  -5.932  26.463  0.00  0.00    -0.274 OA
BRANCH  25  29
ATOM     29  C   UNL     1       4.040  -7.077  24.513  0.00  0.00    +0.142 C 
BRANCH  29  30
ATOM     30  N   UNL     1       3.121  -8.235  24.393  0.00  0.00    -0.320 NA
ATOM     31  H   UNL     1       2.190  -7.893  24.149  0.00  0.00    +0.119 HD
ATOM     32  H   UNL     1       3.416  -8.781  23.579  0.00  0.00    +0.119 HD
ENDBRANCH  29  30
BRANCH  29  33
ATOM     33  C   UNL     1       3.628  -5.957  23.541  0.00  0.00    +0.063 C 
BRANCH  33  34
ATOM     34  C   UNL     1       4.801  -5.212  22.936  0.00  0.00    -0.045 A 
ATOM     35  C   UNL     1       4.869  -3.813  23.011  0.00  0.00    +0.004 A 
ATOM     36  C   UNL     1       5.951  -3.122  22.467  0.00  0.00    +0.000 A 
ATOM     37  C   UNL     1       6.975  -3.819  21.832  0.00  0.00    +0.000 A 
ATOM     38  C   UNL     1       6.917  -5.208  21.743  0.00  0.00    +0.000 A 
ATOM     39  C   UNL     1       5.838  -5.904  22.296  0.00  0.00    +0.004 A 
ENDBRANCH  33  34
ENDBRANCH  29  33
ENDBRANCH  25  29
ENDBRANCH  24  26
ENDBRANCH  23  24
ENDBRANCH  22  23
ENDBRANCH  21  22
ENDBRANCH   1  21
TORSDOF 16
ENDMDL
MODEL 7
REMARK VINA RESULT:      -6.4      3.123      5.525
REMARK  Name = 
REMARK  16 active torsions:
REMARK  status: ('A' for Active; 'I' for Inactive)
REMARK    1  A    between atoms: C_2  and  N_3
REMARK    2  A    between atoms: C_2  and  C_4
REMARK    3  A    between atoms: C_2  and  C_11
REMARK    4  A    between atoms: C_4  and  C_5
REMARK    5  A    between atoms: N_13  and  C_14
REMARK    6  A    between atoms: C_14  and  C_15
REMARK    7  A    between atoms: C_15  and  O_16
REMARK    8  A    between atoms: O_16  and  C_17
REMARK    9  A    between atoms: C_17  and  C_18
REMARK   10  A    between atoms: C_18  and  O_19
REMARK   11  A    between atoms: O_19  and  C_20
REMARK   12  A    between atoms: C_20  and  C_21
REMARK   13  A    between atoms: C_21  and  N_22
REMARK   14  A    between atoms: C_23  and  C_25
REMARK   15  A    between atoms: C_28  and  S_31
REMARK   16  A    between atoms: S_31  and  N_32
REMARK                            x       y       z     vdW  Elec       q    Type
REMARK                         _______ _______ _______ _____ _____    ______ ____
ROOT
ATOM      1  C   UNL     1       4.411  -5.357  24.654  0.00  0.00    +0.188 C 
ENDROOT
BRANCH   1   2
ATOM      2  O   UNL     1       5.072  -4.104  24.870  0.00  0.00    -0.376 OA
BRANCH   2   3
ATOM      3  C   UNL     1       4.186  -3.004  25.079  0.00  0.00    +0.178 C 
BRANCH   3   4
ATOM      4  C   UNL     1       4.719  -2.044  26.141  0.00  0.00    +0.132 C 
BRANCH   4   5
ATOM      5  N   UNL     1       5.215  -0.816  25.581  0.00  0.00    -0.309 N 
ATOM      6  H   UNL     1       4.870  -0.552  24.669  0.00  0.00    +0.149 HD
ATOM      7  C   UNL     1       6.299  -0.162  26.130  0.00  0.00    +0.244 C 
ATOM      8  O   UNL     1       6.893  -0.532  27.138  0.00  0.00    -0.270 OA
BRANCH   7   9
ATOM      9  C   UNL     1       6.751   1.010  25.346  0.00  0.00    +0.037 A 
ATOM     10  C   UNL     1       6.143   1.288  24.120  0.00  0.00    +0.015 A 
ATOM     11  C   UNL     1       6.464   2.477  23.449  0.00  0.00    +0.029 A 
ATOM     12  C   UNL     1       7.398   3.355  24.014  0.00  0.00    +0.105 A 
ATOM     13  C   UNL     1       8.037   3.051  25.219  0.00  0.00    +0.029 A 
ATOM     14  C   UNL     1       7.725   1.869  25.876  0.00  0.00    +0.015 A 
BRANCH  12  15
ATOM     15  S   UNL     1       7.725   4.920  23.259  0.00  0.00    +0.056 S 
ATOM     16  O   UNL     1       7.291   5.966  24.154  0.00  0.00    -0.153 OA
ATOM     17  O   UNL     1       7.331   4.871  21.870  0.00  0.00    -0.153 OA
BRANCH  15  18
ATOM     18  N   UNL     1       9.399   4.957  23.273  0.00  0.00    -0.204 NA
ATOM     19  H   UNL     1       9.725   5.896  23.042  0.00  0.00    +0.144 HD
ATOM     20  H   UNL     1       9.764   4.227  22.662  0.00  0.00    +0.144 HD
ENDBRANCH  15  18
ENDBRANCH  12  15
ENDBRANCH   7   9
ENDBRANCH   4   5
ENDBRANCH   3   4
ENDBRANCH   2   3
ENDBRANCH   1   2
BRANCH   1  21
ATOM     21  C   UNL     1       3.902  -5.531  23.217  0.00  0.00    +0.188 C 
BRANCH  21  22
ATOM     22  O   UNL     1       4.794  -4.996  22.231  0.00  0.00    -0.376 OA
BRANCH  22  23
ATOM     23  C   UNL     1       5.758  -5.928  21.739  0.00  0.00    +0.178 C 
BRANCH  23  24
ATOM     24  C   UNL     1       7.171  -5.343  21.745  0.00  0.00    +0.132 C 
BRANCH  24  26
ATOM     25  C   UNL     1       8.185  -4.166  23.641  0.00  0.00    +0.230 C 
ATOM     26  N   UNL     1       7.301  -4.175  22.580  0.00  0.00    -0.312 N 
ATOM     27  H   UNL     1       6.751  -3.353  22.365  0.00  0.00    +0.149 HD
ATOM     28  O   UNL     1       8.773  -5.174  24.025  0.00  0.00    -0.274 OA
BRANCH  25  29
ATOM     29  C   UNL     1       8.244  -2.807  24.361  0.00  0.00    +0.142 C 
BRANCH  29  30
ATOM     30  N   UNL     1       7.823  -3.039  25.765  0.00  0.00    -0.320 NA
ATOM     31  H   UNL     1       6.804  -3.052  25.806  0.00  0.00    +0.119 HD
ATOM     32  H   UNL     1       8.104  -3.990  26.019  0.00  0.00    +0.119 HD
ENDBRANCH  29  30
BRANCH  29  33
ATOM     33  C   UNL     1       9.650  -2.184  24.314  0.00  0.00    +0.063 C 
BRANCH  33  34
ATOM     34  C   UNL     1       9.719  -0.893  23.524  0.00  0.00    -0.045 A 
ATOM     35  C   UNL     1       9.017  -0.762  22.316  0.00  0.00    +0.004 A 
ATOM     36  C   UNL     1       9.066   0.428  21.589  0.00  0.00    +0.000 A 
ATOM     37  C   UNL     1       9.824   1.498  22.054  0.00  0.00    +0.000 A 
ATOM     38  C   UNL     1      10.534   1.378  23.248  0.00  0.00    +0.000 A 
ATOM     39  C   UNL     1      10.478   0.191  23.983  0.00  0.00    +0.004 A 
ENDBRANCH  33  34
ENDBRANCH  29  33
ENDBRANCH  25  29
ENDBRANCH  24  26
ENDBRANCH  23  24
ENDBRANCH  22  23
ENDBRANCH  21  22
ENDBRANCH   1  21
TORSDOF 16
ENDMDL
MODEL 8
REMARK VINA RESULT:      -6.3      3.121      8.163
REMARK  Name = 
REMARK  16 active torsions:
REMARK  status: ('A' for Active; 'I' for Inactive)
REMARK    1  A    between atoms: C_2  and  N_3
REMARK    2  A    between atoms: C_2  and  C_4
REMARK    3  A    between atoms: C_2  and  C_11
REMARK    4  A    between atoms: C_4  and  C_5
REMARK    5  A    between atoms: N_13  and  C_14
REMARK    6  A    between atoms: C_14  and  C_15
REMARK    7  A    between atoms: C_15  and  O_16
REMARK    8  A    between atoms: O_16  and  C_17
REMARK    9  A    between atoms: C_17  and  C_18
REMARK   10  A    between atoms: C_18  and  O_19
REMARK   11  A    between atoms: O_19  and  C_20
REMARK   12  A    between atoms: C_20  and  C_21
REMARK   13  A    between atoms: C_21  and  N_22
REMARK   14  A    between atoms: C_23  and  C_25
REMARK   15  A    between atoms: C_28  and  S_31
REMARK   16  A    between atoms: S_31  and  N_32
REMARK                            x       y       z     vdW  Elec       q    Type
REMARK                         _______ _______ _______ _____ _____    ______ ____
ROOT
ATOM      1  C   UNL     1       8.190   2.067  25.256  0.00  0.00    +0.188 C 
ENDROOT
BRANCH   1   2
ATOM      2  O   UNL     1       8.320   0.678  24.929  0.00  0.00    -0.376 OA
BRANCH   2   3
ATOM      3  C   UNL     1       9.375   0.010  25.622  0.00  0.00    +0.178 C 
BRANCH   3   4
ATOM      4  C   UNL     1       8.863  -0.716  26.864  0.00  0.00    +0.132 C 
BRANCH   4   5
ATOM      5  N   UNL     1       8.053  -1.860  26.546  0.00  0.00    -0.309 N 
ATOM      6  H   UNL     1       8.509  -2.635  26.086  0.00  0.00    +0.149 HD
ATOM      7  C   UNL     1       6.676  -1.808  26.617  0.00  0.00    +0.244 C 
ATOM      8  O   UNL     1       6.038  -0.827  26.988  0.00  0.00    -0.270 OA
BRANCH   7   9
ATOM      9  C   UNL     1       6.004  -3.033  26.126  0.00  0.00    +0.037 A 
ATOM     10  C   UNL     1       6.355  -4.270  26.671  0.00  0.00    +0.015 A 
ATOM     11  C   UNL     1       5.618  -5.409  26.318  0.00  0.00    +0.029 A 
ATOM     12  C   UNL     1       4.554  -5.287  25.414  0.00  0.00    +0.105 A 
ATOM     13  C   UNL     1       4.235  -4.056  24.836  0.00  0.00    +0.029 A 
ATOM     14  C   UNL     1       4.972  -2.931  25.181  0.00  0.00    +0.015 A 
BRANCH  12  15
ATOM     15  S   UNL     1       3.527  -6.679  25.050  0.00  0.00    +0.056 S 
ATOM     16  O   UNL     1       4.285  -7.623  24.264  0.00  0.00    -0.153 OA
ATOM     17  O   UNL     1       2.217  -6.216  24.658  0.00  0.00    -0.153 OA
BRANCH  15  18
ATOM     18  N   UNL     1       3.348  -7.371  26.565  0.00  0.00    -0.204 NA
ATOM     19  H   UNL     1       3.355  -6.644  27.280  0.00  0.00    +0.144 HD
ATOM     20  H   UNL     1       4.056  -8.093  26.698  0.00  0.00    +0.144 HD
ENDBRANCH  15  18
ENDBRANCH  12  15
ENDBRANCH   7   9
ENDBRANCH   4   5
ENDBRANCH   3   4
ENDBRANCH   2   3
ENDBRANCH   1   2
BRANCH   1  21
ATOM     21  C   UNL     1       8.417   2.993  24.055  0.00  0.00    +0.188 C 
BRANCH  21  22
ATOM     22  O   UNL     1       9.701   3.630  24.064  0.00  0.00    -0.376 OA
BRANCH  22  23
ATOM     23  C   UNL     1      10.763   2.826  23.548  0.00  0.00    +0.178 C 
BRANCH  23  24
ATOM     24  C   UNL     1      10.390   2.175  22.216  0.00  0.00    +0.132 C 
BRANCH  24  26
ATOM     25  C   UNL     1       9.058   0.190  21.672  0.00  0.00    +0.230 C 
ATOM     26  N   UNL     1      10.133   0.760  22.326  0.00  0.00    -0.312 N 
ATOM     27  H   UNL     1      10.763   0.186  22.871  0.00  0.00    +0.149 HD
ATOM     28  O   UNL     1       8.191   0.856  21.112  0.00  0.00    -0.274 OA
BRANCH  25  29
ATOM     29  C   UNL     1       8.996  -1.339  21.840  0.00  0.00    +0.142 C 
BRANCH  29  30
ATOM     30  N   UNL     1      10.320  -1.776  22.346  0.00  0.00    -0.320 NA
ATOM     31  H   UNL     1      10.186  -2.298  23.213  0.00  0.00    +0.119 HD
ATOM     32  H   UNL     1      10.691  -2.464  21.685  0.00  0.00    +0.119 HD
ENDBRANCH  29  30
BRANCH  29  33
ATOM     33  C   UNL     1       7.879  -1.773  22.805  0.00  0.00    +0.063 C 
BRANCH  33  34
ATOM     34  C   UNL     1       7.445  -3.214  22.627  0.00  0.00    -0.045 A 
ATOM     35  C   UNL     1       8.077  -4.240  23.346  0.00  0.00    +0.004 A 
ATOM     36  C   UNL     1       7.674  -5.567  23.197  0.00  0.00    +0.000 A 
ATOM     37  C   UNL     1       6.643  -5.888  22.321  0.00  0.00    +0.000 A 
ATOM     38  C   UNL     1       6.011  -4.880  21.594  0.00  0.00    +0.000 A 
ATOM     39  C   UNL     1       6.406  -3.549  21.749  0.00  0.00    +0.004 A 
ENDBRANCH  33  34
ENDBRANCH  29  33
ENDBRANCH  25  29
ENDBRANCH  24  26
ENDBRANCH  23  24
ENDBRANCH  22  23
ENDBRANCH  21  22
ENDBRANCH   1  21
TORSDOF 16
ENDMDL
MODEL 9
REMARK VINA RESULT:      -6.3      2.185      3.415
REMARK  Name = 
REMARK  16 active torsions:
REMARK  status: ('A' for Active; 'I' for Inactive)
REMARK    1  A    between atoms: C_2  and  N_3
REMARK    2  A    between atoms: C_2  and  C_4
REMARK    3  A    between atoms: C_2  and  C_11
REMARK    4  A    between atoms: C_4  and  C_5
REMARK    5  A    between atoms: N_13  and  C_14
REMARK    6  A    between atoms: C_14  and  C_15
REMARK    7  A    between atoms: C_15  and  O_16
REMARK    8  A    between atoms: O_16  and  C_17
REMARK    9  A    between atoms: C_17  and  C_18
REMARK   10  A    between atoms: C_18  and  O_19
REMARK   11  A    between atoms: O_19  and  C_20
REMARK   12  A    between atoms: C_20  and  C_21
REMARK   13  A    between atoms: C_21  and  N_22
REMARK   14  A    between atoms: C_23  and  C_25
REMARK   15  A    between atoms: C_28  and  S_31
REMARK   16  A    between atoms: S_31  and  N_32
REMARK                            x       y       z     vdW  Elec       q    Type
REMARK                         _______ _______ _______ _____ _____    ______ ____
ROOT
ATOM      1  C   UNL     1       2.478  -4.707  27.946  0.00  0.00    +0.188 C 
ENDROOT
BRANCH   1   2
ATOM      2  O   UNL     1       3.526  -3.734  27.846  0.00  0.00    -0.376 OA
BRANCH   2   3
ATOM      3  C   UNL     1       3.348  -2.789  26.791  0.00  0.00    +0.178 C 
BRANCH   3   4
ATOM      4  C   UNL     1       4.323  -3.037  25.642  0.00  0.00    +0.132 C 
BRANCH   4   5
ATOM      5  N   UNL     1       5.089  -1.869  25.301  0.00  0.00    -0.309 N 
ATOM      6  H   UNL     1       4.784  -1.336  24.498  0.00  0.00    +0.149 HD
ATOM      7  C   UNL     1       6.324  -1.628  25.866  0.00  0.00    +0.244 C 
ATOM      8  O   UNL     1       6.847  -2.342  26.716  0.00  0.00    -0.270 OA
BRANCH   7   9
ATOM      9  C   UNL     1       7.024  -0.453  25.299  0.00  0.00    +0.037 A 
ATOM     10  C   UNL     1       8.271  -0.087  25.811  0.00  0.00    +0.015 A 
ATOM     11  C   UNL     1       9.001   0.929  25.179  0.00  0.00    +0.029 A 
ATOM     12  C   UNL     1       8.460   1.568  24.056  0.00  0.00    +0.105 A 
ATOM     13  C   UNL     1       7.192   1.230  23.574  0.00  0.00    +0.029 A 
ATOM     14  C   UNL     1       6.468   0.230  24.207  0.00  0.00    +0.015 A 
BRANCH  12  15
ATOM     15  S   UNL     1       9.410   2.761  23.161  0.00  0.00    +0.056 S 
ATOM     16  O   UNL     1      10.764   2.745  23.663  0.00  0.00    -0.153 OA
ATOM     17  O   UNL     1       8.644   3.977  23.027  0.00  0.00    -0.153 OA
BRANCH  15  18
ATOM     18  N   UNL     1       9.469   2.070  21.636  0.00  0.00    -0.204 NA
ATOM     19  H   UNL     1      10.298   1.481  21.556  0.00  0.00    +0.144 HD
ATOM     20  H   UNL     1       9.405   2.799  20.927  0.00  0.00    +0.144 HD
ENDBRANCH  15  18
ENDBRANCH  12  15
ENDBRANCH   7   9
ENDBRANCH   4   5
ENDBRANCH   3   4
ENDBRANCH   2   3
ENDBRANCH   1   2
BRANCH   1  21
ATOM     21  C   UNL     1       2.667  -5.897  26.997  0.00  0.00    +0.188 C 
BRANCH  21  22
ATOM     22  O   UNL     1       3.764  -6.745  27.363  0.00  0.00    -0.376 OA
BRANCH  22  23
ATOM     23  C   UNL     1       4.835  -6.766  26.419  0.00  0.00    +0.178 C 
BRANCH  23  24
ATOM     24  C   UNL     1       4.328  -6.703  24.978  0.00  0.00    +0.132 C 
BRANCH  24  26
ATOM     25  C   UNL     1       4.955  -5.452  22.965  0.00  0.00    +0.230 C 
ATOM     26  N   UNL     1       5.321  -6.233  24.045  0.00  0.00    -0.312 N 
ATOM     27  H   UNL     1       6.293  -6.464  24.203  0.00  0.00    +0.149 HD
ATOM     28  O   UNL     1       3.783  -5.256  22.653  0.00  0.00    -0.274 OA
BRANCH  25  29
ATOM     29  C   UNL     1       6.160  -4.980  22.132  0.00  0.00    +0.142 C 
BRANCH  29  30
ATOM     30  N   UNL     1       5.926  -5.424  20.736  0.00  0.00    -0.320 NA
ATOM     31  H   UNL     1       6.778  -5.273  20.195  0.00  0.00    +0.119 HD
ATOM     32  H   UNL     1       5.806  -6.440  20.751  0.00  0.00    +0.119 HD
ENDBRANCH  29  30
BRANCH  29  33
ATOM     33  C   UNL     1       6.344  -3.453  22.190  0.00  0.00    +0.063 C 
BRANCH  33  34
ATOM     34  C   UNL     1       7.715  -3.022  22.673  0.00  0.00    -0.045 A 
ATOM     35  C   UNL     1       8.415  -2.005  22.007  0.00  0.00    +0.004 A 
ATOM     36  C   UNL     1       9.670  -1.594  22.453  0.00  0.00    +0.000 A 
ATOM     37  C   UNL     1      10.248  -2.200  23.564  0.00  0.00    +0.000 A 
ATOM     38  C   UNL     1       9.567  -3.218  24.231  0.00  0.00    +0.000 A 
ATOM     39  C   UNL     1       8.304  -3.624  23.792  0.00  0.00    +0.004 A 
ENDBRANCH  33  34
ENDBRANCH  29  33
ENDBRANCH  25  29
ENDBRANCH  24  26
ENDBRANCH  23  24
ENDBRANCH  22  23
ENDBRANCH  21  22
ENDBRANCH   1  21
TORSDOF 16
ENDMDL
