MODEL 1
REMARK VINA RESULT:      -7.1      0.000      0.000
REMARK  Name = 
REMARK  5 active torsions:
REMARK  status: ('A' for Active; 'I' for Inactive)
REMARK    1  A    between atoms: C_5  and  N_6
REMARK    2  A    between atoms: C_7  and  C_9
REMARK    3  A    between atoms: C_10  and  N_11
REMARK    4  A    between atoms: N_11  and  C_12
REMARK    5  A    between atoms: C_12  and  C_13
REMARK                            x       y       z     vdW  Elec       q    Type
REMARK                         _______ _______ _______ _____ _____    ______ ____
ROOT
ATOM      1  C   UNL     1       7.792  -4.593  23.902  0.00  0.00    +0.058 A 
ATOM      2  C   UNL     1       6.712  -5.351  23.404  0.00  0.00    +0.015 A 
ATOM      3  C   UNL     1       5.901  -4.866  22.378  0.00  0.00    +0.001 A 
ATOM      4  C   UNL     1       6.192  -3.639  21.803  0.00  0.00    +0.002 A 
ATOM      5  C   UNL     1       7.236  -2.864  22.307  0.00  0.00    +0.024 A 
ATOM      6  C   UNL     1       7.986  -3.269  23.424  0.00  0.00    +0.040 A 
ENDROOT
BRANCH   1   9
ATOM      7  N   UNL     1       7.978  -5.613  26.237  0.00  0.00    -0.281 N 
ATOM      8  H   UNL     1       8.517  -6.334  26.701  0.00  0.00    +0.155 HD
ATOM      9  C   UNL     1       8.548  -5.238  25.032  0.00  0.00    +0.250 C 
ATOM     10  O   UNL     1       9.732  -5.531  24.848  0.00  0.00    -0.270 OA
BRANCH   7  15
ATOM     11 CL   UNL     1       2.493  -4.182  27.825  0.00  0.00    -0.084 Cl
ATOM     12  C   UNL     1       4.125  -4.618  27.498  0.00  0.00    +0.041 A 
ATOM     13  C   UNL     1       5.135  -3.663  27.614  0.00  0.00    +0.022 A 
ATOM     14  C   UNL     1       6.446  -3.989  27.247  0.00  0.00    +0.025 A 
ATOM     15  C   UNL     1       6.739  -5.279  26.800  0.00  0.00    +0.034 A 
ATOM     16  C   UNL     1       5.740  -6.261  26.783  0.00  0.00    +0.025 A 
ATOM     17  C   UNL     1       4.422  -5.916  27.087  0.00  0.00    +0.022 A 
ENDBRANCH   7  15
ENDBRANCH   1   9
BRANCH   6  18
ATOM     18  N   UNL     1       8.936  -2.429  23.987  0.00  0.00    -0.339 N 
ATOM     19  H   UNL     1       8.492  -1.653  24.472  0.00  0.00    +0.146 HD
BRANCH  18  20
ATOM     20  C   UNL     1      10.183  -2.009  23.381  0.00  0.00    +0.137 C 
BRANCH  20  21
ATOM     21  C   UNL     1      10.137  -0.509  23.229  0.00  0.00    -0.028 A 
ATOM     22  C   UNL     1      10.570   0.310  24.273  0.00  0.00    +0.025 A 
ATOM     23  C   UNL     1      10.627   1.676  24.065  0.00  0.00    +0.111 A 
ATOM     24  N   UNL     1      10.284   2.272  22.900  0.00  0.00    -0.263 NA
ATOM     25  C   UNL     1       9.877   1.460  21.901  0.00  0.00    +0.111 A 
ATOM     26  C   UNL     1       9.788   0.086  22.010  0.00  0.00    +0.025 A 
ENDBRANCH  20  21
ENDBRANCH  18  20
ENDBRANCH   6  18
TORSDOF 5
ENDMDL
MODEL 2
REMARK VINA RESULT:      -6.8      2.042      2.983
REMARK  Name = 
REMARK  5 active torsions:
REMARK  status: ('A' for Active; 'I' for Inactive)
REMARK    1  A    between atoms: C_5  and  N_6
REMARK    2  A    between atoms: C_7  and  C_9
REMARK    3  A    between atoms: C_10  and  N_11
REMARK    4  A    between atoms: N_11  and  C_12
REMARK    5  A    between atoms: C_12  and  C_13
REMARK                            x       y       z     vdW  Elec       q    Type
REMARK                         _______ _______ _______ _____ _____    ______ ____
ROOT
ATOM      1  C   UNL     1       7.888  -2.384  24.531  0.00  0.00    +0.058 A 
ATOM      2  C   UNL     1       7.505  -2.112  25.861  0.00  0.00    +0.015 A 
ATOM      3  C   UNL     1       6.770  -0.972  26.183  0.00  0.00    +0.001 A 
ATOM      4  C   UNL     1       6.364  -0.115  25.171  0.00  0.00    +0.002 A 
ATOM      5  C   UNL     1       6.763  -0.354  23.856  0.00  0.00    +0.024 A 
ATOM      6  C   UNL     1       7.613  -1.422  23.523  0.00  0.00    +0.040 A 
ENDROOT
BRANCH   1   9
ATOM      7  N   UNL     1       8.173  -4.899  24.188  0.00  0.00    -0.281 N 
ATOM      8  H   UNL     1       8.821  -5.527  23.728  0.00  0.00    +0.155 HD
ATOM      9  C   UNL     1       8.708  -3.633  24.353  0.00  0.00    +0.250 C 
ATOM     10  O   UNL     1       9.932  -3.518  24.262  0.00  0.00    -0.270 OA
BRANCH   7  15
ATOM     11 CL   UNL     1       3.058  -7.616  25.244  0.00  0.00    -0.084 Cl
ATOM     12  C   UNL     1       4.480  -6.701  24.929  0.00  0.00    +0.041 A 
ATOM     13  C   UNL     1       4.804  -6.351  23.617  0.00  0.00    +0.022 A 
ATOM     14  C   UNL     1       6.013  -5.699  23.349  0.00  0.00    +0.025 A 
ATOM     15  C   UNL     1       6.871  -5.372  24.402  0.00  0.00    +0.034 A 
ATOM     16  C   UNL     1       6.493  -5.635  25.725  0.00  0.00    +0.025 A 
ATOM     17  C   UNL     1       5.317  -6.344  25.983  0.00  0.00    +0.022 A 
ENDBRANCH   7  15
ENDBRANCH   1   9
BRANCH   6  18
ATOM     18  N   UNL     1       8.100  -1.569  22.232  0.00  0.00    -0.339 N 
ATOM     19  H   UNL     1       7.728  -2.410  21.797  0.00  0.00    +0.146 HD
BRANCH  18  20
ATOM     20  C   UNL     1       9.457  -1.320  21.789  0.00  0.00    +0.137 C 
BRANCH  20  21
ATOM     21  C   UNL     1       9.924  -0.040  22.438  0.00  0.00    -0.028 A 
ATOM     22  C   UNL     1       9.603   1.190  21.862  0.00  0.00    +0.025 A 
ATOM     23  C   UNL     1       9.942   2.348  22.537  0.00  0.00    +0.111 A 
ATOM     24  N   UNL     1      10.575   2.360  23.733  0.00  0.00    -0.263 NA
ATOM     25  C   UNL     1      10.867   1.160  24.276  0.00  0.00    +0.111 A 
ATOM     26  C   UNL     1      10.568  -0.050  23.682  0.00  0.00    +0.025 A 
ENDBRANCH  20  21
ENDBRANCH  18  20
ENDBRANCH   6  18
TORSDOF 5
ENDMDL
MODEL 3
REMARK VINA RESULT:      -6.8      1.702      2.117
REMARK  Name = 
REMARK  5 active torsions:
REMARK  status: ('A' for Active; 'I' for Inactive)
REMARK    1  A    between atoms: C_5  and  N_6
REMARK    2  A    between atoms: C_7  and  C_9
REMARK    3  A    between atoms: C_10  and  N_11
REMARK    4  A    between atoms: N_11  and  C_12
REMARK    5  A    between atoms: C_12  and  C_13
REMARK                            x       y       z     vdW  Elec       q    Type
REMARK                         _______ _______ _______ _____ _____    ______ ____
ROOT
ATOM      1  C   UNL     1       7.913  -4.080  23.622  0.00  0.00    +0.058 A 
ATOM      2  C   UNL     1       7.265  -5.321  23.796  0.00  0.00    +0.015 A 
ATOM      3  C   UNL     1       6.253  -5.736  22.931  0.00  0.00    +0.001 A 
ATOM      4  C   UNL     1       5.912  -4.937  21.850  0.00  0.00    +0.002 A 
ATOM      5  C   UNL     1       6.521  -3.693  21.684  0.00  0.00    +0.024 A 
ATOM      6  C   UNL     1       7.449  -3.194  22.614  0.00  0.00    +0.040 A 
ENDROOT
BRANCH   1   9
ATOM      7  N   UNL     1       8.689  -3.158  25.875  0.00  0.00    -0.281 N 
ATOM      8  H   UNL     1       9.406  -3.357  26.561  0.00  0.00    +0.155 HD
ATOM      9  C   UNL     1       8.957  -3.762  24.658  0.00  0.00    +0.250 C 
ATOM     10  O   UNL     1      10.114  -4.137  24.453  0.00  0.00    -0.270 OA
BRANCH   7  15
ATOM     11 CL   UNL     1       3.504  -0.652  27.097  0.00  0.00    -0.084 Cl
ATOM     12  C   UNL     1       5.065  -1.337  26.864  0.00  0.00    +0.041 A 
ATOM     13  C   UNL     1       6.111  -0.539  26.400  0.00  0.00    +0.022 A 
ATOM     14  C   UNL     1       7.352  -1.117  26.112  0.00  0.00    +0.025 A 
ATOM     15  C   UNL     1       7.545  -2.485  26.323  0.00  0.00    +0.034 A 
ATOM     16  C   UNL     1       6.522  -3.260  26.884  0.00  0.00    +0.025 A 
ATOM     17  C   UNL     1       5.265  -2.694  27.110  0.00  0.00    +0.022 A 
ENDBRANCH   7  15
ENDBRANCH   1   9
BRANCH   6  18
ATOM     18  N   UNL     1       7.948  -1.904  22.499  0.00  0.00    -0.339 N 
ATOM     19  H   UNL     1       7.213  -1.253  22.234  0.00  0.00    +0.146 HD
BRANCH  18  20
ATOM     20  C   UNL     1       9.213  -1.519  21.906  0.00  0.00    +0.137 C 
BRANCH  20  21
ATOM     21  C   UNL     1       9.673  -0.254  22.587  0.00  0.00    -0.028 A 
ATOM     22  C   UNL     1      10.235  -0.315  23.864  0.00  0.00    +0.025 A 
ATOM     23  C   UNL     1      10.754   0.841  24.417  0.00  0.00    +0.111 A 
ATOM     24  N   UNL     1      10.748   2.040  23.790  0.00  0.00    -0.263 NA
ATOM     25  C   UNL     1      10.208   2.074  22.553  0.00  0.00    +0.111 A 
ATOM     26  C   UNL     1       9.667   0.975  21.915  0.00  0.00    +0.025 A 
ENDBRANCH  20  21
ENDBRANCH  18  20
ENDBRANCH   6  18
TORSDOF 5
ENDMDL
MODEL 4
REMARK VINA RESULT:      -6.8      2.930      6.570
REMARK  Name = 
REMARK  5 active torsions:
REMARK  status: ('A' for Active; 'I' for Inactive)
REMARK    1  A    between atoms: C_5  and  N_6
REMARK    2  A    between atoms: C_7  and  C_9
REMARK    3  A    between atoms: C_10  and  N_11
REMARK    4  A    between atoms: N_11  and  C_12
REMARK    5  A    between atoms: C_12  and  C_13
REMARK                            x       y       z     vdW  Elec       q    Type
REMARK                         _______ _______ _______ _____ _____    ______ ____
ROOT
ATOM      1  C   UNL     1       7.498  -4.632  23.769  0.00  0.00    +0.058 A 
ATOM      2  C   UNL     1       7.723  -5.650  22.818  0.00  0.00    +0.015 A 
ATOM      3  C   UNL     1       6.760  -5.972  21.862  0.00  0.00    +0.001 A 
ATOM      4  C   UNL     1       5.581  -5.244  21.812  0.00  0.00    +0.002 A 
ATOM      5  C   UNL     1       5.332  -4.257  22.765  0.00  0.00    +0.024 A 
ATOM      6  C   UNL     1       6.226  -4.002  23.818  0.00  0.00    +0.040 A 
ENDROOT
BRANCH   1   9
ATOM      7  N   UNL     1       9.272  -3.227  24.954  0.00  0.00    -0.281 N 
ATOM      8  H   UNL     1       9.708  -3.181  25.867  0.00  0.00    +0.155 HD
ATOM      9  C   UNL     1       8.618  -4.430  24.754  0.00  0.00    +0.250 C 
ATOM     10  O   UNL     1       8.919  -5.370  25.494  0.00  0.00    -0.270 OA
BRANCH   7  15
ATOM     11 CL   UNL     1      10.101   1.748  21.916  0.00  0.00    -0.084 Cl
ATOM     12  C   UNL     1       9.729   0.288  22.749  0.00  0.00    +0.041 A 
ATOM     13  C   UNL     1       9.003   0.334  23.939  0.00  0.00    +0.022 A 
ATOM     14  C   UNL     1       8.790  -0.840  24.670  0.00  0.00    +0.025 A 
ATOM     15  C   UNL     1       9.278  -2.056  24.184  0.00  0.00    +0.034 A 
ATOM     16  C   UNL     1       9.918  -2.109  22.939  0.00  0.00    +0.025 A 
ATOM     17  C   UNL     1      10.185  -0.927  22.244  0.00  0.00    +0.022 A 
ENDBRANCH   7  15
ENDBRANCH   1   9
BRANCH   6  18
ATOM     18  N   UNL     1       5.903  -3.105  24.826  0.00  0.00    -0.339 N 
ATOM     19  H   UNL     1       6.739  -2.664  25.202  0.00  0.00    +0.146 HD
BRANCH  18  20
ATOM     20  C   UNL     1       4.914  -3.299  25.867  0.00  0.00    +0.137 C 
BRANCH  20  21
ATOM     21  C   UNL     1       5.218  -4.609  26.551  0.00  0.00    -0.028 A 
ATOM     22  C   UNL     1       6.160  -4.655  27.581  0.00  0.00    +0.025 A 
ATOM     23  C   UNL     1       6.334  -5.843  28.268  0.00  0.00    +0.111 A 
ATOM     24  N   UNL     1       5.642  -6.973  27.998  0.00  0.00    -0.263 NA
ATOM     25  C   UNL     1       4.730  -6.904  27.005  0.00  0.00    +0.111 A 
ATOM     26  C   UNL     1       4.482  -5.766  26.264  0.00  0.00    +0.025 A 
ENDBRANCH  20  21
ENDBRANCH  18  20
ENDBRANCH   6  18
TORSDOF 5
ENDMDL
MODEL 5
REMARK VINA RESULT:      -6.8      3.100      7.242
REMARK  Name = 
REMARK  5 active torsions:
REMARK  status: ('A' for Active; 'I' for Inactive)
REMARK    1  A    between atoms: C_5  and  N_6
REMARK    2  A    between atoms: C_7  and  C_9
REMARK    3  A    between atoms: C_10  and  N_11
REMARK    4  A    between atoms: N_11  and  C_12
REMARK    5  A    between atoms: C_12  and  C_13
REMARK                            x       y       z     vdW  Elec       q    Type
REMARK                         _______ _______ _______ _____ _____    ______ ____
ROOT
ATOM      1  C   UNL     1       7.763  -2.163  24.513  0.00  0.00    +0.058 A 
ATOM      2  C   UNL     1       6.723  -1.393  23.950  0.00  0.00    +0.015 A 
ATOM      3  C   UNL     1       5.721  -0.840  24.746  0.00  0.00    +0.001 A 
ATOM      4  C   UNL     1       5.773  -1.009  26.121  0.00  0.00    +0.002 A 
ATOM      5  C   UNL     1       6.775  -1.795  26.688  0.00  0.00    +0.024 A 
ATOM      6  C   UNL     1       7.721  -2.470  25.899  0.00  0.00    +0.040 A 
ENDROOT
BRANCH   1   9
ATOM      7  N   UNL     1       9.817  -2.009  23.003  0.00  0.00    -0.281 N 
ATOM      8  H   UNL     1      10.548  -2.623  22.663  0.00  0.00    +0.155 HD
ATOM      9  C   UNL     1       8.746  -2.719  23.519  0.00  0.00    +0.250 C 
ATOM     10  O   UNL     1       8.649  -3.907  23.205  0.00  0.00    -0.270 OA
BRANCH   7  15
ATOM     11 CL   UNL     1      10.290   3.833  23.553  0.00  0.00    -0.084 Cl
ATOM     12  C   UNL     1      10.281   2.126  23.335  0.00  0.00    +0.041 A 
ATOM     13  C   UNL     1       9.957   1.586  22.090  0.00  0.00    +0.022 A 
ATOM     14  C   UNL     1       9.847   0.200  21.941  0.00  0.00    +0.025 A 
ATOM     15  C   UNL     1      10.098  -0.637  23.031  0.00  0.00    +0.034 A 
ATOM     16  C   UNL     1      10.521  -0.093  24.251  0.00  0.00    +0.025 A 
ATOM     17  C   UNL     1      10.567   1.293  24.415  0.00  0.00    +0.022 A 
ENDBRANCH   7  15
ENDBRANCH   1   9
BRANCH   6  18
ATOM     18  N   UNL     1       8.632  -3.347  26.472  0.00  0.00    -0.339 N 
ATOM     19  H   UNL     1       9.577  -2.977  26.415  0.00  0.00    +0.146 HD
BRANCH  18  20
ATOM     20  C   UNL     1       8.637  -4.790  26.343  0.00  0.00    +0.137 C 
BRANCH  20  21
ATOM     21  C   UNL     1       7.223  -5.275  26.550  0.00  0.00    -0.028 A 
ATOM     22  C   UNL     1       6.432  -5.606  25.448  0.00  0.00    +0.025 A 
ATOM     23  C   UNL     1       5.183  -6.157  25.669  0.00  0.00    +0.111 A 
ATOM     24  N   UNL     1       4.676  -6.395  26.901  0.00  0.00    -0.263 NA
ATOM     25  C   UNL     1       5.462  -6.076  27.952  0.00  0.00    +0.111 A 
ATOM     26  C   UNL     1       6.722  -5.524  27.834  0.00  0.00    +0.025 A 
ENDBRANCH  20  21
ENDBRANCH  18  20
ENDBRANCH   6  18
TORSDOF 5
ENDMDL
MODEL 6
REMARK VINA RESULT:      -6.7      2.871      5.457
REMARK  Name = 
REMARK  5 active torsions:
REMARK  status: ('A' for Active; 'I' for Inactive)
REMARK    1  A    between atoms: C_5  and  N_6
REMARK    2  A    between atoms: C_7  and  C_9
REMARK    3  A    between atoms: C_10  and  N_11
REMARK    4  A    between atoms: N_11  and  C_12
REMARK    5  A    between atoms: C_12  and  C_13
REMARK                            x       y       z     vdW  Elec       q    Type
REMARK                         _______ _______ _______ _____ _____    ______ ____
ROOT
ATOM      1  C   UNL     1       7.521  -5.020  23.763  0.00  0.00    +0.058 A 
ATOM      2  C   UNL     1       7.540  -5.435  22.415  0.00  0.00    +0.015 A 
ATOM      3  C   UNL     1       6.372  -5.832  21.765  0.00  0.00    +0.001 A 
ATOM      4  C   UNL     1       5.162  -5.770  22.439  0.00  0.00    +0.002 A 
ATOM      5  C   UNL     1       5.133  -5.392  23.782  0.00  0.00    +0.024 A 
ATOM      6  C   UNL     1       6.309  -5.113  24.498  0.00  0.00    +0.040 A 
ENDROOT
BRANCH   1   9
ATOM      7  N   UNL     1       9.442  -3.401  24.231  0.00  0.00    -0.281 N 
ATOM      8  H   UNL     1      10.132  -3.244  24.955  0.00  0.00    +0.155 HD
ATOM      9  C   UNL     1       8.867  -4.657  24.331  0.00  0.00    +0.250 C 
ATOM     10  O   UNL     1       9.463  -5.502  25.002  0.00  0.00    -0.270 OA
BRANCH   7  15
ATOM     11 CL   UNL     1       8.400   1.654  21.399  0.00  0.00    -0.084 Cl
ATOM     12  C   UNL     1       8.655   0.109  22.113  0.00  0.00    +0.041 A 
ATOM     13  C   UNL     1       7.592  -0.559  22.720  0.00  0.00    +0.022 A 
ATOM     14  C   UNL     1       7.821  -1.766  23.391  0.00  0.00    +0.025 A 
ATOM     15  C   UNL     1       9.107  -2.309  23.419  0.00  0.00    +0.034 A 
ATOM     16  C   UNL     1      10.149  -1.685  22.721  0.00  0.00    +0.025 A 
ATOM     17  C   UNL     1       9.932  -0.449  22.108  0.00  0.00    +0.022 A 
ENDBRANCH   7  15
ENDBRANCH   1   9
BRANCH   6  18
ATOM     18  N   UNL     1       6.270  -4.863  25.862  0.00  0.00    -0.339 N 
ATOM     19  H   UNL     1       6.439  -5.714  26.392  0.00  0.00    +0.146 HD
BRANCH  18  20
ATOM     20  C   UNL     1       5.330  -4.006  26.554  0.00  0.00    +0.137 C 
BRANCH  20  21
ATOM     21  C   UNL     1       5.798  -2.581  26.387  0.00  0.00    -0.028 A 
ATOM     22  C   UNL     1       4.928  -1.618  25.872  0.00  0.00    +0.025 A 
ATOM     23  C   UNL     1       5.342  -0.299  25.838  0.00  0.00    +0.111 A 
ATOM     24  N   UNL     1       6.552   0.117  26.277  0.00  0.00    -0.263 NA
ATOM     25  C   UNL     1       7.373  -0.828  26.780  0.00  0.00    +0.111 A 
ATOM     26  C   UNL     1       7.051  -2.169  26.858  0.00  0.00    +0.025 A 
ENDBRANCH  20  21
ENDBRANCH  18  20
ENDBRANCH   6  18
TORSDOF 5
ENDMDL
MODEL 7
REMARK VINA RESULT:      -6.7      2.853      5.574
REMARK  Name = 
REMARK  5 active torsions:
REMARK  status: ('A' for Active; 'I' for Inactive)
REMARK    1  A    between atoms: C_5  and  N_6
REMARK    2  A    between atoms: C_7  and  C_9
REMARK    3  A    between atoms: C_10  and  N_11
REMARK    4  A    between atoms: N_11  and  C_12
REMARK    5  A    between atoms: C_12  and  C_13
REMARK                            x       y       z     vdW  Elec       q    Type
REMARK                         _______ _______ _______ _____ _____    ______ ____
ROOT
ATOM      1  C   UNL     1       7.500   0.352  23.502  0.00  0.00    +0.058 A 
ATOM      2  C   UNL     1       7.184   1.389  22.600  0.00  0.00    +0.015 A 
ATOM      3  C   UNL     1       8.078   1.779  21.604  0.00  0.00    +0.001 A 
ATOM      4  C   UNL     1       9.279   1.102  21.464  0.00  0.00    +0.002 A 
ATOM      5  C   UNL     1       9.620   0.096  22.367  0.00  0.00    +0.024 A 
ATOM      6  C   UNL     1       8.796  -0.228  23.459  0.00  0.00    +0.040 A 
ENDROOT
BRANCH   1   9
ATOM      7  N   UNL     1       5.773  -1.129  24.663  0.00  0.00    -0.281 N 
ATOM      8  H   UNL     1       5.400  -1.259  25.596  0.00  0.00    +0.155 HD
ATOM      9  C   UNL     1       6.447   0.074  24.540  0.00  0.00    +0.250 C 
ATOM     10  O   UNL     1       6.227   0.938  25.392  0.00  0.00    -0.270 OA
BRANCH   7  15
ATOM     11 CL   UNL     1       5.913  -6.065  21.459  0.00  0.00    -0.084 Cl
ATOM     12  C   UNL     1       5.768  -4.578  22.311  0.00  0.00    +0.041 A 
ATOM     13  C   UNL     1       6.392  -3.431  21.818  0.00  0.00    +0.022 A 
ATOM     14  C   UNL     1       6.363  -2.248  22.564  0.00  0.00    +0.025 A 
ATOM     15  C   UNL     1       5.678  -2.213  23.781  0.00  0.00    +0.034 A 
ATOM     16  C   UNL     1       4.969  -3.339  24.221  0.00  0.00    +0.025 A 
ATOM     17  C   UNL     1       5.055  -4.536  23.507  0.00  0.00    +0.022 A 
ENDBRANCH   7  15
ENDBRANCH   1   9
BRANCH   6  18
ATOM     18  N   UNL     1       9.211  -1.142  24.417  0.00  0.00    -0.339 N 
ATOM     19  H   UNL     1       9.727  -0.680  25.161  0.00  0.00    +0.146 HD
BRANCH  18  20
ATOM     20  C   UNL     1       9.743  -2.467  24.171  0.00  0.00    +0.137 C 
BRANCH  20  21
ATOM     21  C   UNL     1       8.972  -3.439  25.030  0.00  0.00    -0.028 A 
ATOM     22  C   UNL     1       8.331  -2.990  26.186  0.00  0.00    +0.025 A 
ATOM     23  C   UNL     1       7.535  -3.875  26.890  0.00  0.00    +0.111 A 
ATOM     24  N   UNL     1       7.340  -5.162  26.523  0.00  0.00    -0.263 NA
ATOM     25  C   UNL     1       7.961  -5.573  25.397  0.00  0.00    +0.111 A 
ATOM     26  C   UNL     1       8.773  -4.765  24.625  0.00  0.00    +0.025 A 
ENDBRANCH  20  21
ENDBRANCH  18  20
ENDBRANCH   6  18
TORSDOF 5
ENDMDL
MODEL 8
REMARK VINA RESULT:      -6.7      3.239      7.311
REMARK  Name = 
REMARK  5 active torsions:
REMARK  status: ('A' for Active; 'I' for Inactive)
REMARK    1  A    between atoms: C_5  and  N_6
REMARK    2  A    between atoms: C_7  and  C_9
REMARK    3  A    between atoms: C_10  and  N_11
REMARK    4  A    between atoms: N_11  and  C_12
REMARK    5  A    between atoms: C_12  and  C_13
REMARK                            x       y       z     vdW  Elec       q    Type
REMARK                         _______ _______ _______ _____ _____    ______ ____
ROOT
ATOM      1  C   UNL     1       9.585  -1.153  24.128  0.00  0.00    +0.058 A 
ATOM      2  C   UNL     1       9.566   0.005  24.933  0.00  0.00    +0.015 A 
ATOM      3  C   UNL     1       9.004  -0.011  26.209  0.00  0.00    +0.001 A 
ATOM      4  C   UNL     1       8.499  -1.199  26.716  0.00  0.00    +0.002 A 
ATOM      5  C   UNL     1       8.482  -2.343  25.920  0.00  0.00    +0.024 A 
ATOM      6  C   UNL     1       8.922  -2.323  24.585  0.00  0.00    +0.040 A 
ENDROOT
BRANCH   1   9
ATOM      7  N   UNL     1      10.112   0.207  22.031  0.00  0.00    -0.281 N 
ATOM      8  H   UNL     1      10.857   0.277  21.348  0.00  0.00    +0.155 HD
ATOM      9  C   UNL     1      10.193  -0.964  22.765  0.00  0.00    +0.250 C 
ATOM     10  O   UNL     1      10.882  -1.877  22.303  0.00  0.00    -0.270 OA
BRANCH   7  15
ATOM     11 CL   UNL     1       6.662   4.733  23.538  0.00  0.00    -0.084 Cl
ATOM     12  C   UNL     1       7.676   3.465  22.968  0.00  0.00    +0.041 A 
ATOM     13  C   UNL     1       7.118   2.388  22.277  0.00  0.00    +0.022 A 
ATOM     14  C   UNL     1       7.926   1.308  21.905  0.00  0.00    +0.025 A 
ATOM     15  C   UNL     1       9.291   1.330  22.198  0.00  0.00    +0.034 A 
ATOM     16  C   UNL     1       9.862   2.458  22.801  0.00  0.00    +0.025 A 
ATOM     17  C   UNL     1       9.043   3.506  23.229  0.00  0.00    +0.022 A 
ENDBRANCH   7  15
ENDBRANCH   1   9
BRANCH   6  18
ATOM     18  N   UNL     1       8.780  -3.438  23.771  0.00  0.00    -0.339 N 
ATOM     19  H   UNL     1       8.308  -3.196  22.904  0.00  0.00    +0.146 HD
BRANCH  18  20
ATOM     20  C   UNL     1       8.418  -4.775  24.196  0.00  0.00    +0.137 C 
BRANCH  20  21
ATOM     21  C   UNL     1       7.171  -5.173  23.447  0.00  0.00    -0.028 A 
ATOM     22  C   UNL     1       5.914  -4.905  23.993  0.00  0.00    +0.025 A 
ATOM     23  C   UNL     1       4.789  -5.174  23.235  0.00  0.00    +0.111 A 
ATOM     24  N   UNL     1       4.834  -5.688  21.985  0.00  0.00    -0.263 NA
ATOM     25  C   UNL     1       6.059  -5.930  21.472  0.00  0.00    +0.111 A 
ATOM     26  C   UNL     1       7.240  -5.694  22.148  0.00  0.00    +0.025 A 
ENDBRANCH  20  21
ENDBRANCH  18  20
ENDBRANCH   6  18
TORSDOF 5
ENDMDL
MODEL 9
REMARK VINA RESULT:      -6.7      2.801      5.862
REMARK  Name = 
REMARK  5 active torsions:
REMARK  status: ('A' for Active; 'I' for Inactive)
REMARK    1  A    between atoms: C_5  and  N_6
REMARK    2  A    between atoms: C_7  and  C_9
REMARK    3  A    between atoms: C_10  and  N_11
REMARK    4  A    between atoms: N_11  and  C_12
REMARK    5  A    between atoms: C_12  and  C_13
REMARK                            x       y       z     vdW  Elec       q    Type
REMARK                         _______ _______ _______ _____ _____    ______ ____
ROOT
ATOM      1  C   UNL     1       8.908   0.416  23.496  0.00  0.00    +0.058 A 
ATOM      2  C   UNL     1       9.371   0.881  22.246  0.00  0.00    +0.015 A 
ATOM      3  C   UNL     1       8.556   1.645  21.413  0.00  0.00    +0.001 A 
ATOM      4  C   UNL     1       7.285   1.998  21.840  0.00  0.00    +0.002 A 
ATOM      5  C   UNL     1       6.802   1.520  23.057  0.00  0.00    +0.024 A 
ATOM      6  C   UNL     1       7.553   0.641  23.857  0.00  0.00    +0.040 A 
ENDROOT
BRANCH   1   9
ATOM      7  N   UNL     1       9.906  -1.810  24.255  0.00  0.00    -0.281 N 
ATOM      8  H   UNL     1      10.816  -2.180  24.502  0.00  0.00    +0.155 HD
ATOM      9  C   UNL     1       9.894  -0.425  24.261  0.00  0.00    +0.250 C 
ATOM     10  O   UNL     1      10.802   0.148  24.866  0.00  0.00    -0.270 OA
BRANCH   7  15
ATOM     11 CL   UNL     1       6.489  -6.103  22.123  0.00  0.00    -0.084 Cl
ATOM     12  C   UNL     1       7.372  -4.793  22.805  0.00  0.00    +0.041 A 
ATOM     13  C   UNL     1       7.389  -3.557  22.158  0.00  0.00    +0.022 A 
ATOM     14  C   UNL     1       8.191  -2.523  22.656  0.00  0.00    +0.025 A 
ATOM     15  C   UNL     1       8.941  -2.726  23.817  0.00  0.00    +0.034 A 
ATOM     16  C   UNL     1       8.840  -3.936  24.516  0.00  0.00    +0.025 A 
ATOM     17  C   UNL     1       8.091  -4.986  23.982  0.00  0.00    +0.022 A 
ENDBRANCH   7  15
ENDBRANCH   1   9
BRANCH   6  18
ATOM     18  N   UNL     1       7.007   0.077  25.001  0.00  0.00    -0.339 N 
ATOM     19  H   UNL     1       7.639  -0.612  25.403  0.00  0.00    +0.146 HD
BRANCH  18  20
ATOM     20  C   UNL     1       5.627  -0.320  25.193  0.00  0.00    +0.137 C 
BRANCH  20  21
ATOM     21  C   UNL     1       5.616  -1.787  25.546  0.00  0.00    -0.028 A 
ATOM     22  C   UNL     1       6.260  -2.229  26.703  0.00  0.00    +0.025 A 
ATOM     23  C   UNL     1       6.136  -3.559  27.065  0.00  0.00    +0.111 A 
ATOM     24  N   UNL     1       5.423  -4.465  26.357  0.00  0.00    -0.263 NA
ATOM     25  C   UNL     1       4.801  -4.013  25.247  0.00  0.00    +0.111 A 
ATOM     26  C   UNL     1       4.863  -2.706  24.805  0.00  0.00    +0.025 A 
ENDBRANCH  20  21
ENDBRANCH  18  20
ENDBRANCH   6  18
TORSDOF 5
ENDMDL
