MODEL 1
REMARK VINA RESULT:      -7.1      0.000      0.000
REMARK  Name = 
REMARK  12 active torsions:
REMARK  status: ('A' for Active; 'I' for Inactive)
REMARK    1  A    between atoms: N_3  and  C_4
REMARK    2  A    between atoms: C_9  and  C_11
REMARK    3  A    between atoms: C_11  and  O_13
REMARK    4  A    between atoms: O_13  and  C_14
REMARK    5  A    between atoms: C_14  and  O_15
REMARK    6  A    between atoms: O_15  and  C_16
REMARK    7  A    between atoms: C_16  and  C_18
REMARK    8  A    between atoms: C_18  and  C_19
REMARK    9  A    between atoms: C_18  and  C_20
REMARK   10  A    between atoms: C_18  and  C_21
REMARK   11  A    between atoms: C_22  and  C_23
REMARK   12  A    between atoms: C_22  and  C_24
REMARK                            x       y       z     vdW  Elec       q    Type
REMARK                         _______ _______ _______ _____ _____    ______ ____
ROOT
ATOM      1  C   UNL     1      10.378  -0.009  23.452  0.00  0.00    +0.223 C 
ATOM      2  C   UNL     1      10.024  -1.017  24.582  0.00  0.00    +0.169 C 
ATOM      3  N   UNL     1       9.647  -1.982  23.533  0.00  0.00    -0.270 N 
ATOM      4  C   UNL     1       8.452  -2.796  23.763  0.00  0.00    +0.201 C 
ATOM      5  C   UNL     1       7.458  -1.910  24.559  0.00  0.00    +0.042 C 
ATOM      6  C   UNL     1       6.613  -1.026  23.621  0.00  0.00    +0.025 C 
ATOM      7  C   UNL     1       6.485  -2.660  25.478  0.00  0.00    +0.025 C 
ATOM      8  S   UNL     1       8.507  -0.780  25.588  0.00  0.00    -0.127 S 
ATOM      9  C   UNL     1       9.710  -1.063  22.524  0.00  0.00    +0.244 C 
ATOM     10  O   UNL     1       9.282  -1.113  21.396  0.00  0.00    -0.273 OA
ENDROOT
BRANCH   1  19
ATOM     11  C   UNL     1      10.540   2.307  23.458  0.00  0.00    +0.179 C 
ATOM     12  N   UNL     1      10.226   3.642  23.596  0.00  0.00    -0.321 N 
ATOM     13  C   UNL     1       8.833   4.059  23.770  0.00  0.00    +0.106 C 
ATOM     14  C   UNL     1       8.634   4.657  25.160  0.00  0.00    +0.019 C 
ATOM     15  C   UNL     1       8.874   6.165  25.221  0.00  0.00    +0.002 C 
ATOM     16  C   UNL     1      10.054   6.691  24.407  0.00  0.00    +0.002 C 
ATOM     17  C   UNL     1      11.276   5.775  24.404  0.00  0.00    +0.019 C 
ATOM     18  C   UNL     1      11.220   4.682  23.330  0.00  0.00    +0.106 C 
ATOM     19  N   UNL     1       9.724   1.308  23.553  0.00  0.00    -0.261 NA
ENDBRANCH   1  19
BRANCH   4  20
ATOM     20  C   UNL     1       8.824  -4.126  24.451  0.00  0.00    +0.332 C 
ATOM     21  O   UNL     1       9.447  -4.194  25.504  0.00  0.00    -0.249 OA
BRANCH  20  22
ATOM     22  O   UNL     1       8.364  -5.208  23.768  0.00  0.00    -0.426 OA
BRANCH  22  23
ATOM     23  C   UNL     1       7.450  -4.932  22.704  0.00  0.00    +0.472 C 
BRANCH  23  24
ATOM     24  O   UNL     1       6.216  -5.631  22.869  0.00  0.00    -0.427 OA
BRANCH  24  25
ATOM     25  C   UNL     1       5.110  -4.837  22.868  0.00  0.00    +0.315 C 
ATOM     26  O   UNL     1       4.983  -3.828  22.185  0.00  0.00    -0.250 OA
BRANCH  25  27
ATOM     27  C   UNL     1       4.048  -5.374  23.830  0.00  0.00    +0.059 C 
ATOM     28  C   UNL     1       4.714  -6.285  24.870  0.00  0.00    +0.022 C 
ATOM     29  C   UNL     1       3.012  -6.189  23.040  0.00  0.00    +0.022 C 
ATOM     30  C   UNL     1       3.339  -4.203  24.524  0.00  0.00    +0.022 C 
ENDBRANCH  25  27
ENDBRANCH  24  25
ENDBRANCH  23  24
ENDBRANCH  22  23
ENDBRANCH  20  22
ENDBRANCH   4  20
TORSDOF 7
ENDMDL
MODEL 2
REMARK VINA RESULT:      -6.9      2.606      4.200
REMARK  Name = 
REMARK  12 active torsions:
REMARK  status: ('A' for Active; 'I' for Inactive)
REMARK    1  A    between atoms: N_3  and  C_4
REMARK    2  A    between atoms: C_9  and  C_11
REMARK    3  A    between atoms: C_11  and  O_13
REMARK    4  A    between atoms: O_13  and  C_14
REMARK    5  A    between atoms: C_14  and  O_15
REMARK    6  A    between atoms: O_15  and  C_16
REMARK    7  A    between atoms: C_16  and  C_18
REMARK    8  A    between atoms: C_18  and  C_19
REMARK    9  A    between atoms: C_18  and  C_20
REMARK   10  A    between atoms: C_18  and  C_21
REMARK   11  A    between atoms: C_22  and  C_23
REMARK   12  A    between atoms: C_22  and  C_24
REMARK                            x       y       z     vdW  Elec       q    Type
REMARK                         _______ _______ _______ _____ _____    ______ ____
ROOT
ATOM      1  C   UNL     1       9.353  -3.782  24.980  0.00  0.00    +0.223 C 
ATOM      2  C   UNL     1       8.162  -3.624  25.966  0.00  0.00    +0.169 C 
ATOM      3  N   UNL     1       7.750  -4.994  25.609  0.00  0.00    -0.270 N 
ATOM      4  C   UNL     1       6.318  -5.246  25.444  0.00  0.00    +0.201 C 
ATOM      5  C   UNL     1       5.703  -3.949  24.857  0.00  0.00    +0.042 C 
ATOM      6  C   UNL     1       5.822  -3.912  23.321  0.00  0.00    +0.025 C 
ATOM      7  C   UNL     1       4.231  -3.691  25.205  0.00  0.00    +0.025 C 
ATOM      8  S   UNL     1       6.733  -2.560  25.525  0.00  0.00    -0.127 S 
ATOM      9  C   UNL     1       8.625  -5.092  24.564  0.00  0.00    +0.244 C 
ATOM     10  O   UNL     1       8.666  -5.884  23.654  0.00  0.00    -0.273 OA
ENDROOT
BRANCH   1  19
ATOM     11  C   UNL     1       9.980  -1.622  24.402  0.00  0.00    +0.179 C 
ATOM     12  N   UNL     1      10.134  -0.447  23.698  0.00  0.00    -0.321 N 
ATOM     13  C   UNL     1       9.806  -0.391  22.273  0.00  0.00    +0.106 C 
ATOM     14  C   UNL     1       8.607   0.526  22.046  0.00  0.00    +0.019 C 
ATOM     15  C   UNL     1       8.988   1.986  21.801  0.00  0.00    +0.002 C 
ATOM     16  C   UNL     1      10.124   2.537  22.660  0.00  0.00    +0.002 C 
ATOM     17  C   UNL     1      10.128   2.032  24.101  0.00  0.00    +0.019 C 
ATOM     18  C   UNL     1      10.850   0.690  24.278  0.00  0.00    +0.106 C 
ATOM     19  N   UNL     1       9.472  -2.726  23.959  0.00  0.00    -0.261 NA
ENDBRANCH   1  19
BRANCH   4  20
ATOM     20  C   UNL     1       5.690  -5.712  26.774  0.00  0.00    +0.332 C 
ATOM     21  O   UNL     1       5.602  -5.002  27.768  0.00  0.00    -0.249 OA
BRANCH  20  22
ATOM     22  O   UNL     1       5.229  -6.990  26.708  0.00  0.00    -0.426 OA
BRANCH  22  23
ATOM     23  C   UNL     1       3.878  -7.145  26.272  0.00  0.00    +0.472 C 
BRANCH  23  24
ATOM     24  O   UNL     1       3.803  -7.551  24.905  0.00  0.00    -0.427 OA
BRANCH  24  25
ATOM     25  C   UNL     1       2.618  -8.114  24.544  0.00  0.00    +0.315 C 
ATOM     26  O   UNL     1       2.227  -9.210  24.927  0.00  0.00    -0.250 OA
BRANCH  25  27
ATOM     27  C   UNL     1       1.839  -7.197  23.598  0.00  0.00    +0.059 C 
ATOM     28  C   UNL     1       1.147  -8.043  22.521  0.00  0.00    +0.022 C 
ATOM     29  C   UNL     1       2.814  -6.221  22.920  0.00  0.00    +0.022 C 
ATOM     30  C   UNL     1       0.802  -6.394  24.394  0.00  0.00    +0.022 C 
ENDBRANCH  25  27
ENDBRANCH  24  25
ENDBRANCH  23  24
ENDBRANCH  22  23
ENDBRANCH  20  22
ENDBRANCH   4  20
TORSDOF 7
ENDMDL
MODEL 3
REMARK VINA RESULT:      -6.9      1.769      2.609
REMARK  Name = 
REMARK  12 active torsions:
REMARK  status: ('A' for Active; 'I' for Inactive)
REMARK    1  A    between atoms: N_3  and  C_4
REMARK    2  A    between atoms: C_9  and  C_11
REMARK    3  A    between atoms: C_11  and  O_13
REMARK    4  A    between atoms: O_13  and  C_14
REMARK    5  A    between atoms: C_14  and  O_15
REMARK    6  A    between atoms: O_15  and  C_16
REMARK    7  A    between atoms: C_16  and  C_18
REMARK    8  A    between atoms: C_18  and  C_19
REMARK    9  A    between atoms: C_18  and  C_20
REMARK   10  A    between atoms: C_18  and  C_21
REMARK   11  A    between atoms: C_22  and  C_23
REMARK   12  A    between atoms: C_22  and  C_24
REMARK                            x       y       z     vdW  Elec       q    Type
REMARK                         _______ _______ _______ _____ _____    ______ ____
ROOT
ATOM      1  C   UNL     1      10.323  -0.401  24.285  0.00  0.00    +0.223 C 
ATOM      2  C   UNL     1       9.482  -1.397  25.132  0.00  0.00    +0.169 C 
ATOM      3  N   UNL     1       9.605  -2.364  24.025  0.00  0.00    -0.270 N 
ATOM      4  C   UNL     1       8.423  -3.160  23.690  0.00  0.00    +0.201 C 
ATOM      5  C   UNL     1       7.190  -2.256  23.952  0.00  0.00    +0.042 C 
ATOM      6  C   UNL     1       6.873  -1.366  22.734  0.00  0.00    +0.025 C 
ATOM      7  C   UNL     1       5.895  -2.987  24.331  0.00  0.00    +0.025 C 
ATOM      8  S   UNL     1       7.678  -1.134  25.344  0.00  0.00    -0.127 S 
ATOM      9  C   UNL     1      10.131  -1.452  23.154  0.00  0.00    +0.244 C 
ATOM     10  O   UNL     1      10.258  -1.504  21.954  0.00  0.00    -0.273 OA
ENDROOT
BRANCH   1  19
ATOM     11  C   UNL     1      10.567   1.856  23.802  0.00  0.00    +0.179 C 
ATOM     12  N   UNL     1      10.297   3.198  23.641  0.00  0.00    -0.321 N 
ATOM     13  C   UNL     1       8.916   3.684  23.675  0.00  0.00    +0.106 C 
ATOM     14  C   UNL     1       8.702   4.571  24.898  0.00  0.00    +0.019 C 
ATOM     15  C   UNL     1       8.993   6.049  24.643  0.00  0.00    +0.002 C 
ATOM     16  C   UNL     1      10.213   6.354  23.776  0.00  0.00    +0.002 C 
ATOM     17  C   UNL     1      11.402   5.423  24.009  0.00  0.00    +0.019 C 
ATOM     18  C   UNL     1      11.335   4.128  23.192  0.00  0.00    +0.106 C 
ATOM     19  N   UNL     1       9.714   0.925  24.080  0.00  0.00    -0.261 NA
ENDBRANCH   1  19
BRANCH   4  20
ATOM     20  C   UNL     1       8.424  -4.491  24.471  0.00  0.00    +0.332 C 
ATOM     21  O   UNL     1       8.105  -5.566  23.978  0.00  0.00    -0.249 OA
BRANCH  20  22
ATOM     22  O   UNL     1       8.837  -4.335  25.758  0.00  0.00    -0.426 OA
BRANCH  22  23
ATOM     23  C   UNL     1       8.310  -5.271  26.700  0.00  0.00    +0.472 C 
BRANCH  23  24
ATOM     24  O   UNL     1       7.069  -4.830  27.252  0.00  0.00    -0.427 OA
BRANCH  24  25
ATOM     25  C   UNL     1       6.386  -5.780  27.946  0.00  0.00    +0.315 C 
ATOM     26  O   UNL     1       6.866  -6.459  28.846  0.00  0.00    -0.250 OA
BRANCH  25  27
ATOM     27  C   UNL     1       4.941  -5.887  27.453  0.00  0.00    +0.059 C 
ATOM     28  C   UNL     1       4.920  -6.552  26.070  0.00  0.00    +0.022 C 
ATOM     29  C   UNL     1       4.337  -4.478  27.342  0.00  0.00    +0.022 C 
ATOM     30  C   UNL     1       4.113  -6.708  28.451  0.00  0.00    +0.022 C 
ENDBRANCH  25  27
ENDBRANCH  24  25
ENDBRANCH  23  24
ENDBRANCH  22  23
ENDBRANCH  20  22
ENDBRANCH   4  20
TORSDOF 7
ENDMDL
MODEL 4
REMARK VINA RESULT:      -6.9      2.014      2.681
REMARK  Name = 
REMARK  12 active torsions:
REMARK  status: ('A' for Active; 'I' for Inactive)
REMARK    1  A    between atoms: N_3  and  C_4
REMARK    2  A    between atoms: C_9  and  C_11
REMARK    3  A    between atoms: C_11  and  O_13
REMARK    4  A    between atoms: O_13  and  C_14
REMARK    5  A    between atoms: C_14  and  O_15
REMARK    6  A    between atoms: O_15  and  C_16
REMARK    7  A    between atoms: C_16  and  C_18
REMARK    8  A    between atoms: C_18  and  C_19
REMARK    9  A    between atoms: C_18  and  C_20
REMARK   10  A    between atoms: C_18  and  C_21
REMARK   11  A    between atoms: C_22  and  C_23
REMARK   12  A    between atoms: C_22  and  C_24
REMARK                            x       y       z     vdW  Elec       q    Type
REMARK                         _______ _______ _______ _____ _____    ______ ____
ROOT
ATOM      1  C   UNL     1       8.750   0.905  25.192  0.00  0.00    +0.223 C 
ATOM      2  C   UNL     1       8.039  -0.476  25.230  0.00  0.00    +0.169 C 
ATOM      3  N   UNL     1       9.360  -1.106  25.051  0.00  0.00    -0.270 N 
ATOM      4  C   UNL     1       9.440  -2.260  24.155  0.00  0.00    +0.201 C 
ATOM      5  C   UNL     1       8.407  -2.018  23.024  0.00  0.00    +0.042 C 
ATOM      6  C   UNL     1       9.001  -1.160  21.890  0.00  0.00    +0.025 C 
ATOM      7  C   UNL     1       7.815  -3.278  22.379  0.00  0.00    +0.025 C 
ATOM      8  S   UNL     1       7.037  -1.038  23.798  0.00  0.00    -0.127 S 
ATOM      9  C   UNL     1       9.994   0.072  24.769  0.00  0.00    +0.244 C 
ATOM     10  O   UNL     1      11.079   0.275  24.279  0.00  0.00    -0.273 OA
ENDROOT
BRANCH   1  19
ATOM     11  C   UNL     1       8.748   3.041  24.283  0.00  0.00    +0.179 C 
ATOM     12  N   UNL     1       8.392   4.152  23.549  0.00  0.00    -0.321 N 
ATOM     13  C   UNL     1       7.389   4.046  22.488  0.00  0.00    +0.106 C 
ATOM     14  C   UNL     1       6.142   4.842  22.864  0.00  0.00    +0.019 C 
ATOM     15  C   UNL     1       6.177   6.296  22.397  0.00  0.00    +0.002 C 
ATOM     16  C   UNL     1       7.518   7.013  22.532  0.00  0.00    +0.002 C 
ATOM     17  C   UNL     1       8.304   6.650  23.791  0.00  0.00    +0.019 C 
ATOM     18  C   UNL     1       9.166   5.392  23.634  0.00  0.00    +0.106 C 
ATOM     19  N   UNL     1       8.218   1.864  24.208  0.00  0.00    -0.261 NA
ENDBRANCH   1  19
BRANCH   4  20
ATOM     20  C   UNL     1       9.241  -3.574  24.939  0.00  0.00    +0.332 C 
ATOM     21  O   UNL     1       9.746  -4.642  24.614  0.00  0.00    -0.249 OA
BRANCH  20  22
ATOM     22  O   UNL     1       8.460  -3.405  26.040  0.00  0.00    -0.426 OA
BRANCH  22  23
ATOM     23  C   UNL     1       7.555  -4.471  26.331  0.00  0.00    +0.472 C 
BRANCH  23  24
ATOM     24  O   UNL     1       6.467  -4.514  25.407  0.00  0.00    -0.427 OA
BRANCH  24  25
ATOM     25  C   UNL     1       5.754  -5.673  25.423  0.00  0.00    +0.315 C 
ATOM     26  O   UNL     1       5.801  -6.503  26.323  0.00  0.00    -0.250 OA
BRANCH  25  27
ATOM     27  C   UNL     1       4.884  -5.800  24.170  0.00  0.00    +0.059 C 
ATOM     28  C   UNL     1       4.126  -4.486  23.938  0.00  0.00    +0.022 C 
ATOM     29  C   UNL     1       3.868  -6.936  24.370  0.00  0.00    +0.022 C 
ATOM     30  C   UNL     1       5.767  -6.127  22.958  0.00  0.00    +0.022 C 
ENDBRANCH  25  27
ENDBRANCH  24  25
ENDBRANCH  23  24
ENDBRANCH  22  23
ENDBRANCH  20  22
ENDBRANCH   4  20
TORSDOF 7
ENDMDL
MODEL 5
REMARK VINA RESULT:      -6.8      2.729      9.405
REMARK  Name = 
REMARK  12 active torsions:
REMARK  status: ('A' for Active; 'I' for Inactive)
REMARK    1  A    between atoms: N_3  and  C_4
REMARK    2  A    between atoms: C_9  and  C_11
REMARK    3  A    between atoms: C_11  and  O_13
REMARK    4  A    between atoms: O_13  and  C_14
REMARK    5  A    between atoms: C_14  and  O_15
REMARK    6  A    between atoms: O_15  and  C_16
REMARK    7  A    between atoms: C_16  and  C_18
REMARK    8  A    between atoms: C_18  and  C_19
REMARK    9  A    between atoms: C_18  and  C_20
REMARK   10  A    between atoms: C_18  and  C_21
REMARK   11  A    between atoms: C_22  and  C_23
REMARK   12  A    between atoms: C_22  and  C_24
REMARK                            x       y       z     vdW  Elec       q    Type
REMARK                         _______ _______ _______ _____ _____    ______ ____
ROOT
ATOM      1  C   UNL     1       6.574  -5.546  22.804  0.00  0.00    +0.223 C 
ATOM      2  C   UNL     1       7.106  -4.233  22.164  0.00  0.00    +0.169 C 
ATOM      3  N   UNL     1       7.931  -4.038  23.370  0.00  0.00    -0.270 N 
ATOM      4  C   UNL     1       8.039  -2.678  23.900  0.00  0.00    +0.201 C 
ATOM      5  C   UNL     1       6.678  -1.986  23.630  0.00  0.00    +0.042 C 
ATOM      6  C   UNL     1       5.660  -2.286  24.747  0.00  0.00    +0.025 C 
ATOM      7  C   UNL     1       6.727  -0.462  23.455  0.00  0.00    +0.025 C 
ATOM      8  S   UNL     1       6.029  -2.749  22.070  0.00  0.00    -0.127 S 
ATOM      9  C   UNL     1       7.320  -5.039  24.072  0.00  0.00    +0.244 C 
ATOM     10  O   UNL     1       7.339  -5.287  25.253  0.00  0.00    -0.273 OA
ENDROOT
BRANCH   1  19
ATOM     11  C   UNL     1       4.695  -6.472  23.806  0.00  0.00    +0.179 C 
ATOM     12  N   UNL     1       3.390  -6.836  24.059  0.00  0.00    -0.321 N 
ATOM     13  C   UNL     1       2.292  -6.205  23.324  0.00  0.00    +0.106 C 
ATOM     14  C   UNL     1       1.599  -7.232  22.432  0.00  0.00    +0.019 C 
ATOM     15  C   UNL     1       0.443  -7.960  23.118  0.00  0.00    +0.002 C 
ATOM     16  C   UNL     1       0.667  -8.353  24.576  0.00  0.00    +0.002 C 
ATOM     17  C   UNL     1       2.088  -8.814  24.895  0.00  0.00    +0.019 C 
ATOM     18  C   UNL     1       3.048  -7.662  25.217  0.00  0.00    +0.106 C 
ATOM     19  N   UNL     1       5.107  -5.658  22.889  0.00  0.00    -0.261 NA
ENDBRANCH   1  19
BRANCH   4  20
ATOM     20  C   UNL     1       9.261  -1.955  23.298  0.00  0.00    +0.332 C 
ATOM     21  O   UNL     1       9.584  -2.036  22.118  0.00  0.00    -0.249 OA
BRANCH  20  22
ATOM     22  O   UNL     1       9.924  -1.205  24.218  0.00  0.00    -0.426 OA
BRANCH  22  23
ATOM     23  C   UNL     1      10.747  -0.160  23.697  0.00  0.00    +0.472 C 
BRANCH  23  24
ATOM     24  O   UNL     1      10.272   1.132  24.079  0.00  0.00    -0.427 OA
BRANCH  24  25
ATOM     25  C   UNL     1       9.765   1.875  23.057  0.00  0.00    +0.315 C 
ATOM     26  O   UNL     1       9.956   1.641  21.870  0.00  0.00    -0.250 OA
BRANCH  25  27
ATOM     27  C   UNL     1       8.926   3.039  23.589  0.00  0.00    +0.059 C 
ATOM     28  C   UNL     1       9.820   4.274  23.769  0.00  0.00    +0.022 C 
ATOM     29  C   UNL     1       8.326   2.652  24.951  0.00  0.00    +0.022 C 
ATOM     30  C   UNL     1       7.785   3.345  22.610  0.00  0.00    +0.022 C 
ENDBRANCH  25  27
ENDBRANCH  24  25
ENDBRANCH  23  24
ENDBRANCH  22  23
ENDBRANCH  20  22
ENDBRANCH   4  20
TORSDOF 7
ENDMDL
MODEL 6
REMARK VINA RESULT:      -6.8      1.448      2.184
REMARK  Name = 
REMARK  12 active torsions:
REMARK  status: ('A' for Active; 'I' for Inactive)
REMARK    1  A    between atoms: N_3  and  C_4
REMARK    2  A    between atoms: C_9  and  C_11
REMARK    3  A    between atoms: C_11  and  O_13
REMARK    4  A    between atoms: O_13  and  C_14
REMARK    5  A    between atoms: C_14  and  O_15
REMARK    6  A    between atoms: O_15  and  C_16
REMARK    7  A    between atoms: C_16  and  C_18
REMARK    8  A    between atoms: C_18  and  C_19
REMARK    9  A    between atoms: C_18  and  C_20
REMARK   10  A    between atoms: C_18  and  C_21
REMARK   11  A    between atoms: C_22  and  C_23
REMARK   12  A    between atoms: C_22  and  C_24
REMARK                            x       y       z     vdW  Elec       q    Type
REMARK                         _______ _______ _______ _____ _____    ______ ____
ROOT
ATOM      1  C   UNL     1      10.565   0.764  23.370  0.00  0.00    +0.223 C 
ATOM      2  C   UNL     1      10.172  -0.480  24.215  0.00  0.00    +0.169 C 
ATOM      3  N   UNL     1       9.572  -1.055  22.997  0.00  0.00    -0.270 N 
ATOM      4  C   UNL     1       8.299  -1.763  23.142  0.00  0.00    +0.201 C 
ATOM      5  C   UNL     1       7.514  -1.039  24.266  0.00  0.00    +0.042 C 
ATOM      6  C   UNL     1       6.724   0.165  23.719  0.00  0.00    +0.025 C 
ATOM      7  C   UNL     1       6.528  -1.908  25.058  0.00  0.00    +0.025 C 
ATOM      8  S   UNL     1       8.798  -0.376  25.427  0.00  0.00    -0.127 S 
ATOM      9  C   UNL     1       9.676   0.102  22.278  0.00  0.00    +0.244 C 
ATOM     10  O   UNL     1       9.149   0.426  21.241  0.00  0.00    -0.273 OA
ENDROOT
BRANCH   1  19
ATOM     11  C   UNL     1       9.175   2.617  23.215  0.00  0.00    +0.179 C 
ATOM     12  N   UNL     1       8.620   3.860  23.432  0.00  0.00    -0.321 N 
ATOM     13  C   UNL     1       9.011   4.650  24.601  0.00  0.00    +0.106 C 
ATOM     14  C   UNL     1       9.756   5.907  24.159  0.00  0.00    +0.019 C 
ATOM     15  C   UNL     1       8.844   7.108  23.913  0.00  0.00    +0.002 C 
ATOM     16  C   UNL     1       7.517   6.813  23.217  0.00  0.00    +0.002 C 
ATOM     17  C   UNL     1       7.601   5.747  22.126  0.00  0.00    +0.019 C 
ATOM     18  C   UNL     1       7.464   4.315  22.657  0.00  0.00    +0.106 C 
ATOM     19  N   UNL     1      10.116   2.061  23.907  0.00  0.00    -0.261 NA
ENDBRANCH   1  19
BRANCH   4  20
ATOM     20  C   UNL     1       8.538  -3.267  23.388  0.00  0.00    +0.332 C 
ATOM     21  O   UNL     1       9.431  -3.704  24.104  0.00  0.00    -0.249 OA
BRANCH  20  22
ATOM     22  O   UNL     1       7.634  -4.047  22.737  0.00  0.00    -0.426 OA
BRANCH  22  23
ATOM     23  C   UNL     1       7.350  -5.311  23.340  0.00  0.00    +0.472 C 
BRANCH  23  24
ATOM     24  O   UNL     1       6.075  -5.319  23.984  0.00  0.00    -0.427 OA
BRANCH  24  25
ATOM     25  C   UNL     1       6.112  -5.611  25.313  0.00  0.00    +0.315 C 
ATOM     26  O   UNL     1       7.114  -5.527  26.013  0.00  0.00    -0.250 OA
BRANCH  25  27
ATOM     27  C   UNL     1       4.737  -6.055  25.816  0.00  0.00    +0.059 C 
ATOM     28  C   UNL     1       3.807  -4.838  25.904  0.00  0.00    +0.022 C 
ATOM     29  C   UNL     1       4.884  -6.676  27.215  0.00  0.00    +0.022 C 
ATOM     30  C   UNL     1       4.151  -7.105  24.863  0.00  0.00    +0.022 C 
ENDBRANCH  25  27
ENDBRANCH  24  25
ENDBRANCH  23  24
ENDBRANCH  22  23
ENDBRANCH  20  22
ENDBRANCH   4  20
TORSDOF 7
ENDMDL
MODEL 7
REMARK VINA RESULT:      -6.6      2.171      3.449
REMARK  Name = 
REMARK  12 active torsions:
REMARK  status: ('A' for Active; 'I' for Inactive)
REMARK    1  A    between atoms: N_3  and  C_4
REMARK    2  A    between atoms: C_9  and  C_11
REMARK    3  A    between atoms: C_11  and  O_13
REMARK    4  A    between atoms: O_13  and  C_14
REMARK    5  A    between atoms: C_14  and  O_15
REMARK    6  A    between atoms: O_15  and  C_16
REMARK    7  A    between atoms: C_16  and  C_18
REMARK    8  A    between atoms: C_18  and  C_19
REMARK    9  A    between atoms: C_18  and  C_20
REMARK   10  A    between atoms: C_18  and  C_21
REMARK   11  A    between atoms: C_22  and  C_23
REMARK   12  A    between atoms: C_22  and  C_24
REMARK                            x       y       z     vdW  Elec       q    Type
REMARK                         _______ _______ _______ _____ _____    ______ ____
ROOT
ATOM      1  C   UNL     1       7.042   0.585  25.613  0.00  0.00    +0.223 C 
ATOM      2  C   UNL     1       7.214  -0.262  24.321  0.00  0.00    +0.169 C 
ATOM      3  N   UNL     1       7.913  -1.272  25.136  0.00  0.00    -0.270 N 
ATOM      4  C   UNL     1       9.090  -1.914  24.550  0.00  0.00    +0.201 C 
ATOM      5  C   UNL     1       9.785  -0.846  23.666  0.00  0.00    +0.042 C 
ATOM      6  C   UNL     1      10.740   0.037  24.492  0.00  0.00    +0.025 C 
ATOM      7  C   UNL     1      10.581  -1.385  22.470  0.00  0.00    +0.025 C 
ATOM      8  S   UNL     1       8.425   0.246  23.039  0.00  0.00    -0.127 S 
ATOM      9  C   UNL     1       8.003  -0.468  26.237  0.00  0.00    +0.244 C 
ATOM     10  O   UNL     1       8.685  -0.575  27.228  0.00  0.00    -0.273 OA
ENDROOT
BRANCH   1  19
ATOM     11  C   UNL     1       6.942   2.681  24.621  0.00  0.00    +0.179 C 
ATOM     12  N   UNL     1       7.245   3.977  24.264  0.00  0.00    -0.321 N 
ATOM     13  C   UNL     1       8.256   4.732  25.007  0.00  0.00    +0.106 C 
ATOM     14  C   UNL     1       9.461   5.015  24.114  0.00  0.00    +0.019 C 
ATOM     15  C   UNL     1       9.355   6.328  23.339  0.00  0.00    +0.002 C 
ATOM     16  C   UNL     1       7.980   6.661  22.766  0.00  0.00    +0.002 C 
ATOM     17  C   UNL     1       7.208   5.455  22.233  0.00  0.00    +0.019 C 
ATOM     18  C   UNL     1       6.410   4.712  23.312  0.00  0.00    +0.106 C 
ATOM     19  N   UNL     1       7.530   1.973  25.529  0.00  0.00    -0.261 NA
ENDBRANCH   1  19
BRANCH   4  20
ATOM     20  C   UNL     1       8.693  -3.207  23.807  0.00  0.00    +0.332 C 
ATOM     21  O   UNL     1       7.811  -3.257  22.958  0.00  0.00    -0.249 OA
BRANCH  20  22
ATOM     22  O   UNL     1       9.443  -4.275  24.189  0.00  0.00    -0.426 OA
BRANCH  22  23
ATOM     23  C   UNL     1       9.107  -4.854  25.451  0.00  0.00    +0.472 C 
BRANCH  23  24
ATOM     24  O   UNL     1       7.904  -5.620  25.382  0.00  0.00    -0.427 OA
BRANCH  24  25
ATOM     25  C   UNL     1       7.128  -5.560  26.498  0.00  0.00    +0.315 C 
ATOM     26  O   UNL     1       7.560  -5.585  27.644  0.00  0.00    -0.250 OA
BRANCH  25  27
ATOM     27  C   UNL     1       5.646  -5.453  26.131  0.00  0.00    +0.059 C 
ATOM     28  C   UNL     1       4.903  -6.697  26.637  0.00  0.00    +0.022 C 
ATOM     29  C   UNL     1       5.505  -5.373  24.602  0.00  0.00    +0.022 C 
ATOM     30  C   UNL     1       5.048  -4.185  26.755  0.00  0.00    +0.022 C 
ENDBRANCH  25  27
ENDBRANCH  24  25
ENDBRANCH  23  24
ENDBRANCH  22  23
ENDBRANCH  20  22
ENDBRANCH   4  20
TORSDOF 7
ENDMDL
MODEL 8
REMARK VINA RESULT:      -6.6      2.597      8.964
REMARK  Name = 
REMARK  12 active torsions:
REMARK  status: ('A' for Active; 'I' for Inactive)
REMARK    1  A    between atoms: N_3  and  C_4
REMARK    2  A    between atoms: C_9  and  C_11
REMARK    3  A    between atoms: C_11  and  O_13
REMARK    4  A    between atoms: O_13  and  C_14
REMARK    5  A    between atoms: C_14  and  O_15
REMARK    6  A    between atoms: O_15  and  C_16
REMARK    7  A    between atoms: C_16  and  C_18
REMARK    8  A    between atoms: C_18  and  C_19
REMARK    9  A    between atoms: C_18  and  C_20
REMARK   10  A    between atoms: C_18  and  C_21
REMARK   11  A    between atoms: C_22  and  C_23
REMARK   12  A    between atoms: C_22  and  C_24
REMARK                            x       y       z     vdW  Elec       q    Type
REMARK                         _______ _______ _______ _____ _____    ______ ____
ROOT
ATOM      1  C   UNL     1       5.505  -3.960  22.402  0.00  0.00    +0.223 C 
ATOM      2  C   UNL     1       6.238  -2.599  22.563  0.00  0.00    +0.169 C 
ATOM      3  N   UNL     1       7.514  -3.334  22.494  0.00  0.00    -0.270 N 
ATOM      4  C   UNL     1       8.584  -2.913  23.399  0.00  0.00    +0.201 C 
ATOM      5  C   UNL     1       7.899  -2.436  24.705  0.00  0.00    +0.042 C 
ATOM      6  C   UNL     1       7.624  -3.612  25.662  0.00  0.00    +0.025 C 
ATOM      7  C   UNL     1       8.658  -1.368  25.505  0.00  0.00    +0.025 C 
ATOM      8  S   UNL     1       6.258  -1.747  24.189  0.00  0.00    -0.127 S 
ATOM      9  C   UNL     1       6.925  -4.564  22.595  0.00  0.00    +0.244 C 
ATOM     10  O   UNL     1       7.410  -5.641  22.847  0.00  0.00    -0.273 OA
ENDROOT
BRANCH   1  19
ATOM     11  C   UNL     1       4.420  -5.519  23.738  0.00  0.00    +0.179 C 
ATOM     12  N   UNL     1       3.520  -6.101  24.605  0.00  0.00    -0.321 N 
ATOM     13  C   UNL     1       2.595  -5.270  25.378  0.00  0.00    +0.106 C 
ATOM     14  C   UNL     1       1.159  -5.527  24.930  0.00  0.00    +0.019 C 
ATOM     15  C   UNL     1       0.466  -6.648  25.702  0.00  0.00    +0.002 C 
ATOM     16  C   UNL     1       1.319  -7.875  26.016  0.00  0.00    +0.002 C 
ATOM     17  C   UNL     1       2.291  -8.270  24.905  0.00  0.00    +0.019 C 
ATOM     18  C   UNL     1       3.625  -7.517  24.962  0.00  0.00    +0.106 C 
ATOM     19  N   UNL     1       4.500  -4.263  23.437  0.00  0.00    -0.261 NA
ENDBRANCH   1  19
BRANCH   4  20
ATOM     20  C   UNL     1       9.486  -1.860  22.721  0.00  0.00    +0.332 C 
ATOM     21  O   UNL     1      10.702  -1.970  22.624  0.00  0.00    -0.249 OA
BRANCH  20  22
ATOM     22  O   UNL     1       8.775  -0.809  22.230  0.00  0.00    -0.426 OA
BRANCH  22  23
ATOM     23  C   UNL     1       9.443  -0.006  21.256  0.00  0.00    +0.472 C 
BRANCH  23  24
ATOM     24  O   UNL     1      10.121   1.101  21.852  0.00  0.00    -0.427 OA
BRANCH  24  25
ATOM     25  C   UNL     1       9.307   2.003  22.464  0.00  0.00    +0.315 C 
ATOM     26  O   UNL     1       8.269   2.439  21.980  0.00  0.00    -0.250 OA
BRANCH  25  27
ATOM     27  C   UNL     1       9.858   2.398  23.836  0.00  0.00    +0.059 C 
ATOM     28  C   UNL     1      10.821   1.311  24.332  0.00  0.00    +0.022 C 
ATOM     29  C   UNL     1       8.694   2.529  24.832  0.00  0.00    +0.022 C 
ATOM     30  C   UNL     1      10.582   3.746  23.735  0.00  0.00    +0.022 C 
ENDBRANCH  25  27
ENDBRANCH  24  25
ENDBRANCH  23  24
ENDBRANCH  22  23
ENDBRANCH  20  22
ENDBRANCH   4  20
TORSDOF 7
ENDMDL
MODEL 9
REMARK VINA RESULT:      -6.6      2.425      8.444
REMARK  Name = 
REMARK  12 active torsions:
REMARK  status: ('A' for Active; 'I' for Inactive)
REMARK    1  A    between atoms: N_3  and  C_4
REMARK    2  A    between atoms: C_9  and  C_11
REMARK    3  A    between atoms: C_11  and  O_13
REMARK    4  A    between atoms: O_13  and  C_14
REMARK    5  A    between atoms: C_14  and  O_15
REMARK    6  A    between atoms: O_15  and  C_16
REMARK    7  A    between atoms: C_16  and  C_18
REMARK    8  A    between atoms: C_18  and  C_19
REMARK    9  A    between atoms: C_18  and  C_20
REMARK   10  A    between atoms: C_18  and  C_21
REMARK   11  A    between atoms: C_22  and  C_23
REMARK   12  A    between atoms: C_22  and  C_24
REMARK                            x       y       z     vdW  Elec       q    Type
REMARK                         _______ _______ _______ _____ _____    ______ ____
ROOT
ATOM      1  C   UNL     1       7.594  -3.051  22.440  0.00  0.00    +0.223 C 
ATOM      2  C   UNL     1       7.911  -1.529  22.449  0.00  0.00    +0.169 C 
ATOM      3  N   UNL     1       9.119  -1.836  23.237  0.00  0.00    -0.270 N 
ATOM      4  C   UNL     1       9.460  -0.925  24.331  0.00  0.00    +0.201 C 
ATOM      5  C   UNL     1       8.118  -0.415  24.918  0.00  0.00    +0.042 C 
ATOM      6  C   UNL     1       7.555  -1.389  25.972  0.00  0.00    +0.025 C 
ATOM      7  C   UNL     1       8.158   0.978  25.561  0.00  0.00    +0.025 C 
ATOM      8  S   UNL     1       6.927  -0.388  23.498  0.00  0.00    -0.127 S 
ATOM      9  C   UNL     1       8.762  -3.135  23.464  0.00  0.00    +0.244 C 
ATOM     10  O   UNL     1       9.193  -3.934  24.261  0.00  0.00    -0.273 OA
ENDROOT
BRANCH   1  19
ATOM     11  C   UNL     1       6.254  -4.346  23.825  0.00  0.00    +0.179 C 
ATOM     12  N   UNL     1       5.150  -4.944  24.394  0.00  0.00    -0.321 N 
ATOM     13  C   UNL     1       3.804  -4.470  24.069  0.00  0.00    +0.106 C 
ATOM     14  C   UNL     1       3.039  -5.546  23.304  0.00  0.00    +0.019 C 
ATOM     15  C   UNL     1       2.258  -6.502  24.205  0.00  0.00    +0.002 C 
ATOM     16  C   UNL     1       2.957  -6.937  25.491  0.00  0.00    +0.002 C 
ATOM     17  C   UNL     1       4.461  -7.163  25.346  0.00  0.00    +0.019 C 
ATOM     18  C   UNL     1       5.292  -5.884  25.507  0.00  0.00    +0.106 C 
ATOM     19  N   UNL     1       6.251  -3.420  22.921  0.00  0.00    -0.261 NA
ENDBRANCH   1  19
BRANCH   4  20
ATOM     20  C   UNL     1      10.412   0.184  23.839  0.00  0.00    +0.332 C 
ATOM     21  O   UNL     1      11.250   0.724  24.552  0.00  0.00    -0.249 OA
BRANCH  20  22
ATOM     22  O   UNL     1      10.228   0.478  22.524  0.00  0.00    -0.426 OA
BRANCH  22  23
ATOM     23  C   UNL     1      10.159   1.868  22.199  0.00  0.00    +0.472 C 
BRANCH  23  24
ATOM     24  O   UNL     1       8.827   2.374  22.303  0.00  0.00    -0.427 OA
BRANCH  24  25
ATOM     25  C   UNL     1       8.694   3.460  23.111  0.00  0.00    +0.315 C 
ATOM     26  O   UNL     1       9.572   3.882  23.855  0.00  0.00    -0.250 OA
BRANCH  25  27
ATOM     27  C   UNL     1       7.305   4.087  22.965  0.00  0.00    +0.059 C 
ATOM     28  C   UNL     1       6.687   4.290  24.355  0.00  0.00    +0.022 C 
ATOM     29  C   UNL     1       6.406   3.143  22.149  0.00  0.00    +0.022 C 
ATOM     30  C   UNL     1       7.417   5.429  22.230  0.00  0.00    +0.022 C 
ENDBRANCH  25  27
ENDBRANCH  24  25
ENDBRANCH  23  24
ENDBRANCH  22  23
ENDBRANCH  20  22
ENDBRANCH   4  20
TORSDOF 7
ENDMDL
