MODEL 1
REMARK VINA RESULT:      -7.1      0.000      0.000
REMARK  Name = 
REMARK  29 active torsions:
REMARK  status: ('A' for Active; 'I' for Inactive)
REMARK    1  A    between atoms: C_1  and  C_2
REMARK    2  A    between atoms: C_2  and  C_3
REMARK    3  A    between atoms: C_2  and  C_4
REMARK    4  A    between atoms: C_2  and  C_5
REMARK    5  A    between atoms: C_7  and  S_8
REMARK    6  A    between atoms: S_8  and  C_9
REMARK    7  A    between atoms: C_9  and  C_10
REMARK    8  A    between atoms: C_9  and  C_11
REMARK    9  A    between atoms: C_9  and  S_12
REMARK   10  A    between atoms: S_12  and  C_13
REMARK   11  A    between atoms: C_15  and  C_31
REMARK   12  A    between atoms: C_16  and  O_17
REMARK   13  A    between atoms: O_17  and  C_18
REMARK   14  A    between atoms: C_18  and  C_20
REMARK   15  A    between atoms: C_20  and  C_21
REMARK   16  A    between atoms: C_21  and  C_22
REMARK   17  A    between atoms: C_22  and  O_23
REMARK   18  A    between atoms: C_25  and  C_27
REMARK   19  A    between atoms: C_27  and  C_28
REMARK   20  A    between atoms: C_27  and  C_29
REMARK   21  A    between atoms: C_27  and  C_30
REMARK   22  A    between atoms: C_31  and  C_32
REMARK   23  A    between atoms: C_31  and  C_33
REMARK   24  A    between atoms: C_31  and  C_34
REMARK   25  A    between atoms: C_36  and  C_39
REMARK   26  A    between atoms: C_37  and  O_38
REMARK   27  A    between atoms: C_39  and  C_40
REMARK   28  A    between atoms: C_39  and  C_41
REMARK   29  A    between atoms: C_39  and  C_42
REMARK                            x       y       z     vdW  Elec       q    Type
REMARK                         _______ _______ _______ _____ _____    ______ ____
ROOT
ATOM      1  C   UNL     1       6.349  -0.080  24.658  0.00  0.00    +0.010 A 
ATOM      2  C   UNL     1       5.914   1.235  24.707  0.00  0.00    +0.022 A 
ATOM      3  C   UNL     1       6.683   2.319  24.197  0.00  0.00    +0.002 A 
ATOM      4  C   UNL     1       8.028   2.015  23.762  0.00  0.00    +0.139 A 
ATOM      5  C   UNL     1       8.512   0.673  23.753  0.00  0.00    +0.002 A 
ATOM      6  C   UNL     1       7.593  -0.330  24.115  0.00  0.00    +0.022 A 
ENDROOT
BRANCH   3   7
ATOM      7  C   UNL     1       5.935   3.686  24.100  0.00  0.00    -0.009 C 
ATOM      8  C   UNL     1       6.318   4.617  25.266  0.00  0.00    +0.015 C 
ATOM      9  C   UNL     1       4.378   3.522  24.183  0.00  0.00    +0.015 C 
ATOM     10  C   UNL     1       6.200   4.407  22.767  0.00  0.00    +0.015 C 
ENDBRANCH   3   7
BRANCH   5  11
ATOM     11  C   UNL     1       9.913   0.171  23.370  0.00  0.00    -0.009 C 
ATOM     12  C   UNL     1      10.916   0.581  24.480  0.00  0.00    +0.015 C 
ATOM     13  C   UNL     1      10.172   0.587  21.907  0.00  0.00    +0.015 C 
ATOM     14  C   UNL     1      10.114  -1.381  23.321  0.00  0.00    +0.015 C 
ENDBRANCH   5  11
BRANCH   1  15
ATOM     15  S   UNL     1       5.281  -1.432  25.124  0.00  0.00    -0.108 S 
BRANCH  15  16
ATOM     16  C   UNL     1       5.878  -1.916  26.839  0.00  0.00    +0.066 C 
ATOM     17  C   UNL     1       7.402  -2.030  26.818  0.00  0.00    +0.035 C 
ATOM     18  C   UNL     1       5.428  -0.766  27.751  0.00  0.00    +0.035 C 
BRANCH  16  19
ATOM     19  S   UNL     1       5.074  -3.499  27.380  0.00  0.00    -0.108 S 
BRANCH  19  24
ATOM     20  C   UNL     1       5.439  -5.013  23.642  0.00  0.00    +0.001 A 
ATOM     21  C   UNL     1       4.191  -5.667  23.488  0.00  0.00    +0.124 A 
ATOM     22  C   UNL     1       3.202  -5.730  24.502  0.00  0.00    +0.001 A 
ATOM     23  C   UNL     1       3.487  -5.028  25.691  0.00  0.00    +0.022 A 
ATOM     24  C   UNL     1       4.688  -4.338  25.867  0.00  0.00    +0.010 A 
ATOM     25  C   UNL     1       5.660  -4.377  24.872  0.00  0.00    +0.022 A 
BRANCH  20  27
ATOM     26  C   UNL     1       7.890  -4.415  23.048  0.00  0.00    +0.015 C 
ATOM     27  C   UNL     1       6.528  -4.967  22.544  0.00  0.00    -0.009 C 
ATOM     28  C   UNL     1       6.819  -6.385  22.006  0.00  0.00    +0.015 C 
ATOM     29  C   UNL     1       6.101  -4.040  21.387  0.00  0.00    +0.015 C 
ENDBRANCH  20  27
BRANCH  22  30
ATOM     30  C   UNL     1       1.832  -6.442  24.344  0.00  0.00    -0.009 C 
ATOM     31  C   UNL     1       1.972  -7.974  24.131  0.00  0.00    +0.015 C 
ATOM     32  C   UNL     1       0.988  -5.955  23.142  0.00  0.00    +0.015 C 
ATOM     33  C   UNL     1       1.024  -6.216  25.637  0.00  0.00    +0.015 C 
ENDBRANCH  22  30
BRANCH  21  34
ATOM     34  O   UNL     1       3.927  -6.237  22.275  0.00  0.00    -0.506 OA
ATOM     35  H   UNL     1       3.178  -6.836  22.429  0.00  0.00    +0.292 HD
ENDBRANCH  21  34
ENDBRANCH  19  24
ENDBRANCH  16  19
ENDBRANCH  15  16
ENDBRANCH   1  15
BRANCH   4  36
ATOM     36  O   UNL     1       8.865   3.158  23.333  0.00  0.00    -0.425 OA
BRANCH  36  37
ATOM     37  C   UNL     1       9.791   4.129  23.835  0.00  0.00    +0.313 C 
ATOM     38  O   UNL     1       9.550   5.127  24.517  0.00  0.00    -0.250 OA
BRANCH  37  39
ATOM     39  C   UNL     1      11.179   3.937  23.317  0.00  0.00    +0.132 C 
BRANCH  39  40
ATOM     40  C   UNL     1      11.917   5.255  23.471  0.00  0.00    +0.131 C 
BRANCH  40  41
ATOM     41  C   UNL     1      13.176   5.303  22.646  0.00  0.00    +0.305 C 
ATOM     42  O   UNL     1      13.244   5.662  21.480  0.00  0.00    -0.251 OA
BRANCH  41  43
ATOM     43  O   UNL     1      14.256   4.897  23.349  0.00  0.00    -0.481 OA
ATOM     44  H   UNL     1      14.070   4.711  24.290  0.00  0.00    +0.295 HD
ENDBRANCH  41  43
ENDBRANCH  40  41
ENDBRANCH  39  40
ENDBRANCH  37  39
ENDBRANCH  36  37
ENDBRANCH   4  36
TORSDOF 15
ENDMDL
MODEL 2
REMARK VINA RESULT:      -7.1      0.152      2.941
REMARK  Name = 
REMARK  29 active torsions:
REMARK  status: ('A' for Active; 'I' for Inactive)
REMARK    1  A    between atoms: C_1  and  C_2
REMARK    2  A    between atoms: C_2  and  C_3
REMARK    3  A    between atoms: C_2  and  C_4
REMARK    4  A    between atoms: C_2  and  C_5
REMARK    5  A    between atoms: C_7  and  S_8
REMARK    6  A    between atoms: S_8  and  C_9
REMARK    7  A    between atoms: C_9  and  C_10
REMARK    8  A    between atoms: C_9  and  C_11
REMARK    9  A    between atoms: C_9  and  S_12
REMARK   10  A    between atoms: S_12  and  C_13
REMARK   11  A    between atoms: C_15  and  C_31
REMARK   12  A    between atoms: C_16  and  O_17
REMARK   13  A    between atoms: O_17  and  C_18
REMARK   14  A    between atoms: C_18  and  C_20
REMARK   15  A    between atoms: C_20  and  C_21
REMARK   16  A    between atoms: C_21  and  C_22
REMARK   17  A    between atoms: C_22  and  O_23
REMARK   18  A    between atoms: C_25  and  C_27
REMARK   19  A    between atoms: C_27  and  C_28
REMARK   20  A    between atoms: C_27  and  C_29
REMARK   21  A    between atoms: C_27  and  C_30
REMARK   22  A    between atoms: C_31  and  C_32
REMARK   23  A    between atoms: C_31  and  C_33
REMARK   24  A    between atoms: C_31  and  C_34
REMARK   25  A    between atoms: C_36  and  C_39
REMARK   26  A    between atoms: C_37  and  O_38
REMARK   27  A    between atoms: C_39  and  C_40
REMARK   28  A    between atoms: C_39  and  C_41
REMARK   29  A    between atoms: C_39  and  C_42
REMARK                            x       y       z     vdW  Elec       q    Type
REMARK                         _______ _______ _______ _____ _____    ______ ____
ROOT
ATOM      1  C   UNL     1       6.370  -0.058  24.653  0.00  0.00    +0.010 A 
ATOM      2  C   UNL     1       5.925   1.255  24.699  0.00  0.00    +0.022 A 
ATOM      3  C   UNL     1       6.682   2.343  24.179  0.00  0.00    +0.002 A 
ATOM      4  C   UNL     1       8.026   2.047  23.736  0.00  0.00    +0.139 A 
ATOM      5  C   UNL     1       8.520   0.709  23.729  0.00  0.00    +0.002 A 
ATOM      6  C   UNL     1       7.612  -0.300  24.101  0.00  0.00    +0.022 A 
ENDROOT
BRANCH   3   7
ATOM      7  C   UNL     1       5.923   3.703  24.082  0.00  0.00    -0.009 C 
ATOM      8  C   UNL     1       4.396   3.496  24.124  0.00  0.00    +0.015 C 
ATOM      9  C   UNL     1       6.211   4.455  22.738  0.00  0.00    +0.015 C 
ATOM     10  C   UNL     1       6.331   4.684  25.196  0.00  0.00    +0.015 C 
ENDBRANCH   3   7
BRANCH   5  11
ATOM     11  C   UNL     1       9.922   0.217  23.337  0.00  0.00    -0.009 C 
ATOM     12  C   UNL     1      10.929   0.632  24.442  0.00  0.00    +0.015 C 
ATOM     13  C   UNL     1      10.170   0.635  21.873  0.00  0.00    +0.015 C 
ATOM     14  C   UNL     1      10.133  -1.334  23.286  0.00  0.00    +0.015 C 
ENDBRANCH   5  11
BRANCH   1  15
ATOM     15  S   UNL     1       5.316  -1.415  25.132  0.00  0.00    -0.108 S 
BRANCH  15  16
ATOM     16  C   UNL     1       5.907  -1.865  26.858  0.00  0.00    +0.066 C 
ATOM     17  C   UNL     1       7.434  -1.810  26.888  0.00  0.00    +0.035 C 
ATOM     18  C   UNL     1       5.302  -0.791  27.772  0.00  0.00    +0.035 C 
BRANCH  16  19
ATOM     19  S   UNL     1       5.267  -3.538  27.345  0.00  0.00    -0.108 S 
BRANCH  19  24
ATOM     20  C   UNL     1       3.291  -5.552  24.440  0.00  0.00    +0.001 A 
ATOM     21  C   UNL     1       4.265  -5.576  23.410  0.00  0.00    +0.124 A 
ATOM     22  C   UNL     1       5.535  -4.954  23.512  0.00  0.00    +0.001 A 
ATOM     23  C   UNL     1       5.834  -4.351  24.751  0.00  0.00    +0.022 A 
ATOM     24  C   UNL     1       4.917  -4.342  25.804  0.00  0.00    +0.010 A 
ATOM     25  C   UNL     1       3.652  -4.894  25.624  0.00  0.00    +0.022 A 
BRANCH  20  27
ATOM     26  C   UNL     1       0.991  -5.970  25.560  0.00  0.00    +0.015 C 
ATOM     27  C   UNL     1       1.895  -6.209  24.319  0.00  0.00    -0.009 C 
ATOM     28  C   UNL     1       1.123  -5.630  23.114  0.00  0.00    +0.015 C 
ATOM     29  C   UNL     1       2.020  -7.741  24.178  0.00  0.00    +0.015 C 
ENDBRANCH  20  27
BRANCH  22  30
ATOM     30  C   UNL     1       6.609  -4.973  22.392  0.00  0.00    -0.009 C 
ATOM     31  C   UNL     1       6.154  -4.223  21.110  0.00  0.00    +0.015 C 
ATOM     32  C   UNL     1       7.002  -6.387  21.899  0.00  0.00    +0.015 C 
ATOM     33  C   UNL     1       7.872  -4.270  22.929  0.00  0.00    +0.015 C 
ENDBRANCH  22  30
BRANCH  21  34
ATOM     34  O   UNL     1       3.960  -6.268  22.273  0.00  0.00    -0.506 OA
ATOM     35  H   UNL     1       3.698  -7.153  22.572  0.00  0.00    +0.292 HD
ENDBRANCH  21  34
ENDBRANCH  19  24
ENDBRANCH  16  19
ENDBRANCH  15  16
ENDBRANCH   1  15
BRANCH   4  36
ATOM     36  O   UNL     1       8.851   3.195  23.296  0.00  0.00    -0.425 OA
BRANCH  36  37
ATOM     37  C   UNL     1       9.763   4.183  23.790  0.00  0.00    +0.313 C 
ATOM     38  O   UNL     1       9.501   5.217  24.409  0.00  0.00    -0.250 OA
BRANCH  37  39
ATOM     39  C   UNL     1      11.170   3.955  23.346  0.00  0.00    +0.132 C 
BRANCH  39  40
ATOM     40  C   UNL     1      11.918   5.270  23.480  0.00  0.00    +0.131 C 
BRANCH  40  41
ATOM     41  C   UNL     1      13.163   5.308  22.633  0.00  0.00    +0.305 C 
ATOM     42  O   UNL     1      13.211   5.652  21.462  0.00  0.00    -0.251 OA
BRANCH  41  43
ATOM     43  O   UNL     1      14.254   4.910  23.323  0.00  0.00    -0.481 OA
ATOM     44  H   UNL     1      15.019   5.512  23.237  0.00  0.00    +0.295 HD
ENDBRANCH  41  43
ENDBRANCH  40  41
ENDBRANCH  39  40
ENDBRANCH  37  39
ENDBRANCH  36  37
ENDBRANCH   4  36
TORSDOF 15
ENDMDL
MODEL 3
REMARK VINA RESULT:      -7.0      0.422      3.091
REMARK  Name = 
REMARK  29 active torsions:
REMARK  status: ('A' for Active; 'I' for Inactive)
REMARK    1  A    between atoms: C_1  and  C_2
REMARK    2  A    between atoms: C_2  and  C_3
REMARK    3  A    between atoms: C_2  and  C_4
REMARK    4  A    between atoms: C_2  and  C_5
REMARK    5  A    between atoms: C_7  and  S_8
REMARK    6  A    between atoms: S_8  and  C_9
REMARK    7  A    between atoms: C_9  and  C_10
REMARK    8  A    between atoms: C_9  and  C_11
REMARK    9  A    between atoms: C_9  and  S_12
REMARK   10  A    between atoms: S_12  and  C_13
REMARK   11  A    between atoms: C_15  and  C_31
REMARK   12  A    between atoms: C_16  and  O_17
REMARK   13  A    between atoms: O_17  and  C_18
REMARK   14  A    between atoms: C_18  and  C_20
REMARK   15  A    between atoms: C_20  and  C_21
REMARK   16  A    between atoms: C_21  and  C_22
REMARK   17  A    between atoms: C_22  and  O_23
REMARK   18  A    between atoms: C_25  and  C_27
REMARK   19  A    between atoms: C_27  and  C_28
REMARK   20  A    between atoms: C_27  and  C_29
REMARK   21  A    between atoms: C_27  and  C_30
REMARK   22  A    between atoms: C_31  and  C_32
REMARK   23  A    between atoms: C_31  and  C_33
REMARK   24  A    between atoms: C_31  and  C_34
REMARK   25  A    between atoms: C_36  and  C_39
REMARK   26  A    between atoms: C_37  and  O_38
REMARK   27  A    between atoms: C_39  and  C_40
REMARK   28  A    between atoms: C_39  and  C_41
REMARK   29  A    between atoms: C_39  and  C_42
REMARK                            x       y       z     vdW  Elec       q    Type
REMARK                         _______ _______ _______ _____ _____    ______ ____
ROOT
ATOM      1  C   UNL     1       6.084   0.116  24.729  0.00  0.00    +0.010 A 
ATOM      2  C   UNL     1       7.269  -0.228  24.098  0.00  0.00    +0.022 A 
ATOM      3  C   UNL     1       8.248   0.734  23.720  0.00  0.00    +0.002 A 
ATOM      4  C   UNL     1       7.886   2.125  23.875  0.00  0.00    +0.139 A 
ATOM      5  C   UNL     1       6.648   2.500  24.475  0.00  0.00    +0.002 A 
ATOM      6  C   UNL     1       5.845   1.455  24.968  0.00  0.00    +0.022 A 
ENDROOT
BRANCH   3   7
ATOM      7  C   UNL     1       9.621   0.150  23.261  0.00  0.00    -0.009 C 
ATOM      8  C   UNL     1       9.587  -1.390  23.216  0.00  0.00    +0.015 C 
ATOM      9  C   UNL     1      10.786   0.519  24.242  0.00  0.00    +0.015 C 
ATOM     10  C   UNL     1      10.057   0.687  21.886  0.00  0.00    +0.015 C 
ENDBRANCH   3   7
BRANCH   5  11
ATOM     11  C   UNL     1       6.082   3.914  24.680  0.00  0.00    -0.009 C 
ATOM     12  C   UNL     1       6.162   4.689  23.339  0.00  0.00    +0.015 C 
ATOM     13  C   UNL     1       6.741   4.500  25.947  0.00  0.00    +0.015 C 
ATOM     14  C   UNL     1       4.556   4.019  25.013  0.00  0.00    +0.015 C 
ENDBRANCH   5  11
BRANCH   1  15
ATOM     15  S   UNL     1       4.972  -1.125  25.365  0.00  0.00    -0.108 S 
BRANCH  15  16
ATOM     16  C   UNL     1       5.731  -1.617  27.013  0.00  0.00    +0.066 C 
ATOM     17  C   UNL     1       7.254  -1.585  26.885  0.00  0.00    +0.035 C 
ATOM     18  C   UNL     1       5.242  -0.551  28.003  0.00  0.00    +0.035 C 
BRANCH  16  19
ATOM     19  S   UNL     1       5.117  -3.289  27.534  0.00  0.00    -0.108 S 
BRANCH  19  24
ATOM     20  C   UNL     1       5.713  -4.914  23.873  0.00  0.00    +0.001 A 
ATOM     21  C   UNL     1       4.448  -5.502  23.624  0.00  0.00    +0.124 A 
ATOM     22  C   UNL     1       3.374  -5.486  24.550  0.00  0.00    +0.001 A 
ATOM     23  C   UNL     1       3.595  -4.771  25.745  0.00  0.00    +0.022 A 
ATOM     24  C   UNL     1       4.814  -4.143  26.010  0.00  0.00    +0.010 A 
ATOM     25  C   UNL     1       5.864  -4.260  25.104  0.00  0.00    +0.022 A 
BRANCH  20  27
ATOM     26  C   UNL     1       6.952  -6.265  22.041  0.00  0.00    +0.015 C 
ATOM     27  C   UNL     1       6.892  -4.954  22.873  0.00  0.00    -0.009 C 
ATOM     28  C   UNL     1       6.775  -3.807  21.846  0.00  0.00    +0.015 C 
ATOM     29  C   UNL     1       8.243  -4.864  23.613  0.00  0.00    +0.015 C 
ENDBRANCH  20  27
BRANCH  22  30
ATOM     30  C   UNL     1       1.985  -6.126  24.289  0.00  0.00    -0.009 C 
ATOM     31  C   UNL     1       1.301  -5.577  23.007  0.00  0.00    +0.015 C 
ATOM     32  C   UNL     1       0.947  -5.897  25.414  0.00  0.00    +0.015 C 
ATOM     33  C   UNL     1       2.185  -7.644  24.105  0.00  0.00    +0.015 C 
ENDBRANCH  22  30
BRANCH  21  34
ATOM     34  O   UNL     1       4.256  -6.087  22.405  0.00  0.00    -0.506 OA
ATOM     35  H   UNL     1       5.043  -5.862  21.884  0.00  0.00    +0.292 HD
ENDBRANCH  21  34
ENDBRANCH  19  24
ENDBRANCH  16  19
ENDBRANCH  15  16
ENDBRANCH   1  15
BRANCH   4  36
ATOM     36  O   UNL     1       8.860   3.126  23.382  0.00  0.00    -0.425 OA
BRANCH  36  37
ATOM     37  C   UNL     1       9.777   4.127  23.839  0.00  0.00    +0.313 C 
ATOM     38  O   UNL     1       9.524   5.166  24.454  0.00  0.00    -0.250 OA
BRANCH  37  39
ATOM     39  C   UNL     1      11.173   3.905  23.359  0.00  0.00    +0.132 C 
BRANCH  39  40
ATOM     40  C   UNL     1      11.949   5.192  23.575  0.00  0.00    +0.131 C 
BRANCH  40  41
ATOM     41  C   UNL     1      13.164   5.282  22.691  0.00  0.00    +0.305 C 
ATOM     42  O   UNL     1      13.166   5.651  21.526  0.00  0.00    -0.251 OA
BRANCH  41  43
ATOM     43  O   UNL     1      14.288   4.901  23.338  0.00  0.00    -0.481 OA
ATOM     44  H   UNL     1      14.130   4.561  24.240  0.00  0.00    +0.295 HD
ENDBRANCH  41  43
ENDBRANCH  40  41
ENDBRANCH  39  40
ENDBRANCH  37  39
ENDBRANCH  36  37
ENDBRANCH   4  36
TORSDOF 15
ENDMDL
MODEL 4
REMARK VINA RESULT:      -6.8      1.331      4.124
REMARK  Name = 
REMARK  29 active torsions:
REMARK  status: ('A' for Active; 'I' for Inactive)
REMARK    1  A    between atoms: C_1  and  C_2
REMARK    2  A    between atoms: C_2  and  C_3
REMARK    3  A    between atoms: C_2  and  C_4
REMARK    4  A    between atoms: C_2  and  C_5
REMARK    5  A    between atoms: C_7  and  S_8
REMARK    6  A    between atoms: S_8  and  C_9
REMARK    7  A    between atoms: C_9  and  C_10
REMARK    8  A    between atoms: C_9  and  C_11
REMARK    9  A    between atoms: C_9  and  S_12
REMARK   10  A    between atoms: S_12  and  C_13
REMARK   11  A    between atoms: C_15  and  C_31
REMARK   12  A    between atoms: C_16  and  O_17
REMARK   13  A    between atoms: O_17  and  C_18
REMARK   14  A    between atoms: C_18  and  C_20
REMARK   15  A    between atoms: C_20  and  C_21
REMARK   16  A    between atoms: C_21  and  C_22
REMARK   17  A    between atoms: C_22  and  O_23
REMARK   18  A    between atoms: C_25  and  C_27
REMARK   19  A    between atoms: C_27  and  C_28
REMARK   20  A    between atoms: C_27  and  C_29
REMARK   21  A    between atoms: C_27  and  C_30
REMARK   22  A    between atoms: C_31  and  C_32
REMARK   23  A    between atoms: C_31  and  C_33
REMARK   24  A    between atoms: C_31  and  C_34
REMARK   25  A    between atoms: C_36  and  C_39
REMARK   26  A    between atoms: C_37  and  O_38
REMARK   27  A    between atoms: C_39  and  C_40
REMARK   28  A    between atoms: C_39  and  C_41
REMARK   29  A    between atoms: C_39  and  C_42
REMARK                            x       y       z     vdW  Elec       q    Type
REMARK                         _______ _______ _______ _____ _____    ______ ____
ROOT
ATOM      1  C   UNL     1       7.466   0.125  25.812  0.00  0.00    +0.010 A 
ATOM      2  C   UNL     1       7.891   0.161  24.493  0.00  0.00    +0.022 A 
ATOM      3  C   UNL     1       8.081   1.377  23.777  0.00  0.00    +0.002 A 
ATOM      4  C   UNL     1       7.653   2.592  24.435  0.00  0.00    +0.139 A 
ATOM      5  C   UNL     1       7.163   2.570  25.774  0.00  0.00    +0.002 A 
ATOM      6  C   UNL     1       7.192   1.327  26.434  0.00  0.00    +0.022 A 
ENDROOT
BRANCH   3   7
ATOM      7  C   UNL     1       8.805   1.240  22.402  0.00  0.00    -0.009 C 
ATOM      8  C   UNL     1       7.975   1.870  21.267  0.00  0.00    +0.015 C 
ATOM      9  C   UNL     1       9.024  -0.255  21.987  0.00  0.00    +0.015 C 
ATOM     10  C   UNL     1      10.209   1.871  22.412  0.00  0.00    +0.015 C 
ENDBRANCH   3   7
BRANCH   5  11
ATOM     11  C   UNL     1       6.629   3.744  26.609  0.00  0.00    -0.009 C 
ATOM     12  C   UNL     1       6.465   3.281  28.081  0.00  0.00    +0.015 C 
ATOM     13  C   UNL     1       5.426   4.344  25.852  0.00  0.00    +0.015 C 
ATOM     14  C   UNL     1       7.577   4.979  26.771  0.00  0.00    +0.015 C 
ENDBRANCH   5  11
BRANCH   1  15
ATOM     15  S   UNL     1       7.428  -1.399  26.737  0.00  0.00    -0.108 S 
BRANCH  15  16
ATOM     16  C   UNL     1       5.598  -1.719  27.017  0.00  0.00    +0.066 C 
ATOM     17  C   UNL     1       5.095  -0.784  28.117  0.00  0.00    +0.035 C 
ATOM     18  C   UNL     1       4.932  -1.391  25.674  0.00  0.00    +0.035 C 
BRANCH  16  19
ATOM     19  S   UNL     1       5.310  -3.503  27.443  0.00  0.00    -0.108 S 
BRANCH  19  24
ATOM     20  C   UNL     1       3.444  -5.557  24.494  0.00  0.00    +0.001 A 
ATOM     21  C   UNL     1       4.409  -5.489  23.458  0.00  0.00    +0.124 A 
ATOM     22  C   UNL     1       5.638  -4.790  23.570  0.00  0.00    +0.001 A 
ATOM     23  C   UNL     1       5.908  -4.205  24.824  0.00  0.00    +0.022 A 
ATOM     24  C   UNL     1       5.000  -4.284  25.882  0.00  0.00    +0.010 A 
ATOM     25  C   UNL     1       3.772  -4.910  25.694  0.00  0.00    +0.022 A 
BRANCH  20  27
ATOM     26  C   UNL     1       1.187  -6.158  25.618  0.00  0.00    +0.015 C 
ATOM     27  C   UNL     1       2.092  -6.297  24.363  0.00  0.00    -0.009 C 
ATOM     28  C   UNL     1       1.271  -5.728  23.185  0.00  0.00    +0.015 C 
ATOM     29  C   UNL     1       2.312  -7.812  24.169  0.00  0.00    +0.015 C 
ENDBRANCH  20  27
BRANCH  22  30
ATOM     30  C   UNL     1       6.703  -4.710  22.443  0.00  0.00    -0.009 C 
ATOM     31  C   UNL     1       6.167  -4.023  21.158  0.00  0.00    +0.015 C 
ATOM     32  C   UNL     1       7.235  -6.081  21.961  0.00  0.00    +0.015 C 
ATOM     33  C   UNL     1       7.890  -3.877  22.966  0.00  0.00    +0.015 C 
ENDBRANCH  22  30
BRANCH  21  34
ATOM     34  O   UNL     1       4.140  -6.167  22.304  0.00  0.00    -0.506 OA
ATOM     35  H   UNL     1       4.117  -7.105  22.555  0.00  0.00    +0.292 HD
ENDBRANCH  21  34
ENDBRANCH  19  24
ENDBRANCH  16  19
ENDBRANCH  15  16
ENDBRANCH   1  15
BRANCH   4  36
ATOM     36  O   UNL     1       7.750   3.844  23.651  0.00  0.00    -0.425 OA
BRANCH  36  37
ATOM     37  C   UNL     1       8.565   5.011  23.485  0.00  0.00    +0.313 C 
ATOM     38  O   UNL     1       8.353   5.990  22.767  0.00  0.00    -0.250 OA
BRANCH  37  39
ATOM     39  C   UNL     1       9.883   4.907  24.179  0.00  0.00    +0.132 C 
BRANCH  39  40
ATOM     40  C   UNL     1      10.783   6.000  23.630  0.00  0.00    +0.131 C 
BRANCH  40  41
ATOM     41  C   UNL     1      12.244   5.661  23.772  0.00  0.00    +0.305 C 
ATOM     42  O   UNL     1      12.852   4.854  23.085  0.00  0.00    -0.251 OA
BRANCH  41  43
ATOM     43  O   UNL     1      12.830   6.363  24.766  0.00  0.00    -0.481 OA
ATOM     44  H   UNL     1      12.774   7.332  24.654  0.00  0.00    +0.295 HD
ENDBRANCH  41  43
ENDBRANCH  40  41
ENDBRANCH  39  40
ENDBRANCH  37  39
ENDBRANCH  36  37
ENDBRANCH   4  36
TORSDOF 15
ENDMDL
MODEL 5
REMARK VINA RESULT:      -6.8      1.970     10.297
REMARK  Name = 
REMARK  29 active torsions:
REMARK  status: ('A' for Active; 'I' for Inactive)
REMARK    1  A    between atoms: C_1  and  C_2
REMARK    2  A    between atoms: C_2  and  C_3
REMARK    3  A    between atoms: C_2  and  C_4
REMARK    4  A    between atoms: C_2  and  C_5
REMARK    5  A    between atoms: C_7  and  S_8
REMARK    6  A    between atoms: S_8  and  C_9
REMARK    7  A    between atoms: C_9  and  C_10
REMARK    8  A    between atoms: C_9  and  C_11
REMARK    9  A    between atoms: C_9  and  S_12
REMARK   10  A    between atoms: S_12  and  C_13
REMARK   11  A    between atoms: C_15  and  C_31
REMARK   12  A    between atoms: C_16  and  O_17
REMARK   13  A    between atoms: O_17  and  C_18
REMARK   14  A    between atoms: C_18  and  C_20
REMARK   15  A    between atoms: C_20  and  C_21
REMARK   16  A    between atoms: C_21  and  C_22
REMARK   17  A    between atoms: C_22  and  O_23
REMARK   18  A    between atoms: C_25  and  C_27
REMARK   19  A    between atoms: C_27  and  C_28
REMARK   20  A    between atoms: C_27  and  C_29
REMARK   21  A    between atoms: C_27  and  C_30
REMARK   22  A    between atoms: C_31  and  C_32
REMARK   23  A    between atoms: C_31  and  C_33
REMARK   24  A    between atoms: C_31  and  C_34
REMARK   25  A    between atoms: C_36  and  C_39
REMARK   26  A    between atoms: C_37  and  O_38
REMARK   27  A    between atoms: C_39  and  C_40
REMARK   28  A    between atoms: C_39  and  C_41
REMARK   29  A    between atoms: C_39  and  C_42
REMARK                            x       y       z     vdW  Elec       q    Type
REMARK                         _______ _______ _______ _____ _____    ______ ____
ROOT
ATOM      1  C   UNL     1       6.719  -2.385  26.343  0.00  0.00    +0.010 A 
ATOM      2  C   UNL     1       7.066  -2.727  25.045  0.00  0.00    +0.022 A 
ATOM      3  C   UNL     1       6.542  -3.875  24.385  0.00  0.00    +0.002 A 
ATOM      4  C   UNL     1       5.744  -4.777  25.185  0.00  0.00    +0.139 A 
ATOM      5  C   UNL     1       5.419  -4.468  26.539  0.00  0.00    +0.002 A 
ATOM      6  C   UNL     1       5.850  -3.217  27.020  0.00  0.00    +0.022 A 
ENDROOT
BRANCH   3   7
ATOM      7  C   UNL     1       6.836  -3.961  22.855  0.00  0.00    -0.009 C 
ATOM      8  C   UNL     1       5.603  -3.559  22.024  0.00  0.00    +0.015 C 
ATOM      9  C   UNL     1       7.199  -5.416  22.397  0.00  0.00    +0.015 C 
ATOM     10  C   UNL     1       8.035  -3.090  22.438  0.00  0.00    +0.015 C 
ENDBRANCH   3   7
BRANCH   5  11
ATOM     11  C   UNL     1       4.627  -5.319  27.544  0.00  0.00    -0.009 C 
ATOM     12  C   UNL     1       5.302  -6.710  27.667  0.00  0.00    +0.015 C 
ATOM     13  C   UNL     1       3.135  -5.218  27.165  0.00  0.00    +0.015 C 
ATOM     14  C   UNL     1       4.632  -4.834  29.032  0.00  0.00    +0.015 C 
ENDBRANCH   5  11
BRANCH   1  15
ATOM     15  S   UNL     1       7.236  -0.839  27.069  0.00  0.00    -0.108 S 
BRANCH  15  16
ATOM     16  C   UNL     1       5.898   0.377  26.557  0.00  0.00    +0.066 C 
ATOM     17  C   UNL     1       5.728   0.315  25.039  0.00  0.00    +0.035 C 
ATOM     18  C   UNL     1       4.630  -0.111  27.270  0.00  0.00    +0.035 C 
BRANCH  16  19
ATOM     19  S   UNL     1       6.325   2.089  27.134  0.00  0.00    -0.108 S 
BRANCH  19  24
ATOM     20  C   UNL     1       9.260   2.078  24.344  0.00  0.00    +0.001 A 
ATOM     21  C   UNL     1       9.394   3.464  24.081  0.00  0.00    +0.124 A 
ATOM     22  C   UNL     1       8.587   4.463  24.682  0.00  0.00    +0.001 A 
ATOM     23  C   UNL     1       7.660   4.016  25.646  0.00  0.00    +0.022 A 
ATOM     24  C   UNL     1       7.527   2.662  25.963  0.00  0.00    +0.010 A 
ATOM     25  C   UNL     1       8.285   1.714  25.283  0.00  0.00    +0.022 A 
BRANCH  20  27
ATOM     26  C   UNL     1      10.131   1.077  22.118  0.00  0.00    +0.015 C 
ATOM     27  C   UNL     1      10.123   0.986  23.669  0.00  0.00    -0.009 C 
ATOM     28  C   UNL     1      11.599   1.110  24.107  0.00  0.00    +0.015 C 
ATOM     29  C   UNL     1       9.589  -0.422  24.004  0.00  0.00    +0.015 C 
ENDBRANCH  20  27
BRANCH  22  30
ATOM     30  C   UNL     1       8.725   5.983  24.402  0.00  0.00    -0.009 C 
ATOM     31  C   UNL     1       8.368   6.359  22.938  0.00  0.00    +0.015 C 
ATOM     32  C   UNL     1      10.149   6.552  24.615  0.00  0.00    +0.015 C 
ATOM     33  C   UNL     1       7.751   6.731  25.334  0.00  0.00    +0.015 C 
ENDBRANCH  22  30
BRANCH  21  34
ATOM     34  O   UNL     1      10.382   3.847  23.220  0.00  0.00    -0.506 OA
ATOM     35  H   UNL     1      10.026   3.688  22.331  0.00  0.00    +0.292 HD
ENDBRANCH  21  34
ENDBRANCH  19  24
ENDBRANCH  16  19
ENDBRANCH  15  16
ENDBRANCH   1  15
BRANCH   4  36
ATOM     36  O   UNL     1       5.289  -6.024  24.530  0.00  0.00    -0.425 OA
BRANCH  36  37
ATOM     37  C   UNL     1       4.102  -6.741  24.170  0.00  0.00    +0.313 C 
ATOM     38  O   UNL     1       3.782  -7.889  24.486  0.00  0.00    -0.250 OA
BRANCH  37  39
ATOM     39  C   UNL     1       3.257  -6.013  23.177  0.00  0.00    +0.132 C 
BRANCH  39  40
ATOM     40  C   UNL     1       1.807  -6.372  23.449  0.00  0.00    +0.131 C 
BRANCH  40  41
ATOM     41  C   UNL     1       1.196  -7.171  22.329  0.00  0.00    +0.305 C 
ATOM     42  O   UNL     1       0.443  -6.730  21.474  0.00  0.00    -0.251 OA
BRANCH  41  43
ATOM     43  O   UNL     1       1.578  -8.466  22.367  0.00  0.00    -0.481 OA
ATOM     44  H   UNL     1       1.560  -8.859  23.262  0.00  0.00    +0.295 HD
ENDBRANCH  41  43
ENDBRANCH  40  41
ENDBRANCH  39  40
ENDBRANCH  37  39
ENDBRANCH  36  37
ENDBRANCH   4  36
TORSDOF 15
ENDMDL
MODEL 6
REMARK VINA RESULT:      -6.8      1.320      3.355
REMARK  Name = 
REMARK  29 active torsions:
REMARK  status: ('A' for Active; 'I' for Inactive)
REMARK    1  A    between atoms: C_1  and  C_2
REMARK    2  A    between atoms: C_2  and  C_3
REMARK    3  A    between atoms: C_2  and  C_4
REMARK    4  A    between atoms: C_2  and  C_5
REMARK    5  A    between atoms: C_7  and  S_8
REMARK    6  A    between atoms: S_8  and  C_9
REMARK    7  A    between atoms: C_9  and  C_10
REMARK    8  A    between atoms: C_9  and  C_11
REMARK    9  A    between atoms: C_9  and  S_12
REMARK   10  A    between atoms: S_12  and  C_13
REMARK   11  A    between atoms: C_15  and  C_31
REMARK   12  A    between atoms: C_16  and  O_17
REMARK   13  A    between atoms: O_17  and  C_18
REMARK   14  A    between atoms: C_18  and  C_20
REMARK   15  A    between atoms: C_20  and  C_21
REMARK   16  A    between atoms: C_21  and  C_22
REMARK   17  A    between atoms: C_22  and  O_23
REMARK   18  A    between atoms: C_25  and  C_27
REMARK   19  A    between atoms: C_27  and  C_28
REMARK   20  A    between atoms: C_27  and  C_29
REMARK   21  A    between atoms: C_27  and  C_30
REMARK   22  A    between atoms: C_31  and  C_32
REMARK   23  A    between atoms: C_31  and  C_33
REMARK   24  A    between atoms: C_31  and  C_34
REMARK   25  A    between atoms: C_36  and  C_39
REMARK   26  A    between atoms: C_37  and  O_38
REMARK   27  A    between atoms: C_39  and  C_40
REMARK   28  A    between atoms: C_39  and  C_41
REMARK   29  A    between atoms: C_39  and  C_42
REMARK                            x       y       z     vdW  Elec       q    Type
REMARK                         _______ _______ _______ _____ _____    ______ ____
ROOT
ATOM      1  C   UNL     1       7.549   0.121  25.868  0.00  0.00    +0.010 A 
ATOM      2  C   UNL     1       7.150   1.311  26.456  0.00  0.00    +0.022 A 
ATOM      3  C   UNL     1       7.100   2.543  25.745  0.00  0.00    +0.002 A 
ATOM      4  C   UNL     1       7.642   2.543  24.405  0.00  0.00    +0.139 A 
ATOM      5  C   UNL     1       8.107   1.338  23.800  0.00  0.00    +0.002 A 
ATOM      6  C   UNL     1       7.938   0.154  24.543  0.00  0.00    +0.022 A 
ENDROOT
BRANCH   3   7
ATOM      7  C   UNL     1       6.386   3.717  26.486  0.00  0.00    -0.009 C 
ATOM      8  C   UNL     1       7.393   4.800  26.919  0.00  0.00    +0.015 C 
ATOM      9  C   UNL     1       5.676   3.249  27.802  0.00  0.00    +0.015 C 
ATOM     10  C   UNL     1       5.281   4.365  25.632  0.00  0.00    +0.015 C 
ENDBRANCH   3   7
BRANCH   5  11
ATOM     11  C   UNL     1       8.749   1.156  22.415  0.00  0.00    -0.009 C 
ATOM     12  C   UNL     1       7.866   1.863  21.354  0.00  0.00    +0.015 C 
ATOM     13  C   UNL     1       9.096  -0.339  22.255  0.00  0.00    +0.015 C 
ATOM     14  C   UNL     1      10.133   1.851  22.186  0.00  0.00    +0.015 C 
ENDBRANCH   5  11
BRANCH   1  15
ATOM     15  S   UNL     1       7.413  -1.436  26.728  0.00  0.00    -0.108 S 
BRANCH  15  16
ATOM     16  C   UNL     1       5.566  -1.640  27.013  0.00  0.00    +0.066 C 
ATOM     17  C   UNL     1       5.124  -0.669  28.107  0.00  0.00    +0.035 C 
ATOM     18  C   UNL     1       4.919  -1.280  25.668  0.00  0.00    +0.035 C 
BRANCH  16  19
ATOM     19  S   UNL     1       5.170  -3.400  27.449  0.00  0.00    -0.108 S 
BRANCH  19  24
ATOM     20  C   UNL     1       3.387  -5.471  24.461  0.00  0.00    +0.001 A 
ATOM     21  C   UNL     1       4.384  -5.416  23.456  0.00  0.00    +0.124 A 
ATOM     22  C   UNL     1       5.612  -4.722  23.599  0.00  0.00    +0.001 A 
ATOM     23  C   UNL     1       5.846  -4.127  24.856  0.00  0.00    +0.022 A 
ATOM     24  C   UNL     1       4.905  -4.193  25.886  0.00  0.00    +0.010 A 
ATOM     25  C   UNL     1       3.680  -4.815  25.665  0.00  0.00    +0.022 A 
BRANCH  20  27
ATOM     26  C   UNL     1       1.240  -5.759  23.038  0.00  0.00    +0.015 C 
ATOM     27  C   UNL     1       2.036  -6.207  24.295  0.00  0.00    -0.009 C 
ATOM     28  C   UNL     1       2.260  -7.726  24.134  0.00  0.00    +0.015 C 
ATOM     29  C   UNL     1       1.110  -5.934  25.498  0.00  0.00    +0.015 C 
ENDBRANCH  20  27
BRANCH  22  30
ATOM     30  C   UNL     1       6.711  -4.656  22.506  0.00  0.00    -0.009 C 
ATOM     31  C   UNL     1       6.224  -3.960  21.205  0.00  0.00    +0.015 C 
ATOM     32  C   UNL     1       7.239  -6.034  22.038  0.00  0.00    +0.015 C 
ATOM     33  C   UNL     1       7.893  -3.840  23.066  0.00  0.00    +0.015 C 
ENDBRANCH  22  30
BRANCH  21  34
ATOM     34  O   UNL     1       4.148  -6.103  22.299  0.00  0.00    -0.506 OA
ATOM     35  H   UNL     1       4.261  -5.454  21.586  0.00  0.00    +0.292 HD
ENDBRANCH  21  34
ENDBRANCH  19  24
ENDBRANCH  16  19
ENDBRANCH  15  16
ENDBRANCH   1  15
BRANCH   4  36
ATOM     36  O   UNL     1       7.689   3.847  23.704  0.00  0.00    -0.425 OA
BRANCH  36  37
ATOM     37  C   UNL     1       8.533   4.986  23.499  0.00  0.00    +0.313 C 
ATOM     38  O   UNL     1       8.344   5.946  22.748  0.00  0.00    -0.250 OA
BRANCH  37  39
ATOM     39  C   UNL     1       9.850   4.873  24.193  0.00  0.00    +0.132 C 
BRANCH  39  40
ATOM     40  C   UNL     1      10.737   5.998  23.692  0.00  0.00    +0.131 C 
BRANCH  40  41
ATOM     41  C   UNL     1      12.200   5.651  23.774  0.00  0.00    +0.305 C 
ATOM     42  O   UNL     1      12.767   4.810  23.092  0.00  0.00    -0.251 OA
BRANCH  41  43
ATOM     43  O   UNL     1      12.842   6.388  24.707  0.00  0.00    -0.481 OA
ATOM     44  H   UNL     1      12.992   7.317  24.444  0.00  0.00    +0.295 HD
ENDBRANCH  41  43
ENDBRANCH  40  41
ENDBRANCH  39  40
ENDBRANCH  37  39
ENDBRANCH  36  37
ENDBRANCH   4  36
TORSDOF 15
ENDMDL
MODEL 7
REMARK VINA RESULT:      -6.8      2.046     10.279
REMARK  Name = 
REMARK  29 active torsions:
REMARK  status: ('A' for Active; 'I' for Inactive)
REMARK    1  A    between atoms: C_1  and  C_2
REMARK    2  A    between atoms: C_2  and  C_3
REMARK    3  A    between atoms: C_2  and  C_4
REMARK    4  A    between atoms: C_2  and  C_5
REMARK    5  A    between atoms: C_7  and  S_8
REMARK    6  A    between atoms: S_8  and  C_9
REMARK    7  A    between atoms: C_9  and  C_10
REMARK    8  A    between atoms: C_9  and  C_11
REMARK    9  A    between atoms: C_9  and  S_12
REMARK   10  A    between atoms: S_12  and  C_13
REMARK   11  A    between atoms: C_15  and  C_31
REMARK   12  A    between atoms: C_16  and  O_17
REMARK   13  A    between atoms: O_17  and  C_18
REMARK   14  A    between atoms: C_18  and  C_20
REMARK   15  A    between atoms: C_20  and  C_21
REMARK   16  A    between atoms: C_21  and  C_22
REMARK   17  A    between atoms: C_22  and  O_23
REMARK   18  A    between atoms: C_25  and  C_27
REMARK   19  A    between atoms: C_27  and  C_28
REMARK   20  A    between atoms: C_27  and  C_29
REMARK   21  A    between atoms: C_27  and  C_30
REMARK   22  A    between atoms: C_31  and  C_32
REMARK   23  A    between atoms: C_31  and  C_33
REMARK   24  A    between atoms: C_31  and  C_34
REMARK   25  A    between atoms: C_36  and  C_39
REMARK   26  A    between atoms: C_37  and  O_38
REMARK   27  A    between atoms: C_39  and  C_40
REMARK   28  A    between atoms: C_39  and  C_41
REMARK   29  A    between atoms: C_39  and  C_42
REMARK                            x       y       z     vdW  Elec       q    Type
REMARK                         _______ _______ _______ _____ _____    ______ ____
ROOT
ATOM      1  C   UNL     1       6.770  -2.366  26.245  0.00  0.00    +0.010 A 
ATOM      2  C   UNL     1       5.930  -3.175  26.995  0.00  0.00    +0.022 A 
ATOM      3  C   UNL     1       5.487  -4.451  26.546  0.00  0.00    +0.002 A 
ATOM      4  C   UNL     1       5.821  -4.813  25.186  0.00  0.00    +0.139 A 
ATOM      5  C   UNL     1       6.642  -3.970  24.381  0.00  0.00    +0.002 A 
ATOM      6  C   UNL     1       7.162  -2.819  25.002  0.00  0.00    +0.022 A 
ENDROOT
BRANCH   3   7
ATOM      7  C   UNL     1       4.765  -5.327  27.617  0.00  0.00    -0.009 C 
ATOM      8  C   UNL     1       4.967  -4.756  29.034  0.00  0.00    +0.015 C 
ATOM      9  C   UNL     1       5.323  -6.791  27.668  0.00  0.00    +0.015 C 
ATOM     10  C   UNL     1       3.259  -5.472  27.339  0.00  0.00    +0.015 C 
ENDBRANCH   3   7
BRANCH   5  11
ATOM     11  C   UNL     1       7.059  -4.170  22.915  0.00  0.00    -0.009 C 
ATOM     12  C   UNL     1       7.570  -5.623  22.731  0.00  0.00    +0.015 C 
ATOM     13  C   UNL     1       7.961  -2.981  22.522  0.00  0.00    +0.015 C 
ATOM     14  C   UNL     1       5.919  -4.099  21.844  0.00  0.00    +0.015 C 
ENDBRANCH   5  11
BRANCH   1  15
ATOM     15  S   UNL     1       7.463  -0.866  26.918  0.00  0.00    -0.108 S 
BRANCH  15  16
ATOM     16  C   UNL     1       6.029   0.348  26.900  0.00  0.00    +0.066 C 
ATOM     17  C   UNL     1       5.436   0.392  25.492  0.00  0.00    +0.035 C 
ATOM     18  C   UNL     1       5.018  -0.223  27.903  0.00  0.00    +0.035 C 
BRANCH  16  19
ATOM     19  S   UNL     1       6.594   2.024  27.463  0.00  0.00    -0.108 S 
BRANCH  19  24
ATOM     20  C   UNL     1       7.127   4.644  24.421  0.00  0.00    +0.001 A 
ATOM     21  C   UNL     1       8.236   4.067  23.753  0.00  0.00    +0.124 A 
ATOM     22  C   UNL     1       8.908   2.901  24.201  0.00  0.00    +0.001 A 
ATOM     23  C   UNL     1       8.365   2.269  25.338  0.00  0.00    +0.022 A 
ATOM     24  C   UNL     1       7.248   2.784  26.000  0.00  0.00    +0.010 A 
ATOM     25  C   UNL     1       6.677   3.977  25.569  0.00  0.00    +0.022 A 
BRANCH  20  27
ATOM     26  C   UNL     1       5.737   5.784  22.554  0.00  0.00    +0.015 C 
ATOM     27  C   UNL     1       6.411   5.930  23.946  0.00  0.00    -0.009 C 
ATOM     28  C   UNL     1       5.280   6.316  24.924  0.00  0.00    +0.015 C 
ATOM     29  C   UNL     1       7.411   7.097  23.809  0.00  0.00    +0.015 C 
ENDBRANCH  20  27
BRANCH  22  30
ATOM     30  C   UNL     1      10.123   2.261  23.478  0.00  0.00    -0.009 C 
ATOM     31  C   UNL     1       9.781   1.777  22.041  0.00  0.00    +0.015 C 
ATOM     32  C   UNL     1      10.707   1.012  24.182  0.00  0.00    +0.015 C 
ATOM     33  C   UNL     1      11.230   3.328  23.367  0.00  0.00    +0.015 C 
ENDBRANCH  22  30
BRANCH  21  34
ATOM     34  O   UNL     1       8.651   4.661  22.595  0.00  0.00    -0.506 OA
ATOM     35  H   UNL     1       8.659   5.614  22.783  0.00  0.00    +0.292 HD
ENDBRANCH  21  34
ENDBRANCH  19  24
ENDBRANCH  16  19
ENDBRANCH  15  16
ENDBRANCH   1  15
BRANCH   4  36
ATOM     36  O   UNL     1       5.270  -6.092  24.683  0.00  0.00    -0.425 OA
BRANCH  36  37
ATOM     37  C   UNL     1       4.037  -6.722  24.316  0.00  0.00    +0.313 C 
ATOM     38  O   UNL     1       3.687  -7.887  24.520  0.00  0.00    -0.250 OA
BRANCH  37  39
ATOM     39  C   UNL     1       3.170  -5.858  23.460  0.00  0.00    +0.132 C 
BRANCH  39  40
ATOM     40  C   UNL     1       1.735  -6.320  23.637  0.00  0.00    +0.131 C 
BRANCH  40  41
ATOM     41  C   UNL     1       1.190  -6.980  22.398  0.00  0.00    +0.305 C 
ATOM     42  O   UNL     1       0.443  -6.454  21.587  0.00  0.00    -0.251 OA
BRANCH  41  43
ATOM     43  O   UNL     1       1.625  -8.252  22.272  0.00  0.00    -0.481 OA
ATOM     44  H   UNL     1       0.997  -8.843  21.812  0.00  0.00    +0.295 HD
ENDBRANCH  41  43
ENDBRANCH  40  41
ENDBRANCH  39  40
ENDBRANCH  37  39
ENDBRANCH  36  37
ENDBRANCH   4  36
TORSDOF 15
ENDMDL
MODEL 8
REMARK VINA RESULT:      -6.7      2.101     10.204
REMARK  Name = 
REMARK  29 active torsions:
REMARK  status: ('A' for Active; 'I' for Inactive)
REMARK    1  A    between atoms: C_1  and  C_2
REMARK    2  A    between atoms: C_2  and  C_3
REMARK    3  A    between atoms: C_2  and  C_4
REMARK    4  A    between atoms: C_2  and  C_5
REMARK    5  A    between atoms: C_7  and  S_8
REMARK    6  A    between atoms: S_8  and  C_9
REMARK    7  A    between atoms: C_9  and  C_10
REMARK    8  A    between atoms: C_9  and  C_11
REMARK    9  A    between atoms: C_9  and  S_12
REMARK   10  A    between atoms: S_12  and  C_13
REMARK   11  A    between atoms: C_15  and  C_31
REMARK   12  A    between atoms: C_16  and  O_17
REMARK   13  A    between atoms: O_17  and  C_18
REMARK   14  A    between atoms: C_18  and  C_20
REMARK   15  A    between atoms: C_20  and  C_21
REMARK   16  A    between atoms: C_21  and  C_22
REMARK   17  A    between atoms: C_22  and  O_23
REMARK   18  A    between atoms: C_25  and  C_27
REMARK   19  A    between atoms: C_27  and  C_28
REMARK   20  A    between atoms: C_27  and  C_29
REMARK   21  A    between atoms: C_27  and  C_30
REMARK   22  A    between atoms: C_31  and  C_32
REMARK   23  A    between atoms: C_31  and  C_33
REMARK   24  A    between atoms: C_31  and  C_34
REMARK   25  A    between atoms: C_36  and  C_39
REMARK   26  A    between atoms: C_37  and  O_38
REMARK   27  A    between atoms: C_39  and  C_40
REMARK   28  A    between atoms: C_39  and  C_41
REMARK   29  A    between atoms: C_39  and  C_42
REMARK                            x       y       z     vdW  Elec       q    Type
REMARK                         _______ _______ _______ _____ _____    ______ ____
ROOT
ATOM      1  C   UNL     1       6.983  -2.323  26.348  0.00  0.00    +0.010 A 
ATOM      2  C   UNL     1       7.282  -2.629  25.030  0.00  0.00    +0.022 A 
ATOM      3  C   UNL     1       6.717  -3.747  24.352  0.00  0.00    +0.002 A 
ATOM      4  C   UNL     1       5.931  -4.662  25.150  0.00  0.00    +0.139 A 
ATOM      5  C   UNL     1       5.655  -4.390  26.523  0.00  0.00    +0.002 A 
ATOM      6  C   UNL     1       6.122  -3.162  27.028  0.00  0.00    +0.022 A 
ENDROOT
BRANCH   3   7
ATOM      7  C   UNL     1       6.960  -3.790  22.811  0.00  0.00    -0.009 C 
ATOM      8  C   UNL     1       7.408  -5.192  22.354  0.00  0.00    +0.015 C 
ATOM      9  C   UNL     1       8.098  -2.813  22.358  0.00  0.00    +0.015 C 
ATOM     10  C   UNL     1       5.716  -3.370  22.009  0.00  0.00    +0.015 C 
ENDBRANCH   3   7
BRANCH   5  11
ATOM     11  C   UNL     1       4.883  -5.260  27.527  0.00  0.00    -0.009 C 
ATOM     12  C   UNL     1       3.380  -5.257  27.143  0.00  0.00    +0.015 C 
ATOM     13  C   UNL     1       5.316  -4.833  28.944  0.00  0.00    +0.015 C 
ATOM     14  C   UNL     1       5.205  -6.792  27.522  0.00  0.00    +0.015 C 
ENDBRANCH   5  11
BRANCH   1  15
ATOM     15  S   UNL     1       7.549  -0.809  27.104  0.00  0.00    -0.108 S 
BRANCH  15  16
ATOM     16  C   UNL     1       6.046   0.318  27.052  0.00  0.00    +0.066 C 
ATOM     17  C   UNL     1       5.382   0.193  25.681  0.00  0.00    +0.035 C 
ATOM     18  C   UNL     1       5.122  -0.209  28.158  0.00  0.00    +0.035 C 
BRANCH  16  19
ATOM     19  S   UNL     1       6.538   2.069  27.424  0.00  0.00    -0.108 S 
BRANCH  19  24
ATOM     20  C   UNL     1       6.746   4.301  24.052  0.00  0.00    +0.001 A 
ATOM     21  C   UNL     1       7.937   3.803  23.465  0.00  0.00    +0.124 A 
ATOM     22  C   UNL     1       8.759   2.815  24.066  0.00  0.00    +0.001 A 
ATOM     23  C   UNL     1       8.291   2.273  25.280  0.00  0.00    +0.022 A 
ATOM     24  C   UNL     1       7.103   2.708  25.870  0.00  0.00    +0.010 A 
ATOM     25  C   UNL     1       6.376   3.739  25.281  0.00  0.00    +0.022 A 
BRANCH  20  27
ATOM     26  C   UNL     1       4.754   4.829  22.480  0.00  0.00    +0.015 C 
ATOM     27  C   UNL     1       5.863   5.396  23.408  0.00  0.00    -0.009 C 
ATOM     28  C   UNL     1       5.129   6.212  24.494  0.00  0.00    +0.015 C 
ATOM     29  C   UNL     1       6.711   6.336  22.525  0.00  0.00    +0.015 C 
ENDBRANCH  20  27
BRANCH  22  30
ATOM     30  C   UNL     1      10.064   2.262  23.433  0.00  0.00    -0.009 C 
ATOM     31  C   UNL     1       9.851   1.720  21.993  0.00  0.00    +0.015 C 
ATOM     32  C   UNL     1      10.704   1.082  24.204  0.00  0.00    +0.015 C 
ATOM     33  C   UNL     1      11.085   3.415  23.360  0.00  0.00    +0.015 C 
ENDBRANCH  22  30
BRANCH  21  34
ATOM     34  O   UNL     1       8.282   4.288  22.236  0.00  0.00    -0.506 OA
ATOM     35  H   UNL     1       9.093   4.803  22.380  0.00  0.00    +0.292 HD
ENDBRANCH  21  34
ENDBRANCH  19  24
ENDBRANCH  16  19
ENDBRANCH  15  16
ENDBRANCH   1  15
BRANCH   4  36
ATOM     36  O   UNL     1       5.434  -5.880  24.472  0.00  0.00    -0.425 OA
BRANCH  36  37
ATOM     37  C   UNL     1       4.224  -6.569  24.134  0.00  0.00    +0.313 C 
ATOM     38  O   UNL     1       3.916  -7.735  24.390  0.00  0.00    -0.250 OA
BRANCH  37  39
ATOM     39  C   UNL     1       3.330  -5.775  23.239  0.00  0.00    +0.132 C 
BRANCH  39  40
ATOM     40  C   UNL     1       1.898  -6.190  23.528  0.00  0.00    +0.131 C 
BRANCH  40  41
ATOM     41  C   UNL     1       1.296  -6.987  22.401  0.00  0.00    +0.305 C 
ATOM     42  O   UNL     1       0.536  -6.548  21.551  0.00  0.00    -0.251 OA
BRANCH  41  43
ATOM     43  O   UNL     1       1.695  -8.278  22.427  0.00  0.00    -0.481 OA
ATOM     44  H   UNL     1       0.965  -8.921  22.338  0.00  0.00    +0.295 HD
ENDBRANCH  41  43
ENDBRANCH  40  41
ENDBRANCH  39  40
ENDBRANCH  37  39
ENDBRANCH  36  37
ENDBRANCH   4  36
TORSDOF 15
ENDMDL
MODEL 9
REMARK VINA RESULT:      -6.7      1.957     10.219
REMARK  Name = 
REMARK  29 active torsions:
REMARK  status: ('A' for Active; 'I' for Inactive)
REMARK    1  A    between atoms: C_1  and  C_2
REMARK    2  A    between atoms: C_2  and  C_3
REMARK    3  A    between atoms: C_2  and  C_4
REMARK    4  A    between atoms: C_2  and  C_5
REMARK    5  A    between atoms: C_7  and  S_8
REMARK    6  A    between atoms: S_8  and  C_9
REMARK    7  A    between atoms: C_9  and  C_10
REMARK    8  A    between atoms: C_9  and  C_11
REMARK    9  A    between atoms: C_9  and  S_12
REMARK   10  A    between atoms: S_12  and  C_13
REMARK   11  A    between atoms: C_15  and  C_31
REMARK   12  A    between atoms: C_16  and  O_17
REMARK   13  A    between atoms: O_17  and  C_18
REMARK   14  A    between atoms: C_18  and  C_20
REMARK   15  A    between atoms: C_20  and  C_21
REMARK   16  A    between atoms: C_21  and  C_22
REMARK   17  A    between atoms: C_22  and  O_23
REMARK   18  A    between atoms: C_25  and  C_27
REMARK   19  A    between atoms: C_27  and  C_28
REMARK   20  A    between atoms: C_27  and  C_29
REMARK   21  A    between atoms: C_27  and  C_30
REMARK   22  A    between atoms: C_31  and  C_32
REMARK   23  A    between atoms: C_31  and  C_33
REMARK   24  A    between atoms: C_31  and  C_34
REMARK   25  A    between atoms: C_36  and  C_39
REMARK   26  A    between atoms: C_37  and  O_38
REMARK   27  A    between atoms: C_39  and  C_40
REMARK   28  A    between atoms: C_39  and  C_41
REMARK   29  A    between atoms: C_39  and  C_42
REMARK                            x       y       z     vdW  Elec       q    Type
REMARK                         _______ _______ _______ _____ _____    ______ ____
ROOT
ATOM      1  C   UNL     1       6.433  -2.233  26.385  0.00  0.00    +0.010 A 
ATOM      2  C   UNL     1       5.651  -3.119  27.109  0.00  0.00    +0.022 A 
ATOM      3  C   UNL     1       5.304  -4.413  26.625  0.00  0.00    +0.002 A 
ATOM      4  C   UNL     1       5.669  -4.716  25.260  0.00  0.00    +0.139 A 
ATOM      5  C   UNL     1       6.430  -3.794  24.480  0.00  0.00    +0.002 A 
ATOM      6  C   UNL     1       6.863  -2.625  25.133  0.00  0.00    +0.022 A 
ENDROOT
BRANCH   3   7
ATOM      7  C   UNL     1       4.643  -5.365  27.670  0.00  0.00    -0.009 C 
ATOM      8  C   UNL     1       5.309  -6.755  27.661  0.00  0.00    +0.015 C 
ATOM      9  C   UNL     1       3.126  -5.620  27.371  0.00  0.00    +0.015 C 
ATOM     10  C   UNL     1       4.688  -4.792  29.098  0.00  0.00    +0.015 C 
ENDBRANCH   3   7
BRANCH   5  11
ATOM     11  C   UNL     1       6.868  -3.927  23.013  0.00  0.00    -0.009 C 
ATOM     12  C   UNL     1       5.677  -3.543  22.096  0.00  0.00    +0.015 C 
ATOM     13  C   UNL     1       7.551  -5.301  22.853  0.00  0.00    +0.015 C 
ATOM     14  C   UNL     1       7.977  -2.938  22.519  0.00  0.00    +0.015 C 
ENDBRANCH   5  11
BRANCH   1  15
ATOM     15  S   UNL     1       7.012  -0.704  27.099  0.00  0.00    -0.108 S 
BRANCH  15  16
ATOM     16  C   UNL     1       5.768   0.575  26.511  0.00  0.00    +0.066 C 
ATOM     17  C   UNL     1       5.650   0.487  24.989  0.00  0.00    +0.035 C 
ATOM     18  C   UNL     1       4.447   0.178  27.186  0.00  0.00    +0.035 C 
BRANCH  16  19
ATOM     19  S   UNL     1       6.273   2.272  27.067  0.00  0.00    -0.108 S 
BRANCH  19  24
ATOM     20  C   UNL     1       9.242   2.117  24.318  0.00  0.00    +0.001 A 
ATOM     21  C   UNL     1       9.369   3.486  23.973  0.00  0.00    +0.124 A 
ATOM     22  C   UNL     1       8.547   4.513  24.503  0.00  0.00    +0.001 A 
ATOM     23  C   UNL     1       7.611   4.117  25.481  0.00  0.00    +0.022 A 
ATOM     24  C   UNL     1       7.484   2.784  25.878  0.00  0.00    +0.010 A 
ATOM     25  C   UNL     1       8.258   1.803  25.266  0.00  0.00    +0.022 A 
BRANCH  20  27
ATOM     26  C   UNL     1      10.049   0.912  22.170  0.00  0.00    +0.015 C 
ATOM     27  C   UNL     1      10.122   0.994  23.720  0.00  0.00    -0.009 C 
ATOM     28  C   UNL     1      11.610   1.228  24.061  0.00  0.00    +0.015 C 
ATOM     29  C   UNL     1       9.673  -0.389  24.236  0.00  0.00    +0.015 C 
ENDBRANCH  20  27
BRANCH  22  30
ATOM     30  C   UNL     1       8.676   6.015  24.133  0.00  0.00    -0.009 C 
ATOM     31  C   UNL     1       7.856   6.939  25.075  0.00  0.00    +0.015 C 
ATOM     32  C   UNL     1       8.184   6.372  22.709  0.00  0.00    +0.015 C 
ATOM     33  C   UNL     1      10.161   6.411  24.255  0.00  0.00    +0.015 C 
ENDBRANCH  22  30
BRANCH  21  34
ATOM     34  O   UNL     1      10.364   3.825  23.102  0.00  0.00    -0.506 OA
ATOM     35  H   UNL     1      10.569   3.011  22.614  0.00  0.00    +0.292 HD
ENDBRANCH  21  34
ENDBRANCH  19  24
ENDBRANCH  16  19
ENDBRANCH  15  16
ENDBRANCH   1  15
BRANCH   4  36
ATOM     36  O   UNL     1       5.215  -6.018  24.721  0.00  0.00    -0.425 OA
BRANCH  36  37
ATOM     37  C   UNL     1       4.036  -6.716  24.303  0.00  0.00    +0.313 C 
ATOM     38  O   UNL     1       3.752  -7.902  24.480  0.00  0.00    -0.250 OA
BRANCH  37  39
ATOM     39  C   UNL     1       3.149  -5.893  23.427  0.00  0.00    +0.132 C 
BRANCH  39  40
ATOM     40  C   UNL     1       1.723  -6.374  23.628  0.00  0.00    +0.131 C 
BRANCH  40  41
ATOM     41  C   UNL     1       1.177  -7.069  22.409  0.00  0.00    +0.305 C 
ATOM     42  O   UNL     1       0.443  -6.561  21.575  0.00  0.00    -0.251 OA
BRANCH  41  43
ATOM     43  O   UNL     1       1.594  -8.351  22.330  0.00  0.00    -0.481 OA
ATOM     44  H   UNL     1       1.113  -8.962  22.922  0.00  0.00    +0.295 HD
ENDBRANCH  41  43
ENDBRANCH  40  41
ENDBRANCH  39  40
ENDBRANCH  37  39
ENDBRANCH  36  37
ENDBRANCH   4  36
TORSDOF 15
ENDMDL
