MODEL 1
REMARK VINA RESULT:      -6.3      0.000      0.000
REMARK  Name = 
REMARK  12 active torsions:
REMARK  status: ('A' for Active; 'I' for Inactive)
REMARK    1  A    between atoms: C_1  and  C_2
REMARK    2  A    between atoms: C_2  and  O_3
REMARK    3  A    between atoms: O_3  and  C_4
REMARK    4  A    between atoms: C_5  and  N_6
REMARK    5  A    between atoms: C_7  and  C_9
REMARK    6  A    between atoms: C_11  and  C_12
REMARK    7  A    between atoms: C_13  and  O_14
REMARK    8  A    between atoms: O_14  and  C_15
REMARK    9  A    between atoms: C_15  and  C_16
REMARK   10  A    between atoms: C_16  and  N_17
REMARK   11  A    between atoms: C_18  and  C_19
REMARK   12  A    between atoms: C_22  and  N_26
REMARK                            x       y       z     vdW  Elec       q    Type
REMARK                         _______ _______ _______ _____ _____    ______ ____
ROOT
ATOM      1  N   UNL     1       7.962  -0.742  25.019  0.00  0.00    -0.278 N 
ATOM      2  H   UNL     1       8.914  -0.555  24.724  0.00  0.00    +0.155 HD
ATOM      3  C   UNL     1       7.088   0.278  24.670  0.00  0.00    +0.248 C 
ATOM      4  O   UNL     1       5.936   0.127  24.283  0.00  0.00    -0.270 OA
ENDROOT
BRANCH   3   5
ATOM      5  C   UNL     1       7.677   1.642  24.718  0.00  0.00    +0.038 A 
ATOM      6  C   UNL     1       7.045   2.699  25.361  0.00  0.00    +0.020 A 
ATOM      7  C   UNL     1       7.632   3.982  25.392  0.00  0.00    -0.008 A 
ATOM      8  C   UNL     1       6.823   5.039  26.105  0.00  0.00    +0.047 C 
ATOM      9  C   UNL     1       8.888   4.217  24.759  0.00  0.00    +0.126 A 
ATOM     10  C   UNL     1       9.513   3.135  24.076  0.00  0.00    -0.008 A 
ATOM     11  C   UNL     1      10.819   3.147  23.317  0.00  0.00    +0.047 C 
ATOM     12  C   UNL     1       8.889   1.867  24.077  0.00  0.00    +0.020 A 
BRANCH   9  13
ATOM     13  O   UNL     1       9.364   5.517  24.888  0.00  0.00    -0.490 OA
BRANCH  13  14
ATOM     14  C   UNL     1       9.442   6.297  23.694  0.00  0.00    +0.244 C 
BRANCH  14  15
ATOM     15  C   UNL     1       8.119   6.739  23.059  0.00  0.00    +0.119 C 
BRANCH  15  16
ATOM     16  N   UNL     1       7.848   6.096  21.775  0.00  0.00    -0.327 NA
ATOM     17  H   UNL     1       7.128   5.384  21.904  0.00  0.00    +0.118 HD
ATOM     18  H   UNL     1       7.461   6.790  21.139  0.00  0.00    +0.118 HD
ENDBRANCH  15  16
ENDBRANCH  14  15
ENDBRANCH  13  14
ENDBRANCH   9  13
ENDBRANCH   3   5
BRANCH   1  25
ATOM     19  C   UNL     1       7.637  -2.799  23.702  0.00  0.00    +0.160 A 
ATOM     20  C   UNL     1       7.224  -4.140  23.721  0.00  0.00    +0.086 A 
ATOM     21 CL   UNL     1       7.306  -5.124  22.294  0.00  0.00    -0.080 Cl
ATOM     22  C   UNL     1       6.682  -4.722  24.876  0.00  0.00    +0.047 A 
ATOM     23  C   UNL     1       6.515  -4.000  26.063  0.00  0.00    +0.033 A 
ATOM     24  C   UNL     1       6.930  -2.662  26.028  0.00  0.00    +0.050 A 
ATOM     25  C   UNL     1       7.527  -2.075  24.890  0.00  0.00    +0.079 A 
BRANCH  23  26
ATOM     26  N   UNL     1       5.918  -4.539  27.194  0.00  0.00    -0.330 N 
ATOM     27  C   UNL     1       6.506  -5.670  27.926  0.00  0.00    +0.105 C 
ATOM     28  C   UNL     1       5.388  -6.636  28.322  0.00  0.00    +0.019 C 
ATOM     29  C   UNL     1       4.264  -5.935  29.083  0.00  0.00    +0.003 C 
ATOM     30  C   UNL     1       3.772  -4.699  28.329  0.00  0.00    +0.019 C 
ATOM     31  C   UNL     1       4.936  -3.774  27.975  0.00  0.00    +0.105 C 
ENDBRANCH  23  26
BRANCH  19  32
ATOM     32  O   UNL     1       8.081  -2.324  22.494  0.00  0.00    -0.489 OA
BRANCH  32  34
ATOM     33  C   UNL     1       9.490  -0.637  21.543  0.00  0.00    +0.048 C 
ATOM     34  C   UNL     1       9.436  -1.895  22.393  0.00  0.00    +0.226 C 
ENDBRANCH  32  34
ENDBRANCH  19  32
ENDBRANCH   1  25
TORSDOF 9
ENDMDL
MODEL 2
REMARK VINA RESULT:      -6.2      3.637      9.299
REMARK  Name = 
REMARK  12 active torsions:
REMARK  status: ('A' for Active; 'I' for Inactive)
REMARK    1  A    between atoms: C_1  and  C_2
REMARK    2  A    between atoms: C_2  and  O_3
REMARK    3  A    between atoms: O_3  and  C_4
REMARK    4  A    between atoms: C_5  and  N_6
REMARK    5  A    between atoms: C_7  and  C_9
REMARK    6  A    between atoms: C_11  and  C_12
REMARK    7  A    between atoms: C_13  and  O_14
REMARK    8  A    between atoms: O_14  and  C_15
REMARK    9  A    between atoms: C_15  and  C_16
REMARK   10  A    between atoms: C_16  and  N_17
REMARK   11  A    between atoms: C_18  and  C_19
REMARK   12  A    between atoms: C_22  and  N_26
REMARK                            x       y       z     vdW  Elec       q    Type
REMARK                         _______ _______ _______ _____ _____    ______ ____
ROOT
ATOM      1  N   UNL     1       6.357  -1.279  23.349  0.00  0.00    -0.278 N 
ATOM      2  H   UNL     1       6.761  -2.030  22.801  0.00  0.00    +0.155 HD
ATOM      3  C   UNL     1       5.676  -1.743  24.466  0.00  0.00    +0.248 C 
ATOM      4  O   UNL     1       5.666  -1.206  25.567  0.00  0.00    -0.270 OA
ENDROOT
BRANCH   3   5
ATOM      5  C   UNL     1       4.983  -3.043  24.273  0.00  0.00    +0.038 A 
ATOM      6  C   UNL     1       3.891  -3.422  25.046  0.00  0.00    +0.020 A 
ATOM      7  C   UNL     1       3.252  -4.662  24.835  0.00  0.00    -0.008 A 
ATOM      8  C   UNL     1       2.095  -4.950  25.762  0.00  0.00    +0.047 C 
ATOM      9  C   UNL     1       3.718  -5.553  23.824  0.00  0.00    +0.126 A 
ATOM     10  C   UNL     1       4.856  -5.169  23.059  0.00  0.00    -0.008 A 
ATOM     11  C   UNL     1       5.541  -5.949  21.962  0.00  0.00    +0.047 C 
ATOM     12  C   UNL     1       5.460  -3.915  23.302  0.00  0.00    +0.020 A 
BRANCH   9  13
ATOM     13  O   UNL     1       2.981  -6.726  23.706  0.00  0.00    -0.490 OA
BRANCH  13  14
ATOM     14  C   UNL     1       1.955  -6.745  22.712  0.00  0.00    +0.244 C 
BRANCH  14  15
ATOM     15  C   UNL     1       1.173  -8.052  22.540  0.00  0.00    +0.119 C 
BRANCH  15  16
ATOM     16  N   UNL     1       1.331  -8.653  21.217  0.00  0.00    -0.327 NA
ATOM     17  H   UNL     1       2.321  -8.658  20.969  0.00  0.00    +0.118 HD
ATOM     18  H   UNL     1       1.037  -9.626  21.265  0.00  0.00    +0.118 HD
ENDBRANCH  15  16
ENDBRANCH  14  15
ENDBRANCH  13  14
ENDBRANCH   9  13
ENDBRANCH   3   5
BRANCH   1  25
ATOM     19  C   UNL     1       8.446  -0.126  23.961  0.00  0.00    +0.160 A 
ATOM     20  C   UNL     1       9.142   1.092  23.975  0.00  0.00    +0.086 A 
ATOM     21 CL   UNL     1      10.768   1.190  24.575  0.00  0.00    -0.080 Cl
ATOM     22  C   UNL     1       8.536   2.286  23.555  0.00  0.00    +0.047 A 
ATOM     23  C   UNL     1       7.211   2.329  23.111  0.00  0.00    +0.033 A 
ATOM     24  C   UNL     1       6.528   1.105  23.104  0.00  0.00    +0.050 A 
ATOM     25  C   UNL     1       7.139  -0.115  23.473  0.00  0.00    +0.079 A 
BRANCH  23  26
ATOM     26  N   UNL     1       6.574   3.510  22.757  0.00  0.00    -0.330 N 
ATOM     27  C   UNL     1       7.312   4.676  22.251  0.00  0.00    +0.105 C 
ATOM     28  C   UNL     1       6.733   5.941  22.888  0.00  0.00    +0.019 C 
ATOM     29  C   UNL     1       5.221   6.044  22.693  0.00  0.00    +0.003 C 
ATOM     30  C   UNL     1       4.518   4.758  23.128  0.00  0.00    +0.019 C 
ATOM     31  C   UNL     1       5.138   3.538  22.447  0.00  0.00    +0.105 C 
ENDBRANCH  23  26
BRANCH  19  32
ATOM     32  O   UNL     1       9.121  -1.209  24.465  0.00  0.00    -0.489 OA
BRANCH  32  34
ATOM     33  C   UNL     1       9.052  -3.580  24.131  0.00  0.00    +0.048 C 
ATOM     34  C   UNL     1       9.505  -2.245  23.565  0.00  0.00    +0.226 C 
ENDBRANCH  32  34
ENDBRANCH  19  32
ENDBRANCH   1  25
TORSDOF 9
ENDMDL
MODEL 3
REMARK VINA RESULT:      -6.2      2.687      8.786
REMARK  Name = 
REMARK  12 active torsions:
REMARK  status: ('A' for Active; 'I' for Inactive)
REMARK    1  A    between atoms: C_1  and  C_2
REMARK    2  A    between atoms: C_2  and  O_3
REMARK    3  A    between atoms: O_3  and  C_4
REMARK    4  A    between atoms: C_5  and  N_6
REMARK    5  A    between atoms: C_7  and  C_9
REMARK    6  A    between atoms: C_11  and  C_12
REMARK    7  A    between atoms: C_13  and  O_14
REMARK    8  A    between atoms: O_14  and  C_15
REMARK    9  A    between atoms: C_15  and  C_16
REMARK   10  A    between atoms: C_16  and  N_17
REMARK   11  A    between atoms: C_18  and  C_19
REMARK   12  A    between atoms: C_22  and  N_26
REMARK                            x       y       z     vdW  Elec       q    Type
REMARK                         _______ _______ _______ _____ _____    ______ ____
ROOT
ATOM      1  N   UNL     1       7.986  -0.445  25.184  0.00  0.00    -0.278 N 
ATOM      2  H   UNL     1       7.780  -0.737  26.132  0.00  0.00    +0.155 HD
ATOM      3  C   UNL     1       7.143  -1.034  24.252  0.00  0.00    +0.248 C 
ATOM      4  O   UNL     1       6.687  -0.484  23.257  0.00  0.00    -0.270 OA
ENDROOT
BRANCH   3   5
ATOM      5  C   UNL     1       6.733  -2.424  24.579  0.00  0.00    +0.038 A 
ATOM      6  C   UNL     1       7.448  -3.217  25.469  0.00  0.00    +0.020 A 
ATOM      7  C   UNL     1       7.030  -4.533  25.761  0.00  0.00    -0.008 A 
ATOM      8  C   UNL     1       7.915  -5.284  26.728  0.00  0.00    +0.047 C 
ATOM      9  C   UNL     1       5.865  -5.075  25.144  0.00  0.00    +0.126 A 
ATOM     10  C   UNL     1       5.157  -4.266  24.210  0.00  0.00    -0.008 A 
ATOM     11  C   UNL     1       3.923  -4.628  23.418  0.00  0.00    +0.047 C 
ATOM     12  C   UNL     1       5.611  -2.952  23.953  0.00  0.00    +0.020 A 
BRANCH   9  13
ATOM     13  O   UNL     1       5.553  -6.370  25.541  0.00  0.00    -0.490 OA
BRANCH  13  14
ATOM     14  C   UNL     1       4.391  -6.531  26.356  0.00  0.00    +0.244 C 
BRANCH  14  15
ATOM     15  C   UNL     1       4.584  -6.446  27.874  0.00  0.00    +0.119 C 
BRANCH  15  16
ATOM     16  N   UNL     1       5.430  -7.508  28.413  0.00  0.00    -0.327 NA
ATOM     17  H   UNL     1       5.062  -7.802  29.319  0.00  0.00    +0.118 HD
ATOM     18  H   UNL     1       5.370  -8.316  27.798  0.00  0.00    +0.118 HD
ENDBRANCH  15  16
ENDBRANCH  14  15
ENDBRANCH  13  14
ENDBRANCH   9  13
ENDBRANCH   3   5
BRANCH   1  25
ATOM     19  C   UNL     1       9.436   1.326  24.272  0.00  0.00    +0.160 A 
ATOM     20  C   UNL     1       9.636   2.707  24.129  0.00  0.00    +0.086 A 
ATOM     21 CL   UNL     1      10.986   3.330  23.233  0.00  0.00    -0.080 Cl
ATOM     22  C   UNL     1       8.787   3.637  24.746  0.00  0.00    +0.047 A 
ATOM     23  C   UNL     1       7.705   3.242  25.540  0.00  0.00    +0.033 A 
ATOM     24  C   UNL     1       7.519   1.859  25.674  0.00  0.00    +0.050 A 
ATOM     25  C   UNL     1       8.332   0.909  25.017  0.00  0.00    +0.079 A 
BRANCH  23  26
ATOM     26  N   UNL     1       6.896   4.146  26.213  0.00  0.00    -0.330 N 
ATOM     27  C   UNL     1       5.737   4.785  25.574  0.00  0.00    +0.105 C 
ATOM     28  C   UNL     1       5.700   6.260  25.981  0.00  0.00    +0.019 C 
ATOM     29  C   UNL     1       5.737   6.440  27.498  0.00  0.00    +0.003 C 
ATOM     30  C   UNL     1       6.894   5.658  28.120  0.00  0.00    +0.019 C 
ATOM     31  C   UNL     1       6.864   4.194  27.682  0.00  0.00    +0.105 C 
ENDBRANCH  23  26
BRANCH  19  32
ATOM     32  O   UNL     1      10.376   0.519  23.682  0.00  0.00    -0.489 OA
BRANCH  32  34
ATOM     33  C   UNL     1      10.166  -1.459  22.348  0.00  0.00    +0.048 C 
ATOM     34  C   UNL     1      10.137   0.060  22.355  0.00  0.00    +0.226 C 
ENDBRANCH  32  34
ENDBRANCH  19  32
ENDBRANCH   1  25
TORSDOF 9
ENDMDL
MODEL 4
REMARK VINA RESULT:      -6.2      3.286      9.205
REMARK  Name = 
REMARK  12 active torsions:
REMARK  status: ('A' for Active; 'I' for Inactive)
REMARK    1  A    between atoms: C_1  and  C_2
REMARK    2  A    between atoms: C_2  and  O_3
REMARK    3  A    between atoms: O_3  and  C_4
REMARK    4  A    between atoms: C_5  and  N_6
REMARK    5  A    between atoms: C_7  and  C_9
REMARK    6  A    between atoms: C_11  and  C_12
REMARK    7  A    between atoms: C_13  and  O_14
REMARK    8  A    between atoms: O_14  and  C_15
REMARK    9  A    between atoms: C_15  and  C_16
REMARK   10  A    between atoms: C_16  and  N_17
REMARK   11  A    between atoms: C_18  and  C_19
REMARK   12  A    between atoms: C_22  and  N_26
REMARK                            x       y       z     vdW  Elec       q    Type
REMARK                         _______ _______ _______ _____ _____    ______ ____
ROOT
ATOM      1  N   UNL     1       6.529  -1.045  23.046  0.00  0.00    -0.278 N 
ATOM      2  H   UNL     1       6.780  -1.738  22.351  0.00  0.00    +0.155 HD
ATOM      3  C   UNL     1       6.494  -1.570  24.331  0.00  0.00    +0.248 C 
ATOM      4  O   UNL     1       6.869  -0.995  25.346  0.00  0.00    -0.270 OA
ENDROOT
BRANCH   3   5
ATOM      5  C   UNL     1       6.025  -2.978  24.412  0.00  0.00    +0.038 A 
ATOM      6  C   UNL     1       5.472  -3.508  25.572  0.00  0.00    +0.020 A 
ATOM      7  C   UNL     1       5.033  -4.849  25.616  0.00  0.00    -0.008 A 
ATOM      8  C   UNL     1       4.475  -5.295  26.946  0.00  0.00    +0.047 C 
ATOM      9  C   UNL     1       5.151  -5.685  24.468  0.00  0.00    +0.126 A 
ATOM     10  C   UNL     1       5.746  -5.142  23.294  0.00  0.00    -0.008 A 
ATOM     11  C   UNL     1       6.000  -5.836  21.976  0.00  0.00    +0.047 C 
ATOM     12  C   UNL     1       6.167  -3.793  23.296  0.00  0.00    +0.020 A 
BRANCH   9  13
ATOM     13  O   UNL     1       4.655  -6.973  24.640  0.00  0.00    -0.490 OA
BRANCH  13  14
ATOM     14  C   UNL     1       3.324  -7.217  24.182  0.00  0.00    +0.244 C 
BRANCH  14  15
ATOM     15  C   UNL     1       2.338  -7.824  25.187  0.00  0.00    +0.119 C 
BRANCH  15  16
ATOM     16  N   UNL     1       2.317  -9.285  25.168  0.00  0.00    -0.327 NA
ATOM     17  H   UNL     1       3.014  -9.638  25.825  0.00  0.00    +0.118 HD
ATOM     18  H   UNL     1       1.411  -9.602  25.507  0.00  0.00    +0.118 HD
ENDBRANCH  15  16
ENDBRANCH  14  15
ENDBRANCH  13  14
ENDBRANCH   9  13
ENDBRANCH   3   5
BRANCH   1  25
ATOM     19  C   UNL     1       8.413   0.463  22.548  0.00  0.00    +0.160 A 
ATOM     20  C   UNL     1       8.815   1.788  22.324  0.00  0.00    +0.086 A 
ATOM     21 CL   UNL     1      10.464   2.174  21.945  0.00  0.00    -0.080 Cl
ATOM     22  C   UNL     1       7.914   2.857  22.449  0.00  0.00    +0.047 A 
ATOM     23  C   UNL     1       6.577   2.662  22.809  0.00  0.00    +0.033 A 
ATOM     24  C   UNL     1       6.191   1.333  23.032  0.00  0.00    +0.050 A 
ATOM     25  C   UNL     1       7.071   0.241  22.860  0.00  0.00    +0.079 A 
BRANCH  23  26
ATOM     26  N   UNL     1       5.690   3.711  23.004  0.00  0.00    -0.330 N 
ATOM     27  C   UNL     1       4.244   3.496  23.153  0.00  0.00    +0.105 C 
ATOM     28  C   UNL     1       3.500   4.575  22.362  0.00  0.00    +0.019 C 
ATOM     29  C   UNL     1       3.951   5.983  22.746  0.00  0.00    +0.003 C 
ATOM     30  C   UNL     1       5.473   6.114  22.685  0.00  0.00    +0.019 C 
ATOM     31  C   UNL     1       6.150   5.015  23.503  0.00  0.00    +0.105 C 
ENDBRANCH  23  26
BRANCH  19  32
ATOM     32  O   UNL     1       9.401  -0.486  22.469  0.00  0.00    -0.489 OA
BRANCH  32  34
ATOM     33  C   UNL     1       9.985  -2.409  23.773  0.00  0.00    +0.048 C 
ATOM     34  C   UNL     1      10.045  -0.894  23.674  0.00  0.00    +0.226 C 
ENDBRANCH  32  34
ENDBRANCH  19  32
ENDBRANCH   1  25
TORSDOF 9
ENDMDL
MODEL 5
REMARK VINA RESULT:      -6.2      3.347      9.376
REMARK  Name = 
REMARK  12 active torsions:
REMARK  status: ('A' for Active; 'I' for Inactive)
REMARK    1  A    between atoms: C_1  and  C_2
REMARK    2  A    between atoms: C_2  and  O_3
REMARK    3  A    between atoms: O_3  and  C_4
REMARK    4  A    between atoms: C_5  and  N_6
REMARK    5  A    between atoms: C_7  and  C_9
REMARK    6  A    between atoms: C_11  and  C_12
REMARK    7  A    between atoms: C_13  and  O_14
REMARK    8  A    between atoms: O_14  and  C_15
REMARK    9  A    between atoms: C_15  and  C_16
REMARK   10  A    between atoms: C_16  and  N_17
REMARK   11  A    between atoms: C_18  and  C_19
REMARK   12  A    between atoms: C_22  and  N_26
REMARK                            x       y       z     vdW  Elec       q    Type
REMARK                         _______ _______ _______ _____ _____    ______ ____
ROOT
ATOM      1  N   UNL     1       6.401  -0.780  22.853  0.00  0.00    -0.278 N 
ATOM      2  H   UNL     1       6.648  -1.447  22.131  0.00  0.00    +0.155 HD
ATOM      3  C   UNL     1       6.247  -1.376  24.097  0.00  0.00    +0.248 C 
ATOM      4  O   UNL     1       6.594  -0.891  25.167  0.00  0.00    -0.270 OA
ENDROOT
BRANCH   3   5
ATOM      5  C   UNL     1       5.677  -2.748  24.060  0.00  0.00    +0.038 A 
ATOM      6  C   UNL     1       6.045  -3.677  23.094  0.00  0.00    +0.020 A 
ATOM      7  C   UNL     1       5.488  -4.974  23.087  0.00  0.00    -0.008 A 
ATOM      8  C   UNL     1       5.963  -5.868  21.968  0.00  0.00    +0.047 C 
ATOM      9  C   UNL     1       4.532  -5.353  24.074  0.00  0.00    +0.126 A 
ATOM     10  C   UNL     1       4.138  -4.385  25.041  0.00  0.00    -0.008 A 
ATOM     11  C   UNL     1       3.132  -4.544  26.157  0.00  0.00    +0.047 C 
ATOM     12  C   UNL     1       4.727  -3.100  25.010  0.00  0.00    +0.020 A 
BRANCH   9  13
ATOM     13  O   UNL     1       4.085  -6.666  23.968  0.00  0.00    -0.490 OA
BRANCH  13  14
ATOM     14  C   UNL     1       2.741  -6.855  23.523  0.00  0.00    +0.244 C 
BRANCH  14  15
ATOM     15  C   UNL     1       1.958  -8.020  24.138  0.00  0.00    +0.119 C 
BRANCH  15  16
ATOM     16  N   UNL     1       2.742  -8.812  25.084  0.00  0.00    -0.327 NA
ATOM     17  H   UNL     1       2.387  -8.652  26.027  0.00  0.00    +0.118 HD
ATOM     18  H   UNL     1       2.598  -9.798  24.880  0.00  0.00    +0.118 HD
ENDBRANCH  15  16
ENDBRANCH  14  15
ENDBRANCH  13  14
ENDBRANCH   9  13
ENDBRANCH   3   5
BRANCH   1  25
ATOM     19  C   UNL     1       8.415   0.613  22.581  0.00  0.00    +0.160 A 
ATOM     20  C   UNL     1       8.921   1.916  22.464  0.00  0.00    +0.086 A 
ATOM     21 CL   UNL     1      10.617   2.202  22.228  0.00  0.00    -0.080 Cl
ATOM     22  C   UNL     1       8.089   3.038  22.586  0.00  0.00    +0.047 A 
ATOM     23  C   UNL     1       6.718   2.921  22.837  0.00  0.00    +0.033 A 
ATOM     24  C   UNL     1       6.227   1.613  22.953  0.00  0.00    +0.050 A 
ATOM     25  C   UNL     1       7.041   0.472  22.781  0.00  0.00    +0.079 A 
BRANCH  23  26
ATOM     26  N   UNL     1       5.892   4.020  23.029  0.00  0.00    -0.330 N 
ATOM     27  C   UNL     1       4.450   3.881  23.277  0.00  0.00    +0.105 C 
ATOM     28  C   UNL     1       3.706   4.951  22.475  0.00  0.00    +0.019 C 
ATOM     29  C   UNL     1       4.241   6.355  22.755  0.00  0.00    +0.003 C 
ATOM     30  C   UNL     1       5.760   6.410  22.595  0.00  0.00    +0.019 C 
ATOM     31  C   UNL     1       6.439   5.324  23.429  0.00  0.00    +0.105 C 
ENDBRANCH  23  26
BRANCH  19  32
ATOM     32  O   UNL     1       9.340  -0.398  22.518  0.00  0.00    -0.489 OA
BRANCH  32  34
ATOM     33  C   UNL     1       9.813  -2.392  23.759  0.00  0.00    +0.048 C 
ATOM     34  C   UNL     1       9.905  -0.876  23.736  0.00  0.00    +0.226 C 
ENDBRANCH  32  34
ENDBRANCH  19  32
ENDBRANCH   1  25
TORSDOF 9
ENDMDL
MODEL 6
REMARK VINA RESULT:      -6.1      3.747      9.707
REMARK  Name = 
REMARK  12 active torsions:
REMARK  status: ('A' for Active; 'I' for Inactive)
REMARK    1  A    between atoms: C_1  and  C_2
REMARK    2  A    between atoms: C_2  and  O_3
REMARK    3  A    between atoms: O_3  and  C_4
REMARK    4  A    between atoms: C_5  and  N_6
REMARK    5  A    between atoms: C_7  and  C_9
REMARK    6  A    between atoms: C_11  and  C_12
REMARK    7  A    between atoms: C_13  and  O_14
REMARK    8  A    between atoms: O_14  and  C_15
REMARK    9  A    between atoms: C_15  and  C_16
REMARK   10  A    between atoms: C_16  and  N_17
REMARK   11  A    between atoms: C_18  and  C_19
REMARK   12  A    between atoms: C_22  and  N_26
REMARK                            x       y       z     vdW  Elec       q    Type
REMARK                         _______ _______ _______ _____ _____    ______ ____
ROOT
ATOM      1  N   UNL     1       5.790  -3.036  24.270  0.00  0.00    -0.278 N 
ATOM      2  H   UNL     1       5.220  -2.762  25.062  0.00  0.00    +0.155 HD
ATOM      3  C   UNL     1       5.064  -3.723  23.307  0.00  0.00    +0.248 C 
ATOM      4  O   UNL     1       5.206  -3.612  22.095  0.00  0.00    -0.270 OA
ENDROOT
BRANCH   3   5
ATOM      5  C   UNL     1       3.987  -4.594  23.846  0.00  0.00    +0.038 A 
ATOM      6  C   UNL     1       3.245  -5.443  23.033  0.00  0.00    +0.020 A 
ATOM      7  C   UNL     1       2.231  -6.260  23.577  0.00  0.00    -0.008 A 
ATOM      8  C   UNL     1       1.493  -7.114  22.574  0.00  0.00    +0.047 C 
ATOM      9  C   UNL     1       1.947  -6.226  24.973  0.00  0.00    +0.126 A 
ATOM     10  C   UNL     1       2.692  -5.330  25.792  0.00  0.00    -0.008 A 
ATOM     11  C   UNL     1       2.554  -5.101  27.279  0.00  0.00    +0.047 C 
ATOM     12  C   UNL     1       3.701  -4.535  25.204  0.00  0.00    +0.020 A 
BRANCH   9  13
ATOM     13  O   UNL     1       0.944  -7.100  25.378  0.00  0.00    -0.490 OA
BRANCH  13  14
ATOM     14  C   UNL     1       1.362  -8.315  26.003  0.00  0.00    +0.244 C 
BRANCH  14  15
ATOM     15  C   UNL     1       1.077  -9.621  25.253  0.00  0.00    +0.119 C 
BRANCH  15  16
ATOM     16  N   UNL     1       2.033 -10.685  25.556  0.00  0.00    -0.327 NA
ATOM     17  H   UNL     1       2.867 -10.557  24.982  0.00  0.00    +0.118 HD
ATOM     18  H   UNL     1       2.327 -10.592  26.525  0.00  0.00    +0.118 HD
ENDBRANCH  15  16
ENDBRANCH  14  15
ENDBRANCH  13  14
ENDBRANCH   9  13
ENDBRANCH   3   5
BRANCH   1  25
ATOM     19  C   UNL     1       8.056  -2.452  23.499  0.00  0.00    +0.160 A 
ATOM     20  C   UNL     1       8.899  -1.434  23.032  0.00  0.00    +0.086 A 
ATOM     21 CL   UNL     1      10.544  -1.764  22.586  0.00  0.00    -0.080 Cl
ATOM     22  C   UNL     1       8.466  -0.102  22.957  0.00  0.00    +0.047 A 
ATOM     23  C   UNL     1       7.180   0.283  23.350  0.00  0.00    +0.033 A 
ATOM     24  C   UNL     1       6.349  -0.745  23.815  0.00  0.00    +0.050 A 
ATOM     25  C   UNL     1       6.751  -2.099  23.847  0.00  0.00    +0.079 A 
BRANCH  23  26
ATOM     26  N   UNL     1       6.757   1.605  23.347  0.00  0.00    -0.330 N 
ATOM     27  C   UNL     1       5.510   2.029  23.999  0.00  0.00    +0.105 C 
ATOM     28  C   UNL     1       4.799   3.038  23.096  0.00  0.00    +0.019 C 
ATOM     29  C   UNL     1       5.709   4.202  22.704  0.00  0.00    +0.003 C 
ATOM     30  C   UNL     1       7.038   3.699  22.141  0.00  0.00    +0.019 C 
ATOM     31  C   UNL     1       7.698   2.706  23.096  0.00  0.00    +0.105 C 
ENDBRANCH  23  26
BRANCH  19  32
ATOM     32  O   UNL     1       8.618  -3.700  23.596  0.00  0.00    -0.489 OA
BRANCH  32  34
ATOM     33  C   UNL     1       8.363  -5.197  25.449  0.00  0.00    +0.048 C 
ATOM     34  C   UNL     1       9.200  -4.085  24.839  0.00  0.00    +0.226 C 
ENDBRANCH  32  34
ENDBRANCH  19  32
ENDBRANCH   1  25
TORSDOF 9
ENDMDL
MODEL 7
REMARK VINA RESULT:      -6.1      3.498      9.022
REMARK  Name = 
REMARK  12 active torsions:
REMARK  status: ('A' for Active; 'I' for Inactive)
REMARK    1  A    between atoms: C_1  and  C_2
REMARK    2  A    between atoms: C_2  and  O_3
REMARK    3  A    between atoms: O_3  and  C_4
REMARK    4  A    between atoms: C_5  and  N_6
REMARK    5  A    between atoms: C_7  and  C_9
REMARK    6  A    between atoms: C_11  and  C_12
REMARK    7  A    between atoms: C_13  and  O_14
REMARK    8  A    between atoms: O_14  and  C_15
REMARK    9  A    between atoms: C_15  and  C_16
REMARK   10  A    between atoms: C_16  and  N_17
REMARK   11  A    between atoms: C_18  and  C_19
REMARK   12  A    between atoms: C_22  and  N_26
REMARK                            x       y       z     vdW  Elec       q    Type
REMARK                         _______ _______ _______ _____ _____    ______ ____
ROOT
ATOM      1  N   UNL     1       7.218   1.079  24.115  0.00  0.00    -0.278 N 
ATOM      2  H   UNL     1       6.484   0.730  24.720  0.00  0.00    +0.155 HD
ATOM      3  C   UNL     1       7.531   0.194  23.093  0.00  0.00    +0.248 C 
ATOM      4  O   UNL     1       7.809   0.505  21.942  0.00  0.00    -0.270 OA
ENDROOT
BRANCH   3   5
ATOM      5  C   UNL     1       7.428  -1.242  23.465  0.00  0.00    +0.038 A 
ATOM      6  C   UNL     1       8.505  -1.951  23.984  0.00  0.00    +0.020 A 
ATOM      7  C   UNL     1       8.375  -3.313  24.330  0.00  0.00    -0.008 A 
ATOM      8  C   UNL     1       9.632  -3.961  24.860  0.00  0.00    +0.047 C 
ATOM      9  C   UNL     1       7.133  -3.988  24.150  0.00  0.00    +0.126 A 
ATOM     10  C   UNL     1       6.044  -3.261  23.589  0.00  0.00    -0.008 A 
ATOM     11  C   UNL     1       4.653  -3.764  23.283  0.00  0.00    +0.047 C 
ATOM     12  C   UNL     1       6.220  -1.898  23.263  0.00  0.00    +0.020 A 
BRANCH   9  13
ATOM     13  O   UNL     1       7.136  -5.318  24.557  0.00  0.00    -0.490 OA
BRANCH  13  14
ATOM     14  C   UNL     1       6.351  -5.642  25.705  0.00  0.00    +0.244 C 
BRANCH  14  15
ATOM     15  C   UNL     1       6.808  -5.067  27.050  0.00  0.00    +0.119 C 
BRANCH  15  16
ATOM     16  N   UNL     1       7.568  -6.017  27.860  0.00  0.00    -0.327 NA
ATOM     17  H   UNL     1       8.309  -6.424  27.288  0.00  0.00    +0.118 HD
ATOM     18  H   UNL     1       8.026  -5.510  28.614  0.00  0.00    +0.118 HD
ENDBRANCH  15  16
ENDBRANCH  14  15
ENDBRANCH  13  14
ENDBRANCH   9  13
ENDBRANCH   3   5
BRANCH   1  25
ATOM     19  C   UNL     1       8.283   3.294  23.941  0.00  0.00    +0.160 A 
ATOM     20  C   UNL     1       8.125   4.634  23.558  0.00  0.00    +0.086 A 
ATOM     21 CL   UNL     1       9.438   5.763  23.680  0.00  0.00    -0.080 Cl
ATOM     22  C   UNL     1       6.890   5.127  23.112  0.00  0.00    +0.047 A 
ATOM     23  C   UNL     1       5.752   4.317  23.034  0.00  0.00    +0.033 A 
ATOM     24  C   UNL     1       5.925   2.981  23.421  0.00  0.00    +0.050 A 
ATOM     25  C   UNL     1       7.174   2.455  23.823  0.00  0.00    +0.079 A 
BRANCH  23  26
ATOM     26  N   UNL     1       4.507   4.802  22.661  0.00  0.00    -0.330 N 
ATOM     27  C   UNL     1       3.353   3.917  22.451  0.00  0.00    +0.105 C 
ATOM     28  C   UNL     1       2.592   4.384  21.207  0.00  0.00    +0.019 C 
ATOM     29  C   UNL     1       2.221   5.865  21.282  0.00  0.00    +0.003 C 
ATOM     30  C   UNL     1       3.439   6.724  21.619  0.00  0.00    +0.019 C 
ATOM     31  C   UNL     1       4.143   6.210  22.874  0.00  0.00    +0.105 C 
ENDBRANCH  23  26
BRANCH  19  32
ATOM     32  O   UNL     1       9.519   2.951  24.430  0.00  0.00    -0.489 OA
BRANCH  32  34
ATOM     33  C   UNL     1      10.943   1.051  24.111  0.00  0.00    +0.048 C 
ATOM     34  C   UNL     1      10.463   2.372  23.533  0.00  0.00    +0.226 C 
ENDBRANCH  32  34
ENDBRANCH  19  32
ENDBRANCH   1  25
TORSDOF 9
ENDMDL
MODEL 8
REMARK VINA RESULT:      -6.0      1.194      2.011
REMARK  Name = 
REMARK  12 active torsions:
REMARK  status: ('A' for Active; 'I' for Inactive)
REMARK    1  A    between atoms: C_1  and  C_2
REMARK    2  A    between atoms: C_2  and  O_3
REMARK    3  A    between atoms: O_3  and  C_4
REMARK    4  A    between atoms: C_5  and  N_6
REMARK    5  A    between atoms: C_7  and  C_9
REMARK    6  A    between atoms: C_11  and  C_12
REMARK    7  A    between atoms: C_13  and  O_14
REMARK    8  A    between atoms: O_14  and  C_15
REMARK    9  A    between atoms: C_15  and  C_16
REMARK   10  A    between atoms: C_16  and  N_17
REMARK   11  A    between atoms: C_18  and  C_19
REMARK   12  A    between atoms: C_22  and  N_26
REMARK                            x       y       z     vdW  Elec       q    Type
REMARK                         _______ _______ _______ _____ _____    ______ ____
ROOT
ATOM      1  N   UNL     1       8.322  -0.581  25.901  0.00  0.00    -0.278 N 
ATOM      2  H   UNL     1       9.303  -0.340  25.974  0.00  0.00    +0.155 HD
ATOM      3  C   UNL     1       7.652   0.194  24.965  0.00  0.00    +0.248 C 
ATOM      4  O   UNL     1       6.777  -0.203  24.205  0.00  0.00    -0.270 OA
ENDROOT
BRANCH   3   5
ATOM      5  C   UNL     1       8.131   1.598  24.867  0.00  0.00    +0.038 A 
ATOM      6  C   UNL     1       9.282   1.941  24.167  0.00  0.00    +0.020 A 
ATOM      7  C   UNL     1       9.709   3.284  24.090  0.00  0.00    -0.008 A 
ATOM      8  C   UNL     1      10.986   3.505  23.316  0.00  0.00    +0.047 C 
ATOM      9  C   UNL     1       8.966   4.315  24.735  0.00  0.00    +0.126 A 
ATOM     10  C   UNL     1       7.805   3.950  25.476  0.00  0.00    -0.008 A 
ATOM     11  C   UNL     1       6.881   4.855  26.257  0.00  0.00    +0.047 C 
ATOM     12  C   UNL     1       7.414   2.593  25.520  0.00  0.00    +0.020 A 
BRANCH   9  13
ATOM     13  O   UNL     1       9.482   5.594  24.556  0.00  0.00    -0.490 OA
BRANCH  13  14
ATOM     14  C   UNL     1       9.138   6.264  23.343  0.00  0.00    +0.244 C 
BRANCH  14  15
ATOM     15  C   UNL     1       7.676   6.184  22.889  0.00  0.00    +0.119 C 
BRANCH  15  16
ATOM     16  N   UNL     1       7.515   6.235  21.437  0.00  0.00    -0.327 NA
ATOM     17  H   UNL     1       6.567   6.541  21.217  0.00  0.00    +0.118 HD
ATOM     18  H   UNL     1       8.144   6.942  21.064  0.00  0.00    +0.118 HD
ENDBRANCH  15  16
ENDBRANCH  14  15
ENDBRANCH  13  14
ENDBRANCH   9  13
ENDBRANCH   3   5
BRANCH   1  25
ATOM     19  C   UNL     1       8.727  -2.933  25.287  0.00  0.00    +0.160 A 
ATOM     20  C   UNL     1       8.364  -4.270  25.502  0.00  0.00    +0.086 A 
ATOM     21 CL   UNL     1       9.176  -5.564  24.677  0.00  0.00    -0.080 Cl
ATOM     22  C   UNL     1       7.298  -4.613  26.347  0.00  0.00    +0.047 A 
ATOM     23  C   UNL     1       6.538  -3.645  27.012  0.00  0.00    +0.033 A 
ATOM     24  C   UNL     1       6.913  -2.313  26.787  0.00  0.00    +0.050 A 
ATOM     25  C   UNL     1       8.016  -1.953  25.981  0.00  0.00    +0.079 A 
BRANCH  23  26
ATOM     26  N   UNL     1       5.439  -3.961  27.797  0.00  0.00    -0.330 N 
ATOM     27  C   UNL     1       5.471  -5.046  28.788  0.00  0.00    +0.105 C 
ATOM     28  C   UNL     1       4.152  -5.819  28.715  0.00  0.00    +0.019 C 
ATOM     29  C   UNL     1       2.938  -4.901  28.854  0.00  0.00    +0.003 C 
ATOM     30  C   UNL     1       3.019  -3.726  27.880  0.00  0.00    +0.019 C 
ATOM     31  C   UNL     1       4.353  -2.994  28.013  0.00  0.00    +0.105 C 
ENDBRANCH  23  26
BRANCH  19  32
ATOM     32  O   UNL     1       9.737  -2.722  24.382  0.00  0.00    -0.489 OA
BRANCH  32  34
ATOM     33  C   UNL     1      10.264  -1.255  22.563  0.00  0.00    +0.048 C 
ATOM     34  C   UNL     1       9.384  -2.398  23.040  0.00  0.00    +0.226 C 
ENDBRANCH  32  34
ENDBRANCH  19  32
ENDBRANCH   1  25
TORSDOF 9
ENDMDL
MODEL 9
REMARK VINA RESULT:      -6.0      2.981      8.788
REMARK  Name = 
REMARK  12 active torsions:
REMARK  status: ('A' for Active; 'I' for Inactive)
REMARK    1  A    between atoms: C_1  and  C_2
REMARK    2  A    between atoms: C_2  and  O_3
REMARK    3  A    between atoms: O_3  and  C_4
REMARK    4  A    between atoms: C_5  and  N_6
REMARK    5  A    between atoms: C_7  and  C_9
REMARK    6  A    between atoms: C_11  and  C_12
REMARK    7  A    between atoms: C_13  and  O_14
REMARK    8  A    between atoms: O_14  and  C_15
REMARK    9  A    between atoms: C_15  and  C_16
REMARK   10  A    between atoms: C_16  and  N_17
REMARK   11  A    between atoms: C_18  and  C_19
REMARK   12  A    between atoms: C_22  and  N_26
REMARK                            x       y       z     vdW  Elec       q    Type
REMARK                         _______ _______ _______ _____ _____    ______ ____
ROOT
ATOM      1  N   UNL     1       7.598   0.243  24.489  0.00  0.00    -0.278 N 
ATOM      2  H   UNL     1       7.398  -0.109  23.560  0.00  0.00    +0.155 HD
ATOM      3  C   UNL     1       8.072  -0.745  25.340  0.00  0.00    +0.248 C 
ATOM      4  O   UNL     1       8.949  -0.599  26.183  0.00  0.00    -0.270 OA
ENDROOT
BRANCH   3   5
ATOM      5  C   UNL     1       7.485  -2.092  25.114  0.00  0.00    +0.038 A 
ATOM      6  C   UNL     1       6.637  -2.359  24.046  0.00  0.00    +0.020 A 
ATOM      7  C   UNL     1       6.098  -3.650  23.856  0.00  0.00    -0.008 A 
ATOM      8  C   UNL     1       5.175  -3.789  22.669  0.00  0.00    +0.047 C 
ATOM      9  C   UNL     1       6.413  -4.704  24.762  0.00  0.00    +0.126 A 
ATOM     10  C   UNL     1       7.258  -4.413  25.870  0.00  0.00    -0.008 A 
ATOM     11  C   UNL     1       7.707  -5.350  26.967  0.00  0.00    +0.047 C 
ATOM     12  C   UNL     1       7.778  -3.107  26.016  0.00  0.00    +0.020 A 
BRANCH   9  13
ATOM     13  O   UNL     1       5.837  -5.929  24.443  0.00  0.00    -0.490 OA
BRANCH  13  14
ATOM     14  C   UNL     1       4.740  -6.356  25.251  0.00  0.00    +0.244 C 
BRANCH  14  15
ATOM     15  C   UNL     1       3.603  -7.106  24.549  0.00  0.00    +0.119 C 
BRANCH  15  16
ATOM     16  N   UNL     1       3.157  -8.295  25.272  0.00  0.00    -0.327 NA
ATOM     17  H   UNL     1       2.169  -8.193  25.505  0.00  0.00    +0.118 HD
ATOM     18  H   UNL     1       3.230  -9.099  24.653  0.00  0.00    +0.118 HD
ENDBRANCH  15  16
ENDBRANCH  14  15
ENDBRANCH  13  14
ENDBRANCH   9  13
ENDBRANCH   3   5
BRANCH   1  25
ATOM     19  C   UNL     1       9.370   1.850  23.897  0.00  0.00    +0.160 A 
ATOM     20  C   UNL     1       9.814   3.177  23.986  0.00  0.00    +0.086 A 
ATOM     21 CL   UNL     1      11.287   3.684  23.220  0.00  0.00    -0.080 Cl
ATOM     22  C   UNL     1       9.116   4.133  24.740  0.00  0.00    +0.047 A 
ATOM     23  C   UNL     1       7.952   3.815  25.446  0.00  0.00    +0.033 A 
ATOM     24  C   UNL     1       7.521   2.485  25.348  0.00  0.00    +0.050 A 
ATOM     25  C   UNL     1       8.182   1.522  24.552  0.00  0.00    +0.079 A 
BRANCH  23  26
ATOM     26  N   UNL     1       7.287   4.729  26.251  0.00  0.00    -0.330 N 
ATOM     27  C   UNL     1       7.751   6.115  26.409  0.00  0.00    +0.105 C 
ATOM     28  C   UNL     1       7.619   6.514  27.881  0.00  0.00    +0.019 C 
ATOM     29  C   UNL     1       6.207   6.278  28.416  0.00  0.00    +0.003 C 
ATOM     30  C   UNL     1       5.732   4.856  28.118  0.00  0.00    +0.019 C 
ATOM     31  C   UNL     1       5.882   4.528  26.633  0.00  0.00    +0.105 C 
ENDBRANCH  23  26
BRANCH  19  32
ATOM     32  O   UNL     1      10.177   0.992  23.193  0.00  0.00    -0.489 OA
BRANCH  32  34
ATOM     33  C   UNL     1       9.672  -0.875  21.779  0.00  0.00    +0.048 C 
ATOM     34  C   UNL     1       9.793   0.637  21.867  0.00  0.00    +0.226 C 
ENDBRANCH  32  34
ENDBRANCH  19  32
ENDBRANCH   1  25
TORSDOF 9
ENDMDL
