MODEL 1
REMARK VINA RESULT:      -5.9      0.000      0.000
REMARK  Name = 
REMARK  5 active torsions:
REMARK  status: ('A' for Active; 'I' for Inactive)
REMARK    1  A    between atoms: C_1  and  C_2
REMARK    2  A    between atoms: C_2  and  C_3
REMARK    3  A    between atoms: C_4  and  C_8
REMARK    4  A    between atoms: C_10  and  O_11
REMARK    5  A    between atoms: C_12  and  O_13
REMARK                            x       y       z     vdW  Elec       q    Type
REMARK                         _______ _______ _______ _____ _____    ______ ____
ROOT
ATOM      1  C   UNL     1      10.099   2.275  23.349  0.00  0.00    -0.007 A 
ATOM      2  C   UNL     1      10.560   1.464  24.403  0.00  0.00    +0.013 A 
ATOM      3  C   UNL     1      10.631   0.071  24.284  0.00  0.00    +0.050 A 
ATOM      4  C   UNL     1      10.264  -0.525  23.092  0.00  0.00    +0.158 A 
ATOM      5  C   UNL     1       9.826   0.249  22.025  0.00  0.00    +0.159 A 
ATOM      6  C   UNL     1       9.732   1.635  22.148  0.00  0.00    +0.058 A 
ENDROOT
BRANCH   1  11
ATOM      7  C   UNL     1      10.991   4.746  23.508  0.00  0.00    -0.033 A 
ATOM      8  C   UNL     1      10.424   6.052  23.726  0.00  0.00    +0.012 A 
ATOM      9  C   UNL     1       9.057   6.033  23.839  0.00  0.00    +0.046 A 
ATOM     10  S   UNL     1       8.435   4.464  23.661  0.00  0.00    -0.096 S 
ATOM     11  C   UNL     1      10.007   3.754  23.494  0.00  0.00    +0.023 A 
BRANCH   7  13
ATOM     12  C   UNL     1      13.060   5.538  22.319  0.00  0.00    +0.009 C 
ATOM     13  C   UNL     1      12.478   4.571  23.346  0.00  0.00    +0.033 C 
ENDBRANCH   7  13
ENDBRANCH   1  11
BRANCH   4  14
ATOM     14  O   UNL     1      10.338  -1.881  22.970  0.00  0.00    -0.503 OA
ATOM     15  H   UNL     1      10.887  -2.165  23.729  0.00  0.00    +0.292 HD
ENDBRANCH   4  14
BRANCH   5  16
ATOM     16  O   UNL     1       9.495  -0.398  20.865  0.00  0.00    -0.503 OA
ATOM     17  H   UNL     1      10.303  -0.501  20.334  0.00  0.00    +0.292 HD
ENDBRANCH   5  16
TORSDOF 4
ENDMDL
MODEL 2
REMARK VINA RESULT:      -5.7      1.377      2.309
REMARK  Name = 
REMARK  5 active torsions:
REMARK  status: ('A' for Active; 'I' for Inactive)
REMARK    1  A    between atoms: C_1  and  C_2
REMARK    2  A    between atoms: C_2  and  C_3
REMARK    3  A    between atoms: C_4  and  C_8
REMARK    4  A    between atoms: C_10  and  O_11
REMARK    5  A    between atoms: C_12  and  O_13
REMARK                            x       y       z     vdW  Elec       q    Type
REMARK                         _______ _______ _______ _____ _____    ______ ____
ROOT
ATOM      1  C   UNL     1      10.262   2.080  23.375  0.00  0.00    -0.007 A 
ATOM      2  C   UNL     1      10.572   1.240  24.460  0.00  0.00    +0.013 A 
ATOM      3  C   UNL     1      10.502  -0.155  24.356  0.00  0.00    +0.050 A 
ATOM      4  C   UNL     1      10.146  -0.725  23.149  0.00  0.00    +0.158 A 
ATOM      5  C   UNL     1       9.857   0.076  22.052  0.00  0.00    +0.159 A 
ATOM      6  C   UNL     1       9.902   1.465  22.158  0.00  0.00    +0.058 A 
ENDROOT
BRANCH   1  11
ATOM      7  C   UNL     1       9.316   4.512  23.719  0.00  0.00    -0.033 A 
ATOM      8  C   UNL     1       9.846   5.851  23.722  0.00  0.00    +0.012 A 
ATOM      9  C   UNL     1      11.206   5.892  23.545  0.00  0.00    +0.046 A 
ATOM     10  S   UNL     1      11.866   4.334  23.399  0.00  0.00    -0.096 S 
ATOM     11  C   UNL     1      10.318   3.563  23.503  0.00  0.00    +0.023 A 
BRANCH   7  13
ATOM     12  C   UNL     1       7.117   4.054  22.588  0.00  0.00    +0.009 C 
ATOM     13  C   UNL     1       7.842   4.268  23.913  0.00  0.00    +0.033 C 
ENDBRANCH   7  13
ENDBRANCH   1  11
BRANCH   4  14
ATOM     14  O   UNL     1      10.084  -2.083  23.042  0.00  0.00    -0.503 OA
ATOM     15  H   UNL     1      10.824  -2.316  22.445  0.00  0.00    +0.292 HD
ENDBRANCH   4  14
BRANCH   5  16
ATOM     16  O   UNL     1       9.529  -0.549  20.879  0.00  0.00    -0.503 OA
ATOM     17  H   UNL     1       8.580  -0.410  20.716  0.00  0.00    +0.292 HD
ENDBRANCH   5  16
TORSDOF 4
ENDMDL
MODEL 3
REMARK VINA RESULT:      -5.6      4.396      7.545
REMARK  Name = 
REMARK  5 active torsions:
REMARK  status: ('A' for Active; 'I' for Inactive)
REMARK    1  A    between atoms: C_1  and  C_2
REMARK    2  A    between atoms: C_2  and  C_3
REMARK    3  A    between atoms: C_4  and  C_8
REMARK    4  A    between atoms: C_10  and  O_11
REMARK    5  A    between atoms: C_12  and  O_13
REMARK                            x       y       z     vdW  Elec       q    Type
REMARK                         _______ _______ _______ _____ _____    ______ ____
ROOT
ATOM      1  C   UNL     1       8.410  -1.663  22.783  0.00  0.00    -0.007 A 
ATOM      2  C   UNL     1       9.594  -1.198  22.182  0.00  0.00    +0.013 A 
ATOM      3  C   UNL     1       9.710   0.112  21.700  0.00  0.00    +0.050 A 
ATOM      4  C   UNL     1       8.645   0.981  21.842  0.00  0.00    +0.158 A 
ATOM      5  C   UNL     1       7.471   0.559  22.452  0.00  0.00    +0.159 A 
ATOM      6  C   UNL     1       7.343  -0.751  22.912  0.00  0.00    +0.058 A 
ENDROOT
BRANCH   1  11
ATOM      7  C   UNL     1       7.475  -4.122  22.860  0.00  0.00    -0.033 A 
ATOM      8  C   UNL     1       7.676  -5.294  23.672  0.00  0.00    +0.012 A 
ATOM      9  C   UNL     1       8.636  -5.121  24.638  0.00  0.00    +0.046 A 
ATOM     10  S   UNL     1       9.322  -3.570  24.569  0.00  0.00    -0.096 S 
ATOM     11  C   UNL     1       8.290  -3.065  23.272  0.00  0.00    +0.023 A 
BRANCH   7  13
ATOM     12  C   UNL     1       6.275  -5.523  21.151  0.00  0.00    +0.009 C 
ATOM     13  C   UNL     1       6.469  -4.129  21.738  0.00  0.00    +0.033 C 
ENDBRANCH   7  13
ENDBRANCH   1  11
BRANCH   4  14
ATOM     14  O   UNL     1       8.758   2.259  21.381  0.00  0.00    -0.503 OA
ATOM     15  H   UNL     1       7.983   2.724  21.756  0.00  0.00    +0.292 HD
ENDBRANCH   4  14
BRANCH   5  16
ATOM     16  O   UNL     1       6.459   1.472  22.580  0.00  0.00    -0.503 OA
ATOM     17  H   UNL     1       6.444   1.781  23.502  0.00  0.00    +0.292 HD
ENDBRANCH   5  16
TORSDOF 4
ENDMDL
MODEL 4
REMARK VINA RESULT:      -5.5      4.395      7.264
REMARK  Name = 
REMARK  5 active torsions:
REMARK  status: ('A' for Active; 'I' for Inactive)
REMARK    1  A    between atoms: C_1  and  C_2
REMARK    2  A    between atoms: C_2  and  C_3
REMARK    3  A    between atoms: C_4  and  C_8
REMARK    4  A    between atoms: C_10  and  O_11
REMARK    5  A    between atoms: C_12  and  O_13
REMARK                            x       y       z     vdW  Elec       q    Type
REMARK                         _______ _______ _______ _____ _____    ______ ____
ROOT
ATOM      1  C   UNL     1       8.042  -1.584  22.517  0.00  0.00    -0.007 A 
ATOM      2  C   UNL     1       9.230  -1.334  21.805  0.00  0.00    +0.013 A 
ATOM      3  C   UNL     1       9.621  -0.035  21.457  0.00  0.00    +0.050 A 
ATOM      4  C   UNL     1       8.835   1.034  21.844  0.00  0.00    +0.158 A 
ATOM      5  C   UNL     1       7.669   0.823  22.567  0.00  0.00    +0.159 A 
ATOM      6  C   UNL     1       7.264  -0.471  22.895  0.00  0.00    +0.058 A 
ENDROOT
BRANCH   1  11
ATOM      7  C   UNL     1       8.169  -3.909  23.743  0.00  0.00    -0.033 A 
ATOM      8  C   UNL     1       7.442  -5.152  23.709  0.00  0.00    +0.012 A 
ATOM      9  C   UNL     1       6.370  -5.125  22.852  0.00  0.00    +0.046 A 
ATOM     10  S   UNL     1       6.206  -3.612  22.101  0.00  0.00    -0.096 S 
ATOM     11  C   UNL     1       7.624  -2.971  22.863  0.00  0.00    +0.023 A 
BRANCH   7  13
ATOM     12  C   UNL     1       9.677  -5.018  25.421  0.00  0.00    +0.009 C 
ATOM     13  C   UNL     1       9.370  -3.746  24.637  0.00  0.00    +0.033 C 
ENDBRANCH   7  13
ENDBRANCH   1  11
BRANCH   4  14
ATOM     14  O   UNL     1       9.217   2.300  21.512  0.00  0.00    -0.503 OA
ATOM     15  H   UNL     1       8.388   2.744  21.243  0.00  0.00    +0.292 HD
ENDBRANCH   4  14
BRANCH   5  16
ATOM     16  O   UNL     1       6.943   1.923  22.937  0.00  0.00    -0.503 OA
ATOM     17  H   UNL     1       7.529   2.520  23.433  0.00  0.00    +0.292 HD
ENDBRANCH   5  16
TORSDOF 4
ENDMDL
MODEL 5
REMARK VINA RESULT:      -5.5      0.794      1.701
REMARK  Name = 
REMARK  5 active torsions:
REMARK  status: ('A' for Active; 'I' for Inactive)
REMARK    1  A    between atoms: C_1  and  C_2
REMARK    2  A    between atoms: C_2  and  C_3
REMARK    3  A    between atoms: C_4  and  C_8
REMARK    4  A    between atoms: C_10  and  O_11
REMARK    5  A    between atoms: C_12  and  O_13
REMARK                            x       y       z     vdW  Elec       q    Type
REMARK                         _______ _______ _______ _____ _____    ______ ____
ROOT
ATOM      1  C   UNL     1       9.923   2.425  23.398  0.00  0.00    -0.007 A 
ATOM      2  C   UNL     1       9.983   1.867  22.108  0.00  0.00    +0.013 A 
ATOM      3  C   UNL     1       9.985   0.482  21.903  0.00  0.00    +0.050 A 
ATOM      4  C   UNL     1       9.899  -0.363  22.994  0.00  0.00    +0.158 A 
ATOM      5  C   UNL     1       9.815   0.156  24.279  0.00  0.00    +0.159 A 
ATOM      6  C   UNL     1       9.836   1.535  24.488  0.00  0.00    +0.058 A 
ENDROOT
BRANCH   1  11
ATOM      7  C   UNL     1      10.992   4.823  23.585  0.00  0.00    -0.033 A 
ATOM      8  C   UNL     1      10.533   6.152  23.893  0.00  0.00    +0.012 A 
ATOM      9  C   UNL     1       9.178   6.219  24.104  0.00  0.00    +0.046 A 
ATOM     10  S   UNL     1       8.440   4.703  23.912  0.00  0.00    -0.096 S 
ATOM     11  C   UNL     1       9.943   3.899  23.605  0.00  0.00    +0.023 A 
BRANCH   7  13
ATOM     12  C   UNL     1      13.037   5.563  22.324  0.00  0.00    +0.009 C 
ATOM     13  C   UNL     1      12.449   4.557  23.309  0.00  0.00    +0.033 C 
ENDBRANCH   7  13
ENDBRANCH   1  11
BRANCH   4  14
ATOM     14  O   UNL     1       9.894  -1.712  22.797  0.00  0.00    -0.503 OA
ATOM     15  H   UNL     1       9.950  -2.091  23.698  0.00  0.00    +0.292 HD
ENDBRANCH   4  14
BRANCH   5  16
ATOM     16  O   UNL     1       9.713  -0.731  25.316  0.00  0.00    -0.503 OA
ATOM     17  H   UNL     1      10.174  -1.548  25.062  0.00  0.00    +0.292 HD
ENDBRANCH   5  16
TORSDOF 4
ENDMDL
MODEL 6
REMARK VINA RESULT:      -5.5      4.614      6.115
REMARK  Name = 
REMARK  5 active torsions:
REMARK  status: ('A' for Active; 'I' for Inactive)
REMARK    1  A    between atoms: C_1  and  C_2
REMARK    2  A    between atoms: C_2  and  C_3
REMARK    3  A    between atoms: C_4  and  C_8
REMARK    4  A    between atoms: C_10  and  O_11
REMARK    5  A    between atoms: C_12  and  O_13
REMARK                            x       y       z     vdW  Elec       q    Type
REMARK                         _______ _______ _______ _____ _____    ______ ____
ROOT
ATOM      1  C   UNL     1       7.970  -3.165  23.545  0.00  0.00    -0.007 A 
ATOM      2  C   UNL     1       8.229  -4.494  23.928  0.00  0.00    +0.013 A 
ATOM      3  C   UNL     1       7.613  -5.578  23.291  0.00  0.00    +0.050 A 
ATOM      4  C   UNL     1       6.747  -5.341  22.240  0.00  0.00    +0.158 A 
ATOM      5  C   UNL     1       6.488  -4.042  21.822  0.00  0.00    +0.159 A 
ATOM      6  C   UNL     1       7.082  -2.959  22.469  0.00  0.00    +0.058 A 
ENDROOT
BRANCH   1  11
ATOM      7  C   UNL     1       9.596  -1.115  23.829  0.00  0.00    -0.033 A 
ATOM      8  C   UNL     1       9.946  -0.194  24.879  0.00  0.00    +0.012 A 
ATOM      9  C   UNL     1       9.223  -0.389  26.029  0.00  0.00    +0.046 A 
ATOM     10  S   UNL     1       8.104  -1.654  25.858  0.00  0.00    -0.096 S 
ATOM     11  C   UNL     1       8.615  -2.019  24.244  0.00  0.00    +0.023 A 
BRANCH   7  13
ATOM     12  C   UNL     1       9.569  -0.084  21.536  0.00  0.00    +0.009 C 
ATOM     13  C   UNL     1      10.276  -1.045  22.486  0.00  0.00    +0.033 C 
ENDBRANCH   7  13
ENDBRANCH   1  11
BRANCH   4  14
ATOM     14  O   UNL     1       6.151  -6.395  21.613  0.00  0.00    -0.503 OA
ATOM     15  H   UNL     1       6.383  -6.282  20.669  0.00  0.00    +0.292 HD
ENDBRANCH   4  14
BRANCH   5  16
ATOM     16  O   UNL     1       5.637  -3.874  20.764  0.00  0.00    -0.503 OA
ATOM     17  H   UNL     1       6.155  -3.938  19.944  0.00  0.00    +0.292 HD
ENDBRANCH   5  16
TORSDOF 4
ENDMDL
MODEL 7
REMARK VINA RESULT:      -5.5      3.991      5.715
REMARK  Name = 
REMARK  5 active torsions:
REMARK  status: ('A' for Active; 'I' for Inactive)
REMARK    1  A    between atoms: C_1  and  C_2
REMARK    2  A    between atoms: C_2  and  C_3
REMARK    3  A    between atoms: C_4  and  C_8
REMARK    4  A    between atoms: C_10  and  O_11
REMARK    5  A    between atoms: C_12  and  O_13
REMARK                            x       y       z     vdW  Elec       q    Type
REMARK                         _______ _______ _______ _____ _____    ______ ____
ROOT
ATOM      1  C   UNL     1       8.816  -2.406  24.582  0.00  0.00    -0.007 A 
ATOM      2  C   UNL     1       7.828  -2.366  25.584  0.00  0.00    +0.013 A 
ATOM      3  C   UNL     1       7.623  -3.439  26.459  0.00  0.00    +0.050 A 
ATOM      4  C   UNL     1       8.428  -4.558  26.357  0.00  0.00    +0.158 A 
ATOM      5  C   UNL     1       9.427  -4.619  25.394  0.00  0.00    +0.159 A 
ATOM      6  C   UNL     1       9.619  -3.562  24.506  0.00  0.00    +0.058 A 
ENDROOT
BRANCH   1  11
ATOM      7  C   UNL     1       9.025   0.114  23.852  0.00  0.00    -0.033 A 
ATOM      8  C   UNL     1       9.203   0.836  22.619  0.00  0.00    +0.012 A 
ATOM      9  C   UNL     1       9.348   0.013  21.530  0.00  0.00    +0.046 A 
ATOM     10  S   UNL     1       9.299  -1.626  21.972  0.00  0.00    -0.096 S 
ATOM     11  C   UNL     1       9.011  -1.267  23.643  0.00  0.00    +0.023 A 
BRANCH   7  13
ATOM     12  C   UNL     1       8.553   2.329  24.945  0.00  0.00    +0.009 C 
ATOM     13  C   UNL     1       8.863   0.850  25.156  0.00  0.00    +0.033 C 
ENDBRANCH   7  13
ENDBRANCH   1  11
BRANCH   4  14
ATOM     14  O   UNL     1       8.235  -5.602  27.212  0.00  0.00    -0.503 OA
ATOM     15  H   UNL     1       8.333  -5.210  28.104  0.00  0.00    +0.292 HD
ENDBRANCH   4  14
BRANCH   5  16
ATOM     16  O   UNL     1      10.203  -5.746  25.356  0.00  0.00    -0.503 OA
ATOM     17  H   UNL     1      10.104  -6.152  24.477  0.00  0.00    +0.292 HD
ENDBRANCH   5  16
TORSDOF 4
ENDMDL
MODEL 8
REMARK VINA RESULT:      -5.2      4.356      7.644
REMARK  Name = 
REMARK  5 active torsions:
REMARK  status: ('A' for Active; 'I' for Inactive)
REMARK    1  A    between atoms: C_1  and  C_2
REMARK    2  A    between atoms: C_2  and  C_3
REMARK    3  A    between atoms: C_4  and  C_8
REMARK    4  A    between atoms: C_10  and  O_11
REMARK    5  A    between atoms: C_12  and  O_13
REMARK                            x       y       z     vdW  Elec       q    Type
REMARK                         _______ _______ _______ _____ _____    ______ ____
ROOT
ATOM      1  C   UNL     1       8.630  -2.224  23.426  0.00  0.00    -0.007 A 
ATOM      2  C   UNL     1       9.399  -1.636  22.405  0.00  0.00    +0.013 A 
ATOM      3  C   UNL     1      10.200  -0.512  22.640  0.00  0.00    +0.050 A 
ATOM      4  C   UNL     1      10.259   0.021  23.914  0.00  0.00    +0.158 A 
ATOM      5  C   UNL     1       9.530  -0.550  24.949  0.00  0.00    +0.159 A 
ATOM      6  C   UNL     1       8.714  -1.656  24.713  0.00  0.00    +0.058 A 
ENDROOT
BRANCH   1  11
ATOM      7  C   UNL     1       7.802  -4.712  23.657  0.00  0.00    -0.033 A 
ATOM      8  C   UNL     1       6.777  -5.533  23.066  0.00  0.00    +0.012 A 
ATOM      9  C   UNL     1       5.982  -4.849  22.181  0.00  0.00    +0.046 A 
ATOM     10  S   UNL     1       6.435  -3.217  22.064  0.00  0.00    -0.096 S 
ATOM     11  C   UNL     1       7.764  -3.407  23.159  0.00  0.00    +0.023 A 
BRANCH   7  13
ATOM     12  C   UNL     1       8.183  -5.279  26.076  0.00  0.00    +0.009 C 
ATOM     13  C   UNL     1       8.762  -5.287  24.664  0.00  0.00    +0.033 C 
ENDBRANCH   7  13
ENDBRANCH   1  11
BRANCH   4  14
ATOM     14  O   UNL     1      11.043   1.112  24.148  0.00  0.00    -0.503 OA
ATOM     15  H   UNL     1      11.827   0.755  24.613  0.00  0.00    +0.292 HD
ENDBRANCH   4  14
BRANCH   5  16
ATOM     16  O   UNL     1       9.646   0.011  26.192  0.00  0.00    -0.503 OA
ATOM     17  H   UNL     1       9.846   0.956  26.080  0.00  0.00    +0.292 HD
ENDBRANCH   5  16
TORSDOF 4
ENDMDL
MODEL 9
REMARK VINA RESULT:      -5.2      5.273      7.509
REMARK  Name = 
REMARK  5 active torsions:
REMARK  status: ('A' for Active; 'I' for Inactive)
REMARK    1  A    between atoms: C_1  and  C_2
REMARK    2  A    between atoms: C_2  and  C_3
REMARK    3  A    between atoms: C_4  and  C_8
REMARK    4  A    between atoms: C_10  and  O_11
REMARK    5  A    between atoms: C_12  and  O_13
REMARK                            x       y       z     vdW  Elec       q    Type
REMARK                         _______ _______ _______ _____ _____    ______ ____
ROOT
ATOM      1  C   UNL     1       6.998  -3.492  23.295  0.00  0.00    -0.007 A 
ATOM      2  C   UNL     1       5.664  -3.160  23.593  0.00  0.00    +0.013 A 
ATOM      3  C   UNL     1       4.608  -4.039  23.323  0.00  0.00    +0.050 A 
ATOM      4  C   UNL     1       4.883  -5.277  22.773  0.00  0.00    +0.158 A 
ATOM      5  C   UNL     1       6.192  -5.644  22.489  0.00  0.00    +0.159 A 
ATOM      6  C   UNL     1       7.244  -4.762  22.735  0.00  0.00    +0.058 A 
ENDROOT
BRANCH   1  11
ATOM      7  C   UNL     1       8.702  -2.123  24.763  0.00  0.00    -0.033 A 
ATOM      8  C   UNL     1       9.727  -1.139  24.533  0.00  0.00    +0.012 A 
ATOM      9  C   UNL     1       9.914  -0.858  23.202  0.00  0.00    +0.046 A 
ATOM     10  S   UNL     1       8.887  -1.782  22.216  0.00  0.00    -0.096 S 
ATOM     11  C   UNL     1       8.111  -2.540  23.567  0.00  0.00    +0.023 A 
BRANCH   7  13
ATOM     12  C   UNL     1       8.762  -4.022  26.410  0.00  0.00    +0.009 C 
ATOM     13  C   UNL     1       8.365  -2.570  26.162  0.00  0.00    +0.033 C 
ENDBRANCH   7  13
ENDBRANCH   1  11
BRANCH   4  14
ATOM     14  O   UNL     1       3.858  -6.138  22.515  0.00  0.00    -0.503 OA
ATOM     15  H   UNL     1       3.556  -5.897  21.615  0.00  0.00    +0.292 HD
ENDBRANCH   4  14
BRANCH   5  16
ATOM     16  O   UNL     1       6.402  -6.890  21.963  0.00  0.00    -0.503 OA
ATOM     17  H   UNL     1       6.029  -6.907  21.064  0.00  0.00    +0.292 HD
ENDBRANCH   5  16
TORSDOF 4
ENDMDL
