MODEL 1
REMARK VINA RESULT:      -4.7      0.000      0.000
REMARK  Name = 
REMARK  6 active torsions:
REMARK  status: ('A' for Active; 'I' for Inactive)
REMARK    1  A    between atoms: O_1  and  C_2
REMARK    2  A    between atoms: C_2  and  C_3
REMARK    3  A    between atoms: C_3  and  O_4
REMARK    4  A    between atoms: C_7  and  O_9
REMARK    5  A    between atoms: C_10  and  O_12
REMARK    6  A    between atoms: C_13  and  O_15
REMARK                            x       y       z     vdW  Elec       q    Type
REMARK                         _______ _______ _______ _____ _____    ______ ____
ROOT
ATOM      1  C   UNL     1       9.168   0.132  22.796  0.00  0.00    +0.220 C 
ATOM      2  C   UNL     1       9.093  -1.147  21.910  0.00  0.00    +0.207 C 
ATOM      3  C   UNL     1       8.313  -2.241  22.672  0.00  0.00    +0.179 C 
ATOM      4  C   UNL     1       8.910  -2.478  24.066  0.00  0.00    +0.171 C 
ATOM      5  C   UNL     1       9.083  -1.149  24.817  0.00  0.00    +0.197 C 
ATOM      6  O   UNL     1       9.803  -0.183  24.052  0.00  0.00    -0.342 OA
ENDROOT
BRANCH   1   7
ATOM      7  O   UNL     1       7.869   0.687  23.050  0.00  0.00    -0.361 OA
ATOM      8  H   UNL     1       7.996   1.637  23.233  0.00  0.00    +0.213 HD
ENDBRANCH   1   7
BRANCH   2   9
ATOM      9  O   UNL     1      10.410  -1.595  21.543  0.00  0.00    -0.384 OA
ATOM     10  H   UNL     1      10.324  -2.417  21.025  0.00  0.00    +0.210 HD
ENDBRANCH   2   9
BRANCH   3  11
ATOM     11  O   UNL     1       6.938  -1.842  22.783  0.00  0.00    -0.386 OA
ATOM     12  H   UNL     1       6.879  -0.914  22.485  0.00  0.00    +0.210 HD
ENDBRANCH   3  11
BRANCH   4  13
ATOM     13  O   UNL     1      10.143  -3.193  23.932  0.00  0.00    -0.387 OA
ATOM     14  H   UNL     1      10.483  -3.046  23.028  0.00  0.00    +0.210 HD
ENDBRANCH   4  13
BRANCH   1  15
ATOM     15  C   UNL     1      10.008   1.236  22.114  0.00  0.00    +0.223 C 
BRANCH  15  16
ATOM     16  O   UNL     1       9.208   2.100  21.296  0.00  0.00    -0.390 OA
ATOM     17  H   UNL     1       8.305   1.746  21.328  0.00  0.00    +0.210 HD
ENDBRANCH  15  16
ENDBRANCH   1  15
TORSDOF 6
ENDMDL
MODEL 2
REMARK VINA RESULT:      -4.6      1.748      2.637
REMARK  Name = 
REMARK  6 active torsions:
REMARK  status: ('A' for Active; 'I' for Inactive)
REMARK    1  A    between atoms: O_1  and  C_2
REMARK    2  A    between atoms: C_2  and  C_3
REMARK    3  A    between atoms: C_3  and  O_4
REMARK    4  A    between atoms: C_7  and  O_9
REMARK    5  A    between atoms: C_10  and  O_12
REMARK    6  A    between atoms: C_13  and  O_15
REMARK                            x       y       z     vdW  Elec       q    Type
REMARK                         _______ _______ _______ _____ _____    ______ ____
ROOT
ATOM      1  C   UNL     1       9.956   1.692  23.700  0.00  0.00    +0.220 C 
ATOM      2  C   UNL     1       8.899   1.728  22.556  0.00  0.00    +0.207 C 
ATOM      3  C   UNL     1       8.106   0.401  22.563  0.00  0.00    +0.179 C 
ATOM      4  C   UNL     1       9.050  -0.808  22.507  0.00  0.00    +0.171 C 
ATOM      5  C   UNL     1      10.148  -0.691  23.576  0.00  0.00    +0.197 C 
ATOM      6  O   UNL     1      10.831   0.560  23.518  0.00  0.00    -0.342 OA
ENDROOT
BRANCH   1   7
ATOM      7  O   UNL     1       9.344   1.612  24.995  0.00  0.00    -0.361 OA
ATOM      8  H   UNL     1       9.978   1.990  25.634  0.00  0.00    +0.213 HD
ENDBRANCH   1   7
BRANCH   2   9
ATOM      9  O   UNL     1       9.526   1.962  21.283  0.00  0.00    -0.384 OA
ATOM     10  H   UNL     1       9.380   1.180  20.717  0.00  0.00    +0.210 HD
ENDBRANCH   2   9
BRANCH   3  11
ATOM     11  O   UNL     1       7.299   0.346  23.750  0.00  0.00    -0.386 OA
ATOM     12  H   UNL     1       6.384   0.153  23.471  0.00  0.00    +0.210 HD
ENDBRANCH   3  11
BRANCH   4  13
ATOM     13  O   UNL     1       9.586  -0.923  21.185  0.00  0.00    -0.387 OA
ATOM     14  H   UNL     1       9.109  -1.639  20.724  0.00  0.00    +0.210 HD
ENDBRANCH   4  13
BRANCH   1  15
ATOM     15  C   UNL     1      10.832   2.964  23.689  0.00  0.00    +0.223 C 
BRANCH  15  16
ATOM     16  O   UNL     1      10.124   4.109  23.196  0.00  0.00    -0.390 OA
ATOM     17  H   UNL     1       9.413   3.766  22.631  0.00  0.00    +0.210 HD
ENDBRANCH  15  16
ENDBRANCH   1  15
TORSDOF 6
ENDMDL
MODEL 3
REMARK VINA RESULT:      -4.6      1.278      2.438
REMARK  Name = 
REMARK  6 active torsions:
REMARK  status: ('A' for Active; 'I' for Inactive)
REMARK    1  A    between atoms: O_1  and  C_2
REMARK    2  A    between atoms: C_2  and  C_3
REMARK    3  A    between atoms: C_3  and  O_4
REMARK    4  A    between atoms: C_7  and  O_9
REMARK    5  A    between atoms: C_10  and  O_12
REMARK    6  A    between atoms: C_13  and  O_15
REMARK                            x       y       z     vdW  Elec       q    Type
REMARK                         _______ _______ _______ _____ _____    ______ ____
ROOT
ATOM      1  C   UNL     1       9.062   0.083  22.094  0.00  0.00    +0.220 C 
ATOM      2  C   UNL     1      10.064  -0.027  23.282  0.00  0.00    +0.207 C 
ATOM      3  C   UNL     1      10.036  -1.470  23.832  0.00  0.00    +0.179 C 
ATOM      4  C   UNL     1       8.605  -1.904  24.177  0.00  0.00    +0.171 C 
ATOM      5  C   UNL     1       7.654  -1.628  23.001  0.00  0.00    +0.197 C 
ATOM      6  O   UNL     1       7.739  -0.281  22.539  0.00  0.00    -0.342 OA
ENDROOT
BRANCH   1   7
ATOM      7  O   UNL     1       9.438  -0.759  20.994  0.00  0.00    -0.361 OA
ATOM      8  H   UNL     1      10.022  -0.231  20.418  0.00  0.00    +0.213 HD
ENDBRANCH   1   7
BRANCH   2   9
ATOM      9  O   UNL     1       9.754   0.935  24.306  0.00  0.00    -0.384 OA
ATOM     10  H   UNL     1      10.422   0.861  25.013  0.00  0.00    +0.210 HD
ENDBRANCH   2   9
BRANCH   3  11
ATOM     11  O   UNL     1      10.598  -2.355  22.849  0.00  0.00    -0.386 OA
ATOM     12  H   UNL     1      10.257  -3.251  23.035  0.00  0.00    +0.210 HD
ENDBRANCH   3  11
BRANCH   4  13
ATOM     13  O   UNL     1       8.192  -1.243  25.378  0.00  0.00    -0.387 OA
ATOM     14  H   UNL     1       8.159  -0.283  25.201  0.00  0.00    +0.210 HD
ENDBRANCH   4  13
BRANCH   1  15
ATOM     15  C   UNL     1       8.991   1.529  21.556  0.00  0.00    +0.223 C 
BRANCH  15  16
ATOM     16  O   UNL     1      10.251   2.206  21.646  0.00  0.00    -0.390 OA
ATOM     17  H   UNL     1      10.165   3.015  21.116  0.00  0.00    +0.210 HD
ENDBRANCH  15  16
ENDBRANCH   1  15
TORSDOF 6
ENDMDL
MODEL 4
REMARK VINA RESULT:      -4.6      4.420      6.250
REMARK  Name = 
REMARK  6 active torsions:
REMARK  status: ('A' for Active; 'I' for Inactive)
REMARK    1  A    between atoms: O_1  and  C_2
REMARK    2  A    between atoms: C_2  and  C_3
REMARK    3  A    between atoms: C_3  and  O_4
REMARK    4  A    between atoms: C_7  and  O_9
REMARK    5  A    between atoms: C_10  and  O_12
REMARK    6  A    between atoms: C_13  and  O_15
REMARK                            x       y       z     vdW  Elec       q    Type
REMARK                         _______ _______ _______ _____ _____    ______ ____
ROOT
ATOM      1  C   UNL     1       6.487  -4.674  25.899  0.00  0.00    +0.220 C 
ATOM      2  C   UNL     1       7.629  -4.634  26.958  0.00  0.00    +0.207 C 
ATOM      3  C   UNL     1       8.873  -3.965  26.331  0.00  0.00    +0.179 C 
ATOM      4  C   UNL     1       9.263  -4.648  25.013  0.00  0.00    +0.171 C 
ATOM      5  C   UNL     1       8.046  -4.776  24.085  0.00  0.00    +0.197 C 
ATOM      6  O   UNL     1       6.933  -5.392  24.731  0.00  0.00    -0.342 OA
ENDROOT
BRANCH   1   7
ATOM      7  O   UNL     1       6.066  -3.358  25.512  0.00  0.00    -0.361 OA
ATOM      8  H   UNL     1       6.815  -2.757  25.684  0.00  0.00    +0.213 HD
ENDBRANCH   1   7
BRANCH   2   9
ATOM      9  O   UNL     1       7.927  -5.955  27.443  0.00  0.00    -0.384 OA
ATOM     10  H   UNL     1       8.277  -6.485  26.702  0.00  0.00    +0.210 HD
ENDBRANCH   2   9
BRANCH   3  11
ATOM     11  O   UNL     1       8.590  -2.575  26.104  0.00  0.00    -0.386 OA
ATOM     12  H   UNL     1       7.736  -2.377  26.534  0.00  0.00    +0.210 HD
ENDBRANCH   3  11
BRANCH   4  13
ATOM     13  O   UNL     1       9.864  -5.915  25.303  0.00  0.00    -0.387 OA
ATOM     14  H   UNL     1      10.816  -5.854  25.095  0.00  0.00    +0.210 HD
ENDBRANCH   4  13
BRANCH   1  15
ATOM     15  C   UNL     1       5.242  -5.406  26.449  0.00  0.00    +0.223 C 
BRANCH  15  16
ATOM     16  O   UNL     1       5.427  -6.826  26.506  0.00  0.00    -0.390 OA
ATOM     17  H   UNL     1       6.316  -7.000  26.157  0.00  0.00    +0.210 HD
ENDBRANCH  15  16
ENDBRANCH   1  15
TORSDOF 6
ENDMDL
MODEL 5
REMARK VINA RESULT:      -4.6      1.896      4.144
REMARK  Name = 
REMARK  6 active torsions:
REMARK  status: ('A' for Active; 'I' for Inactive)
REMARK    1  A    between atoms: O_1  and  C_2
REMARK    2  A    between atoms: C_2  and  C_3
REMARK    3  A    between atoms: C_3  and  O_4
REMARK    4  A    between atoms: C_7  and  O_9
REMARK    5  A    between atoms: C_10  and  O_12
REMARK    6  A    between atoms: C_13  and  O_15
REMARK                            x       y       z     vdW  Elec       q    Type
REMARK                         _______ _______ _______ _____ _____    ______ ____
ROOT
ATOM      1  C   UNL     1       8.943   0.386  22.476  0.00  0.00    +0.220 C 
ATOM      2  C   UNL     1      10.013   1.487  22.739  0.00  0.00    +0.207 C 
ATOM      3  C   UNL     1       9.502   2.428  23.853  0.00  0.00    +0.179 C 
ATOM      4  C   UNL     1       8.107   2.975  23.519  0.00  0.00    +0.171 C 
ATOM      5  C   UNL     1       7.153   1.835  23.131  0.00  0.00    +0.197 C 
ATOM      6  O   UNL     1       7.693   1.001  22.106  0.00  0.00    -0.342 OA
ENDROOT
BRANCH   1   7
ATOM      7  O   UNL     1       8.737  -0.449  23.624  0.00  0.00    -0.361 OA
ATOM      8  H   UNL     1       9.387  -0.174  24.297  0.00  0.00    +0.213 HD
ENDBRANCH   1   7
BRANCH   2   9
ATOM      9  O   UNL     1      10.313   2.212  21.533  0.00  0.00    -0.384 OA
ATOM     10  H   UNL     1      10.059   3.145  21.660  0.00  0.00    +0.210 HD
ENDBRANCH   2   9
BRANCH   3  11
ATOM     11  O   UNL     1       9.466   1.705  25.094  0.00  0.00    -0.386 OA
ATOM     12  H   UNL     1       8.536   1.683  25.391  0.00  0.00    +0.210 HD
ENDBRANCH   3  11
BRANCH   4  13
ATOM     13  O   UNL     1       8.226   3.961  22.488  0.00  0.00    -0.387 OA
ATOM     14  H   UNL     1       8.365   4.830  22.912  0.00  0.00    +0.210 HD
ENDBRANCH   4  13
BRANCH   1  15
ATOM     15  C   UNL     1       9.369  -0.538  21.313  0.00  0.00    +0.223 C 
BRANCH  15  16
ATOM     16  O   UNL     1      10.299  -1.546  21.732  0.00  0.00    -0.390 OA
ATOM     17  H   UNL     1      11.159  -1.294  21.360  0.00  0.00    +0.210 HD
ENDBRANCH  15  16
ENDBRANCH   1  15
TORSDOF 6
ENDMDL
MODEL 6
REMARK VINA RESULT:      -4.5      1.173      3.749
REMARK  Name = 
REMARK  6 active torsions:
REMARK  status: ('A' for Active; 'I' for Inactive)
REMARK    1  A    between atoms: O_1  and  C_2
REMARK    2  A    between atoms: C_2  and  C_3
REMARK    3  A    between atoms: C_3  and  O_4
REMARK    4  A    between atoms: C_7  and  O_9
REMARK    5  A    between atoms: C_10  and  O_12
REMARK    6  A    between atoms: C_13  and  O_15
REMARK                            x       y       z     vdW  Elec       q    Type
REMARK                         _______ _______ _______ _____ _____    ______ ____
ROOT
ATOM      1  C   UNL     1       8.954  -1.286  23.807  0.00  0.00    +0.220 C 
ATOM      2  C   UNL     1      10.243  -0.888  23.029  0.00  0.00    +0.207 C 
ATOM      3  C   UNL     1      10.308   0.652  22.920  0.00  0.00    +0.179 C 
ATOM      4  C   UNL     1       9.013   1.220  22.322  0.00  0.00    +0.171 C 
ATOM      5  C   UNL     1       7.784   0.663  23.057  0.00  0.00    +0.197 C 
ATOM      6  O   UNL     1       7.795  -0.762  23.129  0.00  0.00    -0.342 OA
ENDROOT
BRANCH   1   7
ATOM      7  O   UNL     1       8.970  -0.802  25.158  0.00  0.00    -0.361 OA
ATOM      8  H   UNL     1       8.457  -1.436  25.694  0.00  0.00    +0.213 HD
ENDBRANCH   1   7
BRANCH   2   9
ATOM      9  O   UNL     1      10.275  -1.511  21.733  0.00  0.00    -0.384 OA
ATOM     10  H   UNL     1       9.359  -1.717  21.466  0.00  0.00    +0.210 HD
ENDBRANCH   2   9
BRANCH   3  11
ATOM     11  O   UNL     1      10.533   1.204  24.227  0.00  0.00    -0.386 OA
ATOM     12  H   UNL     1      10.118   0.600  24.873  0.00  0.00    +0.210 HD
ENDBRANCH   3  11
BRANCH   4  13
ATOM     13  O   UNL     1       8.983   0.939  20.919  0.00  0.00    -0.387 OA
ATOM     14  H   UNL     1       8.772   1.767  20.447  0.00  0.00    +0.210 HD
ENDBRANCH   4  13
BRANCH   1  15
ATOM     15  C   UNL     1       8.798  -2.822  23.878  0.00  0.00    +0.223 C 
BRANCH  15  16
ATOM     16  O   UNL     1      10.049  -3.487  24.092  0.00  0.00    -0.390 OA
ATOM     17  H   UNL     1      10.188  -4.062  23.322  0.00  0.00    +0.210 HD
ENDBRANCH  15  16
ENDBRANCH   1  15
TORSDOF 6
ENDMDL
MODEL 7
REMARK VINA RESULT:      -4.5      1.453      3.056
REMARK  Name = 
REMARK  6 active torsions:
REMARK  status: ('A' for Active; 'I' for Inactive)
REMARK    1  A    between atoms: O_1  and  C_2
REMARK    2  A    between atoms: C_2  and  C_3
REMARK    3  A    between atoms: C_3  and  O_4
REMARK    4  A    between atoms: C_7  and  O_9
REMARK    5  A    between atoms: C_10  and  O_12
REMARK    6  A    between atoms: C_13  and  O_15
REMARK                            x       y       z     vdW  Elec       q    Type
REMARK                         _______ _______ _______ _____ _____    ______ ____
ROOT
ATOM      1  C   UNL     1       8.430   0.557  23.879  0.00  0.00    +0.220 C 
ATOM      2  C   UNL     1       9.763   0.989  23.198  0.00  0.00    +0.207 C 
ATOM      3  C   UNL     1       9.733   0.554  21.715  0.00  0.00    +0.179 C 
ATOM      4  C   UNL     1       9.417  -0.943  21.584  0.00  0.00    +0.171 C 
ATOM      5  C   UNL     1       8.171  -1.310  22.404  0.00  0.00    +0.197 C 
ATOM      6  O   UNL     1       8.262  -0.870  23.758  0.00  0.00    -0.342 OA
ENDROOT
BRANCH   1   7
ATOM      7  O   UNL     1       7.293   1.217  23.304  0.00  0.00    -0.361 OA
ATOM      8  H   UNL     1       7.308   1.029  22.346  0.00  0.00    +0.213 HD
ENDBRANCH   1   7
BRANCH   2   9
ATOM      9  O   UNL     1      10.896   0.435  23.889  0.00  0.00    -0.384 OA
ATOM     10  H   UNL     1      10.628  -0.409  24.296  0.00  0.00    +0.210 HD
ENDBRANCH   2   9
BRANCH   3  11
ATOM     11  O   UNL     1       8.745   1.331  21.020  0.00  0.00    -0.386 OA
ATOM     12  H   UNL     1       9.217   1.887  20.371  0.00  0.00    +0.210 HD
ENDBRANCH   3  11
BRANCH   4  13
ATOM     13  O   UNL     1      10.568  -1.700  21.974  0.00  0.00    -0.387 OA
ATOM     14  H   UNL     1      11.035  -1.205  22.675  0.00  0.00    +0.210 HD
ENDBRANCH   4  13
BRANCH   1  15
ATOM     15  C   UNL     1       8.438   0.899  25.386  0.00  0.00    +0.223 C 
BRANCH  15  16
ATOM     16  O   UNL     1       9.260   0.001  26.143  0.00  0.00    -0.390 OA
ATOM     17  H   UNL     1       9.207   0.295  27.067  0.00  0.00    +0.210 HD
ENDBRANCH  15  16
ENDBRANCH   1  15
TORSDOF 6
ENDMDL
MODEL 8
REMARK VINA RESULT:      -4.5      1.678      2.738
REMARK  Name = 
REMARK  6 active torsions:
REMARK  status: ('A' for Active; 'I' for Inactive)
REMARK    1  A    between atoms: O_1  and  C_2
REMARK    2  A    between atoms: C_2  and  C_3
REMARK    3  A    between atoms: C_3  and  O_4
REMARK    4  A    between atoms: C_7  and  O_9
REMARK    5  A    between atoms: C_10  and  O_12
REMARK    6  A    between atoms: C_13  and  O_15
REMARK                            x       y       z     vdW  Elec       q    Type
REMARK                         _______ _______ _______ _____ _____    ______ ____
ROOT
ATOM      1  C   UNL     1       9.818   1.681  22.820  0.00  0.00    +0.220 C 
ATOM      2  C   UNL     1      10.397   0.281  23.184  0.00  0.00    +0.207 C 
ATOM      3  C   UNL     1       9.524  -0.811  22.526  0.00  0.00    +0.179 C 
ATOM      4  C   UNL     1       8.044  -0.630  22.890  0.00  0.00    +0.171 C 
ATOM      5  C   UNL     1       7.593   0.816  22.634  0.00  0.00    +0.197 C 
ATOM      6  O   UNL     1       8.448   1.771  23.262  0.00  0.00    -0.342 OA
ENDROOT
BRANCH   1   7
ATOM      7  O   UNL     1       9.876   1.937  21.409  0.00  0.00    -0.361 OA
ATOM      8  H   UNL     1      10.714   1.558  21.085  0.00  0.00    +0.213 HD
ENDBRANCH   1   7
BRANCH   2   9
ATOM      9  O   UNL     1      10.470   0.111  24.611  0.00  0.00    -0.384 OA
ATOM     10  H   UNL     1       9.780  -0.524  24.882  0.00  0.00    +0.210 HD
ENDBRANCH   2   9
BRANCH   3  11
ATOM     11  O   UNL     1       9.695  -0.748  21.101  0.00  0.00    -0.386 OA
ATOM     12  H   UNL     1      10.451  -1.323  20.873  0.00  0.00    +0.210 HD
ENDBRANCH   3  11
BRANCH   4  13
ATOM     13  O   UNL     1       7.844  -1.032  24.249  0.00  0.00    -0.387 OA
ATOM     14  H   UNL     1       6.883  -1.105  24.407  0.00  0.00    +0.210 HD
ENDBRANCH   4  13
BRANCH   1  15
ATOM     15  C   UNL     1      10.607   2.811  23.519  0.00  0.00    +0.223 C 
BRANCH  15  16
ATOM     16  O   UNL     1      10.089   4.110  23.205  0.00  0.00    -0.390 OA
ATOM     17  H   UNL     1      10.735   4.525  22.610  0.00  0.00    +0.210 HD
ENDBRANCH  15  16
ENDBRANCH   1  15
TORSDOF 6
ENDMDL
MODEL 9
REMARK VINA RESULT:      -4.4      1.785      3.781
REMARK  Name = 
REMARK  6 active torsions:
REMARK  status: ('A' for Active; 'I' for Inactive)
REMARK    1  A    between atoms: O_1  and  C_2
REMARK    2  A    between atoms: C_2  and  C_3
REMARK    3  A    between atoms: C_3  and  O_4
REMARK    4  A    between atoms: C_7  and  O_9
REMARK    5  A    between atoms: C_10  and  O_12
REMARK    6  A    between atoms: C_13  and  O_15
REMARK                            x       y       z     vdW  Elec       q    Type
REMARK                         _______ _______ _______ _____ _____    ______ ____
ROOT
ATOM      1  C   UNL     1       8.723  -0.008  24.064  0.00  0.00    +0.220 C 
ATOM      2  C   UNL     1       8.255   1.473  23.944  0.00  0.00    +0.207 C 
ATOM      3  C   UNL     1       7.701   1.711  22.521  0.00  0.00    +0.179 C 
ATOM      4  C   UNL     1       8.717   1.284  21.453  0.00  0.00    +0.171 C 
ATOM      5  C   UNL     1       9.234  -0.136  21.729  0.00  0.00    +0.197 C 
ATOM      6  O   UNL     1       9.721  -0.286  23.062  0.00  0.00    -0.342 OA
ENDROOT
BRANCH   1   7
ATOM      7  O   UNL     1       7.633  -0.930  23.913  0.00  0.00    -0.361 OA
ATOM      8  H   UNL     1       7.354  -1.191  24.811  0.00  0.00    +0.213 HD
ENDBRANCH   1   7
BRANCH   2   9
ATOM      9  O   UNL     1       9.330   2.378  24.250  0.00  0.00    -0.384 OA
ATOM     10  H   UNL     1       9.859   1.997  24.976  0.00  0.00    +0.210 HD
ENDBRANCH   2   9
BRANCH   3  11
ATOM     11  O   UNL     1       6.479   0.970  22.366  0.00  0.00    -0.386 OA
ATOM     12  H   UNL     1       5.770   1.485  22.797  0.00  0.00    +0.210 HD
ENDBRANCH   3  11
BRANCH   4  13
ATOM     13  O   UNL     1       9.773   2.249  21.400  0.00  0.00    -0.387 OA
ATOM     14  H   UNL     1       9.867   2.548  20.475  0.00  0.00    +0.210 HD
ENDBRANCH   4  13
BRANCH   1  15
ATOM     15  C   UNL     1       9.360  -0.282  25.445  0.00  0.00    +0.223 C 
BRANCH  15  16
ATOM     16  O   UNL     1      10.613   0.395  25.609  0.00  0.00    -0.390 OA
ATOM     17  H   UNL     1      11.240  -0.044  25.012  0.00  0.00    +0.210 HD
ENDBRANCH  15  16
ENDBRANCH   1  15
TORSDOF 6
ENDMDL
