MODEL 1
REMARK VINA RESULT:      -5.7      0.000      0.000
REMARK  Name = 
REMARK  15 active torsions:
REMARK  status: ('A' for Active; 'I' for Inactive)
REMARK    1  A    between atoms: C_1  and  S_2
REMARK    2  A    between atoms: S_2  and  C_4
REMARK    3  A    between atoms: C_4  and  C_5
REMARK    4  A    between atoms: C_5  and  N_7
REMARK    5  A    between atoms: C_5  and  C_27
REMARK    6  A    between atoms: C_8  and  S_10
REMARK    7  A    between atoms: C_11  and  N_13
REMARK    8  A    between atoms: C_14  and  C_16
REMARK    9  A    between atoms: C_16  and  C_17
REMARK   10  A    between atoms: C_17  and  C_18
REMARK   11  A    between atoms: C_18  and  C_19
REMARK   12  A    between atoms: C_19  and  N_21
REMARK   13  A    between atoms: C_19  and  C_22
REMARK   14  A    between atoms: C_22  and  O_23
REMARK   15  A    between atoms: C_27  and  O_28
REMARK                            x       y       z     vdW  Elec       q    Type
REMARK                         _______ _______ _______ _____ _____    ______ ____
ROOT
ATOM      1  N   UNK A   2       7.555  -3.708  25.380  0.00  0.00    -0.272 N 
ATOM      2  C   UNK A   1       8.219  -2.503  25.436  0.00  0.00    +0.240 C 
ATOM      3  O   UNK A   1       8.466  -1.768  26.358  0.00  0.00    -0.273 OA
ATOM      4  C   UNK A   1       8.513  -2.606  23.922  0.00  0.00    +0.190 C 
ATOM      5  C   UNK A   1       7.236  -3.515  23.954  0.00  0.00    +0.161 C 
ENDROOT
BRANCH   4   6
ATOM      6  N   UNK A   1       8.444  -1.423  23.033  0.00  0.00    -0.302 N 
ATOM      7  H   UNK A   1       7.566  -0.946  22.857  0.00  0.00    +0.150 HD
ATOM      8  C   UNK A   1       9.523  -1.179  22.215  0.00  0.00    +0.214 C 
ATOM      9  O   UNK A   1      10.544  -1.863  22.257  0.00  0.00    -0.276 OA
BRANCH   8  10
ATOM     10  C   UNK A   1       9.398  -0.006  21.271  0.00  0.00    +0.096 C 
BRANCH  10  11
ATOM     11  C   UNK A   1       9.159   1.296  22.040  0.00  0.00    +0.011 C 
BRANCH  11  12
ATOM     12  C   UNK A   1      10.279   1.713  23.014  0.00  0.00    +0.030 C 
BRANCH  12  13
ATOM     13  C   UNK A   1       9.948   1.720  24.513  0.00  0.00    +0.161 C 
BRANCH  13  14
ATOM     14  N   UNK A   1      10.323   0.438  25.176  0.00  0.00    -0.318 NA
ATOM     15  H   UNK A   1      11.268   0.554  25.560  0.00  0.00    +0.119 HD
ATOM     16  H   UNK A   1       9.739   0.333  26.014  0.00  0.00    +0.119 HD
ENDBRANCH  13  14
BRANCH  13  17
ATOM     17  C   UNK A   1       8.463   2.010  24.786  0.00  0.00    +0.322 C 
ATOM     18  O   UNK A   1       7.918   3.100  24.706  0.00  0.00    -0.249 OA
BRANCH  17  19
ATOM     19  O   UNK A   1       7.781   0.868  25.068  0.00  0.00    -0.480 OA
ATOM     20  H   UNK A   1       8.438   0.130  24.986  0.00  0.00    +0.295 HD
ENDBRANCH  17  19
ENDBRANCH  13  17
ENDBRANCH  12  13
ENDBRANCH  11  12
ENDBRANCH  10  11
ENDBRANCH   8  10
ENDBRANCH   4   6
BRANCH   5  21
ATOM     21  S   UNK A   1       7.485  -5.015  22.963  0.00  0.00    -0.154 S 
ATOM     22  H   UNK A   1       6.950  -4.616  21.804  0.00  0.00    +0.104 HD
ENDBRANCH   5  21
BRANCH   1  23
ATOM     23  C   UNK A   2       6.782  -4.242  26.502  0.00  0.00    +0.198 C 
BRANCH  23  24
ATOM     24  C   UNK A   2       7.505  -5.450  27.120  0.00  0.00    +0.326 C 
ATOM     25  O   UNK A   2       7.192  -5.954  28.193  0.00  0.00    -0.249 OA
BRANCH  24  26
ATOM     26  O   UNK A   2       8.579  -5.871  26.408  0.00  0.00    -0.479 OA
ATOM     27  H   UNK A   2       8.688  -5.322  25.608  0.00  0.00    +0.295 HD
ENDBRANCH  24  26
ENDBRANCH  23  24
BRANCH  23  28
ATOM     28  C   UNK A   2       5.284  -4.510  26.333  0.00  0.00    +0.137 C 
BRANCH  28  30
ATOM     29  C   UNK A   2       3.571  -5.504  24.477  0.00  0.00    +0.121 C 
ATOM     30  S   UNK A   2       4.876  -6.102  25.570  0.00  0.00    +0.021 S 
ATOM     31  O   UNK A   2       4.244  -6.972  26.611  0.00  0.00    -0.257 OA
ENDBRANCH  28  30
ENDBRANCH  23  28
ENDBRANCH   1  23
TORSDOF 14
ENDMDL
MODEL 2
REMARK VINA RESULT:      -5.6      3.342      4.026
REMARK  Name = 
REMARK  15 active torsions:
REMARK  status: ('A' for Active; 'I' for Inactive)
REMARK    1  A    between atoms: C_1  and  S_2
REMARK    2  A    between atoms: S_2  and  C_4
REMARK    3  A    between atoms: C_4  and  C_5
REMARK    4  A    between atoms: C_5  and  N_7
REMARK    5  A    between atoms: C_5  and  C_27
REMARK    6  A    between atoms: C_8  and  S_10
REMARK    7  A    between atoms: C_11  and  N_13
REMARK    8  A    between atoms: C_14  and  C_16
REMARK    9  A    between atoms: C_16  and  C_17
REMARK   10  A    between atoms: C_17  and  C_18
REMARK   11  A    between atoms: C_18  and  C_19
REMARK   12  A    between atoms: C_19  and  N_21
REMARK   13  A    between atoms: C_19  and  C_22
REMARK   14  A    between atoms: C_22  and  O_23
REMARK   15  A    between atoms: C_27  and  O_28
REMARK                            x       y       z     vdW  Elec       q    Type
REMARK                         _______ _______ _______ _____ _____    ______ ____
ROOT
ATOM      1  N   UNK A   2       8.861  -2.172  24.955  0.00  0.00    -0.272 N 
ATOM      2  C   UNK A   1       8.721  -1.223  25.942  0.00  0.00    +0.240 C 
ATOM      3  O   UNK A   1       8.265  -1.287  27.055  0.00  0.00    -0.273 OA
ATOM      4  C   UNK A   1       9.431  -0.191  25.036  0.00  0.00    +0.190 C 
ATOM      5  C   UNK A   1       8.898  -1.139  23.906  0.00  0.00    +0.161 C 
ENDROOT
BRANCH   4   6
ATOM      6  N   UNK A   1       8.984   1.219  24.963  0.00  0.00    -0.302 N 
ATOM      7  H   UNK A   1       8.012   1.473  25.107  0.00  0.00    +0.150 HD
ATOM      8  C   UNK A   1       9.843   2.131  24.396  0.00  0.00    +0.214 C 
ATOM      9  O   UNK A   1      10.974   1.820  24.023  0.00  0.00    -0.276 OA
BRANCH   8  10
ATOM     10  C   UNK A   1       9.335   3.549  24.274  0.00  0.00    +0.096 C 
BRANCH  10  11
ATOM     11  C   UNK A   1      10.169   4.348  23.269  0.00  0.00    +0.011 C 
BRANCH  11  12
ATOM     12  C   UNK A   1      10.812   5.639  23.811  0.00  0.00    +0.030 C 
BRANCH  12  13
ATOM     13  C   UNK A   1      12.309   5.597  24.151  0.00  0.00    +0.161 C 
BRANCH  13  14
ATOM     14  N   UNK A   1      12.754   6.820  24.879  0.00  0.00    -0.318 NA
ATOM     15  H   UNK A   1      12.691   7.608  24.225  0.00  0.00    +0.119 HD
ATOM     16  H   UNK A   1      12.044   7.043  25.586  0.00  0.00    +0.119 HD
ENDBRANCH  13  14
BRANCH  13  17
ATOM     17  C   UNK A   1      13.189   5.408  22.905  0.00  0.00    +0.322 C 
ATOM     18  O   UNK A   1      12.870   5.666  21.755  0.00  0.00    -0.249 OA
BRANCH  17  19
ATOM     19  O   UNK A   1      14.433   4.975  23.240  0.00  0.00    -0.480 OA
ATOM     20  H   UNK A   1      14.943   4.923  22.392  0.00  0.00    +0.295 HD
ENDBRANCH  17  19
ENDBRANCH  13  17
ENDBRANCH  12  13
ENDBRANCH  11  12
ENDBRANCH  10  11
ENDBRANCH   8  10
ENDBRANCH   4   6
BRANCH   5  21
ATOM     21  S   UNK A   1      10.181  -1.441  22.659  0.00  0.00    -0.154 S 
ATOM     22  H   UNK A   1      10.740  -2.544  23.166  0.00  0.00    +0.104 HD
ENDBRANCH   5  21
BRANCH   1  23
ATOM     23  C   UNK A   2       8.224  -3.488  25.023  0.00  0.00    +0.198 C 
BRANCH  23  24
ATOM     24  C   UNK A   2       9.229  -4.541  25.518  0.00  0.00    +0.326 C 
ATOM     25  O   UNK A   2      10.211  -4.899  24.876  0.00  0.00    -0.249 OA
BRANCH  24  26
ATOM     26  O   UNK A   2       8.895  -5.103  26.706  0.00  0.00    -0.479 OA
ATOM     27  H   UNK A   2       7.967  -4.898  26.926  0.00  0.00    +0.295 HD
ENDBRANCH  24  26
ENDBRANCH  23  24
BRANCH  23  28
ATOM     28  C   UNK A   2       7.413  -4.002  23.830  0.00  0.00    +0.137 C 
BRANCH  28  30
ATOM     29  C   UNK A   2       4.739  -4.321  23.496  0.00  0.00    +0.121 C 
ATOM     30  S   UNK A   2       6.123  -5.203  24.245  0.00  0.00    +0.021 S 
ATOM     31  O   UNK A   2       5.930  -5.189  25.730  0.00  0.00    -0.257 OA
ENDBRANCH  28  30
ENDBRANCH  23  28
ENDBRANCH   1  23
TORSDOF 14
ENDMDL
MODEL 3
REMARK VINA RESULT:      -5.6      1.276      1.573
REMARK  Name = 
REMARK  15 active torsions:
REMARK  status: ('A' for Active; 'I' for Inactive)
REMARK    1  A    between atoms: C_1  and  S_2
REMARK    2  A    between atoms: S_2  and  C_4
REMARK    3  A    between atoms: C_4  and  C_5
REMARK    4  A    between atoms: C_5  and  N_7
REMARK    5  A    between atoms: C_5  and  C_27
REMARK    6  A    between atoms: C_8  and  S_10
REMARK    7  A    between atoms: C_11  and  N_13
REMARK    8  A    between atoms: C_14  and  C_16
REMARK    9  A    between atoms: C_16  and  C_17
REMARK   10  A    between atoms: C_17  and  C_18
REMARK   11  A    between atoms: C_18  and  C_19
REMARK   12  A    between atoms: C_19  and  N_21
REMARK   13  A    between atoms: C_19  and  C_22
REMARK   14  A    between atoms: C_22  and  O_23
REMARK   15  A    between atoms: C_27  and  O_28
REMARK                            x       y       z     vdW  Elec       q    Type
REMARK                         _______ _______ _______ _____ _____    ______ ____
ROOT
ATOM      1  N   UNK A   2       7.555  -3.668  25.424  0.00  0.00    -0.272 N 
ATOM      2  C   UNK A   1       8.267  -2.490  25.412  0.00  0.00    +0.240 C 
ATOM      3  O   UNK A   1       8.593  -1.743  26.299  0.00  0.00    -0.273 OA
ATOM      4  C   UNK A   1       8.475  -2.644  23.888  0.00  0.00    +0.190 C 
ATOM      5  C   UNK A   1       7.166  -3.499  24.013  0.00  0.00    +0.161 C 
ENDROOT
BRANCH   4   6
ATOM      6  N   UNK A   1       8.405  -1.482  22.971  0.00  0.00    -0.302 N 
ATOM      7  H   UNK A   1       7.518  -1.046  22.739  0.00  0.00    +0.150 HD
ATOM      8  C   UNK A   1       9.514  -1.208  22.207  0.00  0.00    +0.214 C 
ATOM      9  O   UNK A   1      10.560  -1.847  22.318  0.00  0.00    -0.276 OA
BRANCH   8  10
ATOM     10  C   UNK A   1       9.392  -0.059  21.233  0.00  0.00    +0.096 C 
BRANCH  10  11
ATOM     11  C   UNK A   1       9.346   1.283  21.968  0.00  0.00    +0.011 C 
BRANCH  11  12
ATOM     12  C   UNK A   1      10.429   1.493  23.045  0.00  0.00    +0.030 C 
BRANCH  12  13
ATOM     13  C   UNK A   1       9.963   1.620  24.502  0.00  0.00    +0.161 C 
BRANCH  13  14
ATOM     14  N   UNK A   1      10.377   0.449  25.328  0.00  0.00    -0.318 NA
ATOM     15  H   UNK A   1      11.178   0.010  24.860  0.00  0.00    +0.119 HD
ATOM     16  H   UNK A   1      10.780   0.805  26.202  0.00  0.00    +0.119 HD
ENDBRANCH  13  14
BRANCH  13  17
ATOM     17  C   UNK A   1       8.441   1.802  24.620  0.00  0.00    +0.322 C 
ATOM     18  O   UNK A   1       7.615   0.905  24.687  0.00  0.00    -0.249 OA
BRANCH  17  19
ATOM     19  O   UNK A   1       8.107   3.115  24.717  0.00  0.00    -0.480 OA
ATOM     20  H   UNK A   1       7.514   3.305  23.946  0.00  0.00    +0.295 HD
ENDBRANCH  17  19
ENDBRANCH  13  17
ENDBRANCH  12  13
ENDBRANCH  11  12
ENDBRANCH  10  11
ENDBRANCH   8  10
ENDBRANCH   4   6
BRANCH   5  21
ATOM     21  S   UNK A   1       7.301  -5.032  23.052  0.00  0.00    -0.154 S 
ATOM     22  H   UNK A   1       8.535  -4.885  22.557  0.00  0.00    +0.104 HD
ENDBRANCH   5  21
BRANCH   1  23
ATOM     23  C   UNK A   2       6.823  -4.141  26.601  0.00  0.00    +0.198 C 
BRANCH  23  24
ATOM     24  C   UNK A   2       7.480  -5.413  27.161  0.00  0.00    +0.326 C 
ATOM     25  O   UNK A   2       7.100  -5.983  28.178  0.00  0.00    -0.249 OA
BRANCH  24  26
ATOM     26  O   UNK A   2       8.576  -5.814  26.471  0.00  0.00    -0.479 OA
ATOM     27  H   UNK A   2       8.309  -6.297  25.666  0.00  0.00    +0.295 HD
ENDBRANCH  24  26
ENDBRANCH  23  24
BRANCH  23  28
ATOM     28  C   UNK A   2       5.298  -4.275  26.543  0.00  0.00    +0.137 C 
BRANCH  28  30
ATOM     29  C   UNK A   2       2.806  -3.493  27.281  0.00  0.00    +0.121 C 
ATOM     30  S   UNK A   2       4.387  -2.739  26.846  0.00  0.00    +0.021 S 
ATOM     31  O   UNK A   2       4.216  -2.030  25.539  0.00  0.00    -0.257 OA
ENDBRANCH  28  30
ENDBRANCH  23  28
ENDBRANCH   1  23
TORSDOF 14
ENDMDL
MODEL 4
REMARK VINA RESULT:      -5.4      2.393      3.237
REMARK  Name = 
REMARK  15 active torsions:
REMARK  status: ('A' for Active; 'I' for Inactive)
REMARK    1  A    between atoms: C_1  and  S_2
REMARK    2  A    between atoms: S_2  and  C_4
REMARK    3  A    between atoms: C_4  and  C_5
REMARK    4  A    between atoms: C_5  and  N_7
REMARK    5  A    between atoms: C_5  and  C_27
REMARK    6  A    between atoms: C_8  and  S_10
REMARK    7  A    between atoms: C_11  and  N_13
REMARK    8  A    between atoms: C_14  and  C_16
REMARK    9  A    between atoms: C_16  and  C_17
REMARK   10  A    between atoms: C_17  and  C_18
REMARK   11  A    between atoms: C_18  and  C_19
REMARK   12  A    between atoms: C_19  and  N_21
REMARK   13  A    between atoms: C_19  and  C_22
REMARK   14  A    between atoms: C_22  and  O_23
REMARK   15  A    between atoms: C_27  and  O_28
REMARK                            x       y       z     vdW  Elec       q    Type
REMARK                         _______ _______ _______ _____ _____    ______ ____
ROOT
ATOM      1  N   UNK A   2       7.778  -4.133  23.728  0.00  0.00    -0.272 N 
ATOM      2  C   UNK A   1       9.053  -4.001  24.230  0.00  0.00    +0.240 C 
ATOM      3  O   UNK A   1       9.779  -4.786  24.785  0.00  0.00    -0.273 OA
ATOM      4  C   UNK A   1       9.095  -2.546  23.712  0.00  0.00    +0.190 C 
ATOM      5  C   UNK A   1       7.538  -2.684  23.836  0.00  0.00    +0.161 C 
ENDROOT
BRANCH   4   6
ATOM      6  N   UNK A   1       9.713  -1.456  24.502  0.00  0.00    -0.302 N 
ATOM      7  H   UNK A   1       9.558  -1.374  25.501  0.00  0.00    +0.150 HD
ATOM      8  C   UNK A   1      10.240  -0.390  23.811  0.00  0.00    +0.214 C 
ATOM      9  O   UNK A   1      10.271  -0.358  22.581  0.00  0.00    -0.276 OA
BRANCH   8  10
ATOM     10  C   UNK A   1      10.805   0.738  24.643  0.00  0.00    +0.096 C 
BRANCH  10  11
ATOM     11  C   UNK A   1      10.782   2.059  23.868  0.00  0.00    +0.011 C 
BRANCH  11  12
ATOM     12  C   UNK A   1       9.471   2.865  23.961  0.00  0.00    +0.030 C 
BRANCH  12  13
ATOM     13  C   UNK A   1       8.460   2.708  22.817  0.00  0.00    +0.161 C 
BRANCH  13  14
ATOM     14  N   UNK A   1       9.105   2.229  21.560  0.00  0.00    -0.318 NA
ATOM     15  H   UNK A   1      10.119   2.336  21.673  0.00  0.00    +0.119 HD
ATOM     16  H   UNK A   1       8.978   1.211  21.508  0.00  0.00    +0.119 HD
ENDBRANCH  13  14
BRANCH  13  17
ATOM     17  C   UNK A   1       7.698   4.011  22.522  0.00  0.00    +0.322 C 
ATOM     18  O   UNK A   1       6.553   4.094  22.106  0.00  0.00    -0.249 OA
BRANCH  17  19
ATOM     19  O   UNK A   1       8.438   5.101  22.856  0.00  0.00    -0.480 OA
ATOM     20  H   UNK A   1       9.386   4.818  22.797  0.00  0.00    +0.295 HD
ENDBRANCH  17  19
ENDBRANCH  13  17
ENDBRANCH  12  13
ENDBRANCH  11  12
ENDBRANCH  10  11
ENDBRANCH   8  10
ENDBRANCH   4   6
BRANCH   5  21
ATOM     21  S   UNK A   1       6.709  -1.992  22.378  0.00  0.00    -0.154 S 
ATOM     22  H   UNK A   1       7.757  -1.867  21.556  0.00  0.00    +0.104 HD
ENDBRANCH   5  21
BRANCH   1  23
ATOM     23  C   UNK A   2       6.933  -5.298  24.000  0.00  0.00    +0.198 C 
BRANCH  23  24
ATOM     24  C   UNK A   2       6.541  -5.991  22.685  0.00  0.00    +0.326 C 
ATOM     25  O   UNK A   2       7.155  -5.848  21.633  0.00  0.00    -0.249 OA
BRANCH  24  26
ATOM     26  O   UNK A   2       5.403  -6.722  22.767  0.00  0.00    -0.479 OA
ATOM     27  H   UNK A   2       5.202  -6.928  23.700  0.00  0.00    +0.295 HD
ENDBRANCH  24  26
ENDBRANCH  23  24
BRANCH  23  28
ATOM     28  C   UNK A   2       5.735  -5.163  24.944  0.00  0.00    +0.137 C 
BRANCH  28  30
ATOM     29  C   UNK A   2       6.251  -3.648  27.136  0.00  0.00    +0.121 C 
ATOM     30  S   UNK A   2       6.118  -5.394  26.699  0.00  0.00    +0.021 S 
ATOM     31  O   UNK A   2       7.481  -6.002  26.806  0.00  0.00    -0.257 OA
ENDBRANCH  28  30
ENDBRANCH  23  28
ENDBRANCH   1  23
TORSDOF 14
ENDMDL
MODEL 5
REMARK VINA RESULT:      -5.4      3.111      3.822
REMARK  Name = 
REMARK  15 active torsions:
REMARK  status: ('A' for Active; 'I' for Inactive)
REMARK    1  A    between atoms: C_1  and  S_2
REMARK    2  A    between atoms: S_2  and  C_4
REMARK    3  A    between atoms: C_4  and  C_5
REMARK    4  A    between atoms: C_5  and  N_7
REMARK    5  A    between atoms: C_5  and  C_27
REMARK    6  A    between atoms: C_8  and  S_10
REMARK    7  A    between atoms: C_11  and  N_13
REMARK    8  A    between atoms: C_14  and  C_16
REMARK    9  A    between atoms: C_16  and  C_17
REMARK   10  A    between atoms: C_17  and  C_18
REMARK   11  A    between atoms: C_18  and  C_19
REMARK   12  A    between atoms: C_19  and  N_21
REMARK   13  A    between atoms: C_19  and  C_22
REMARK   14  A    between atoms: C_22  and  O_23
REMARK   15  A    between atoms: C_27  and  O_28
REMARK                            x       y       z     vdW  Elec       q    Type
REMARK                         _______ _______ _______ _____ _____    ______ ____
ROOT
ATOM      1  N   UNK A   2       7.948  -2.956  24.257  0.00  0.00    -0.272 N 
ATOM      2  C   UNK A   1       9.040  -2.275  23.767  0.00  0.00    +0.240 C 
ATOM      3  O   UNK A   1      10.087  -2.662  23.315  0.00  0.00    -0.273 OA
ATOM      4  C   UNK A   1       8.294  -0.940  23.993  0.00  0.00    +0.190 C 
ATOM      5  C   UNK A   1       7.529  -1.796  25.061  0.00  0.00    +0.161 C 
ENDROOT
BRANCH   4   6
ATOM      6  N   UNK A   1       8.990   0.264  24.503  0.00  0.00    -0.302 N 
ATOM      7  H   UNK A   1       9.192   0.377  25.491  0.00  0.00    +0.150 HD
ATOM      8  C   UNK A   1       9.076   1.352  23.666  0.00  0.00    +0.214 C 
ATOM      9  O   UNK A   1       8.661   1.321  22.509  0.00  0.00    -0.276 OA
BRANCH   8  10
ATOM     10  C   UNK A   1       9.732   2.588  24.237  0.00  0.00    +0.096 C 
BRANCH  10  11
ATOM     11  C   UNK A   1      10.434   3.394  23.140  0.00  0.00    +0.011 C 
BRANCH  11  12
ATOM     12  C   UNK A   1      11.924   3.701  23.387  0.00  0.00    +0.030 C 
BRANCH  12  13
ATOM     13  C   UNK A   1      12.400   5.141  23.149  0.00  0.00    +0.161 C 
BRANCH  13  14
ATOM     14  N   UNK A   1      13.887   5.243  23.119  0.00  0.00    -0.318 NA
ATOM     15  H   UNK A   1      14.264   4.308  23.306  0.00  0.00    +0.119 HD
ATOM     16  H   UNK A   1      14.172   5.423  22.149  0.00  0.00    +0.119 HD
ENDBRANCH  13  14
BRANCH  13  17
ATOM     17  C   UNK A   1      11.853   6.122  24.198  0.00  0.00    +0.322 C 
ATOM     18  O   UNK A   1      10.682   6.442  24.341  0.00  0.00    -0.249 OA
BRANCH  17  19
ATOM     19  O   UNK A   1      12.837   6.557  25.029  0.00  0.00    -0.480 OA
ATOM     20  H   UNK A   1      12.390   6.800  25.879  0.00  0.00    +0.295 HD
ENDBRANCH  17  19
ENDBRANCH  13  17
ENDBRANCH  12  13
ENDBRANCH  11  12
ENDBRANCH  10  11
ENDBRANCH   8  10
ENDBRANCH   4   6
BRANCH   5  21
ATOM     21  S   UNK A   1       5.743  -1.484  24.980  0.00  0.00    -0.154 S 
ATOM     22  H   UNK A   1       5.331  -2.242  26.001  0.00  0.00    +0.104 HD
ENDBRANCH   5  21
BRANCH   1  23
ATOM     23  C   UNK A   2       7.967  -4.394  24.532  0.00  0.00    +0.198 C 
BRANCH  23  24
ATOM     24  C   UNK A   2       9.113  -4.736  25.499  0.00  0.00    +0.326 C 
ATOM     25  O   UNK A   2       9.083  -4.492  26.700  0.00  0.00    -0.249 OA
BRANCH  24  26
ATOM     26  O   UNK A   2      10.203  -5.267  24.893  0.00  0.00    -0.479 OA
ATOM     27  H   UNK A   2      10.874  -4.575  24.740  0.00  0.00    +0.295 HD
ENDBRANCH  24  26
ENDBRANCH  23  24
BRANCH  23  28
ATOM     28  C   UNK A   2       7.894  -5.391  23.372  0.00  0.00    +0.137 C 
BRANCH  28  30
ATOM     29  C   UNK A   2       5.256  -6.020  23.284  0.00  0.00    +0.121 C 
ATOM     30  S   UNK A   2       6.478  -5.169  22.265  0.00  0.00    +0.021 S 
ATOM     31  O   UNK A   2       6.709  -5.993  21.036  0.00  0.00    -0.257 OA
ENDBRANCH  28  30
ENDBRANCH  23  28
ENDBRANCH   1  23
TORSDOF 14
ENDMDL
MODEL 6
REMARK VINA RESULT:      -5.2      2.736      7.541
REMARK  Name = 
REMARK  15 active torsions:
REMARK  status: ('A' for Active; 'I' for Inactive)
REMARK    1  A    between atoms: C_1  and  S_2
REMARK    2  A    between atoms: S_2  and  C_4
REMARK    3  A    between atoms: C_4  and  C_5
REMARK    4  A    between atoms: C_5  and  N_7
REMARK    5  A    between atoms: C_5  and  C_27
REMARK    6  A    between atoms: C_8  and  S_10
REMARK    7  A    between atoms: C_11  and  N_13
REMARK    8  A    between atoms: C_14  and  C_16
REMARK    9  A    between atoms: C_16  and  C_17
REMARK   10  A    between atoms: C_17  and  C_18
REMARK   11  A    between atoms: C_18  and  C_19
REMARK   12  A    between atoms: C_19  and  N_21
REMARK   13  A    between atoms: C_19  and  C_22
REMARK   14  A    between atoms: C_22  and  O_23
REMARK   15  A    between atoms: C_27  and  O_28
REMARK                            x       y       z     vdW  Elec       q    Type
REMARK                         _______ _______ _______ _____ _____    ______ ____
ROOT
ATOM      1  N   UNK A   2       8.886  -0.318  24.025  0.00  0.00    -0.272 N 
ATOM      2  C   UNK A   1       8.640  -1.203  22.999  0.00  0.00    +0.240 C 
ATOM      3  O   UNK A   1       8.717  -1.083  21.803  0.00  0.00    -0.273 OA
ATOM      4  C   UNK A   1       8.332  -2.305  24.038  0.00  0.00    +0.190 C 
ATOM      5  C   UNK A   1       8.004  -1.064  24.939  0.00  0.00    +0.161 C 
ENDROOT
BRANCH   4   6
ATOM      6  N   UNK A   1       7.228  -3.273  23.842  0.00  0.00    -0.302 N 
ATOM      7  H   UNK A   1       6.259  -2.973  23.827  0.00  0.00    +0.150 HD
ATOM      8  C   UNK A   1       7.520  -4.609  23.992  0.00  0.00    +0.214 C 
ATOM      9  O   UNK A   1       8.662  -5.009  24.210  0.00  0.00    -0.276 OA
BRANCH   8  10
ATOM     10  C   UNK A   1       6.362  -5.570  23.853  0.00  0.00    +0.096 C 
BRANCH  10  11
ATOM     11  C   UNK A   1       5.380  -5.421  25.019  0.00  0.00    +0.011 C 
BRANCH  11  12
ATOM     12  C   UNK A   1       5.659  -6.313  26.244  0.00  0.00    +0.030 C 
BRANCH  12  13
ATOM     13  C   UNK A   1       6.345  -5.662  27.454  0.00  0.00    +0.161 C 
BRANCH  13  14
ATOM     14  N   UNK A   1       7.825  -5.589  27.287  0.00  0.00    -0.318 NA
ATOM     15  H   UNK A   1       8.087  -4.597  27.287  0.00  0.00    +0.119 HD
ATOM     16  H   UNK A   1       8.259  -5.949  28.145  0.00  0.00    +0.119 HD
ENDBRANCH  13  14
BRANCH  13  17
ATOM     17  C   UNK A   1       6.026  -6.386  28.771  0.00  0.00    +0.322 C 
ATOM     18  O   UNK A   1       6.256  -5.967  29.895  0.00  0.00    -0.249 OA
BRANCH  17  19
ATOM     19  O   UNK A   1       5.370  -7.556  28.546  0.00  0.00    -0.480 OA
ATOM     20  H   UNK A   1       5.711  -7.898  27.681  0.00  0.00    +0.295 HD
ENDBRANCH  17  19
ENDBRANCH  13  17
ENDBRANCH  12  13
ENDBRANCH  11  12
ENDBRANCH  10  11
ENDBRANCH   8  10
ENDBRANCH   4   6
BRANCH   5  21
ATOM     21  S   UNK A   1       8.711  -1.266  26.598  0.00  0.00    -0.154 S 
ATOM     22  H   UNK A   1       9.822  -0.535  26.465  0.00  0.00    +0.104 HD
ENDBRANCH   5  21
BRANCH   1  23
ATOM     23  C   UNK A   2       9.098   1.114  23.805  0.00  0.00    +0.198 C 
BRANCH  23  24
ATOM     24  C   UNK A   2      10.570   1.479  24.053  0.00  0.00    +0.326 C 
ATOM     25  O   UNK A   2      11.362   0.748  24.638  0.00  0.00    -0.249 OA
BRANCH  24  26
ATOM     26  O   UNK A   2      10.906   2.723  23.633  0.00  0.00    -0.479 OA
ATOM     27  H   UNK A   2      11.027   3.316  24.399  0.00  0.00    +0.295 HD
ENDBRANCH  24  26
ENDBRANCH  23  24
BRANCH  23  28
ATOM     28  C   UNK A   2       8.150   2.129  24.451  0.00  0.00    +0.137 C 
BRANCH  28  30
ATOM     29  C   UNK A   2       7.570   2.348  21.809  0.00  0.00    +0.121 C 
ATOM     30  S   UNK A   2       7.440   3.342  23.309  0.00  0.00    +0.021 S 
ATOM     31  O   UNK A   2       8.396   4.488  23.189  0.00  0.00    -0.257 OA
ENDBRANCH  28  30
ENDBRANCH  23  28
ENDBRANCH   1  23
TORSDOF 14
ENDMDL
MODEL 7
REMARK VINA RESULT:      -5.2      3.132      7.469
REMARK  Name = 
REMARK  15 active torsions:
REMARK  status: ('A' for Active; 'I' for Inactive)
REMARK    1  A    between atoms: C_1  and  S_2
REMARK    2  A    between atoms: S_2  and  C_4
REMARK    3  A    between atoms: C_4  and  C_5
REMARK    4  A    between atoms: C_5  and  N_7
REMARK    5  A    between atoms: C_5  and  C_27
REMARK    6  A    between atoms: C_8  and  S_10
REMARK    7  A    between atoms: C_11  and  N_13
REMARK    8  A    between atoms: C_14  and  C_16
REMARK    9  A    between atoms: C_16  and  C_17
REMARK   10  A    between atoms: C_17  and  C_18
REMARK   11  A    between atoms: C_18  and  C_19
REMARK   12  A    between atoms: C_19  and  N_21
REMARK   13  A    between atoms: C_19  and  C_22
REMARK   14  A    between atoms: C_22  and  O_23
REMARK   15  A    between atoms: C_27  and  O_28
REMARK                            x       y       z     vdW  Elec       q    Type
REMARK                         _______ _______ _______ _____ _____    ______ ____
ROOT
ATOM      1  N   UNK A   2       9.039  -0.322  23.325  0.00  0.00    -0.272 N 
ATOM      2  C   UNK A   1       9.646  -1.539  23.111  0.00  0.00    +0.240 C 
ATOM      3  O   UNK A   1      10.426  -1.908  22.270  0.00  0.00    -0.273 OA
ATOM      4  C   UNK A   1       8.964  -2.091  24.384  0.00  0.00    +0.190 C 
ATOM      5  C   UNK A   1       7.932  -0.954  24.064  0.00  0.00    +0.161 C 
ENDROOT
BRANCH   4   6
ATOM      6  N   UNK A   1       8.416  -3.466  24.440  0.00  0.00    -0.302 N 
ATOM      7  H   UNK A   1       7.938  -3.877  23.644  0.00  0.00    +0.150 HD
ATOM      8  C   UNK A   1       8.295  -4.052  25.678  0.00  0.00    +0.214 C 
ATOM      9  O   UNK A   1       8.687  -3.500  26.705  0.00  0.00    -0.276 OA
BRANCH   8  10
ATOM     10  C   UNK A   1       7.672  -5.429  25.712  0.00  0.00    +0.096 C 
BRANCH  10  11
ATOM     11  C   UNK A   1       6.147  -5.340  25.824  0.00  0.00    +0.011 C 
BRANCH  11  12
ATOM     12  C   UNK A   1       5.355  -5.899  24.626  0.00  0.00    +0.030 C 
BRANCH  12  13
ATOM     13  C   UNK A   1       5.221  -5.004  23.385  0.00  0.00    +0.161 C 
BRANCH  13  14
ATOM     14  N   UNK A   1       3.829  -4.989  22.852  0.00  0.00    -0.318 NA
ATOM     15  H   UNK A   1       3.214  -4.655  23.602  0.00  0.00    +0.119 HD
ATOM     16  H   UNK A   1       3.768  -4.245  22.147  0.00  0.00    +0.119 HD
ENDBRANCH  13  14
BRANCH  13  17
ATOM     17  C   UNK A   1       6.184  -5.414  22.259  0.00  0.00    +0.322 C 
ATOM     18  O   UNK A   1       7.330  -5.017  22.114  0.00  0.00    -0.249 OA
BRANCH  17  19
ATOM     19  O   UNK A   1       5.627  -6.355  21.451  0.00  0.00    -0.480 OA
ATOM     20  H   UNK A   1       6.381  -6.781  20.968  0.00  0.00    +0.295 HD
ENDBRANCH  17  19
ENDBRANCH  13  17
ENDBRANCH  12  13
ENDBRANCH  11  12
ENDBRANCH  10  11
ENDBRANCH   8  10
ENDBRANCH   4   6
BRANCH   5  21
ATOM     21  S   UNK A   1       7.478  -0.051  25.570  0.00  0.00    -0.154 S 
ATOM     22  H   UNK A   1       7.684  -1.007  26.483  0.00  0.00    +0.104 HD
ENDBRANCH   5  21
BRANCH   1  23
ATOM     23  C   UNK A   2       9.080   0.768  22.349  0.00  0.00    +0.198 C 
BRANCH  23  24
ATOM     24  C   UNK A   2      10.191   1.767  22.713  0.00  0.00    +0.326 C 
ATOM     25  O   UNK A   2      10.615   1.926  23.853  0.00  0.00    -0.249 OA
BRANCH  24  26
ATOM     26  O   UNK A   2      10.616   2.520  21.669  0.00  0.00    -0.479 OA
ATOM     27  H   UNK A   2      11.544   2.790  21.806  0.00  0.00    +0.295 HD
ENDBRANCH  24  26
ENDBRANCH  23  24
BRANCH  23  28
ATOM     28  C   UNK A   2       7.785   1.485  21.957  0.00  0.00    +0.137 C 
BRANCH  28  30
ATOM     29  C   UNK A   2       5.652   2.491  23.300  0.00  0.00    +0.121 C 
ATOM     30  S   UNK A   2       7.373   2.925  22.976  0.00  0.00    +0.021 S 
ATOM     31  O   UNK A   2       7.386   4.139  22.100  0.00  0.00    -0.257 OA
ENDBRANCH  28  30
ENDBRANCH  23  28
ENDBRANCH   1  23
TORSDOF 14
ENDMDL
MODEL 8
REMARK VINA RESULT:      -5.2      2.927      7.572
REMARK  Name = 
REMARK  15 active torsions:
REMARK  status: ('A' for Active; 'I' for Inactive)
REMARK    1  A    between atoms: C_1  and  S_2
REMARK    2  A    between atoms: S_2  and  C_4
REMARK    3  A    between atoms: C_4  and  C_5
REMARK    4  A    between atoms: C_5  and  N_7
REMARK    5  A    between atoms: C_5  and  C_27
REMARK    6  A    between atoms: C_8  and  S_10
REMARK    7  A    between atoms: C_11  and  N_13
REMARK    8  A    between atoms: C_14  and  C_16
REMARK    9  A    between atoms: C_16  and  C_17
REMARK   10  A    between atoms: C_17  and  C_18
REMARK   11  A    between atoms: C_18  and  C_19
REMARK   12  A    between atoms: C_19  and  N_21
REMARK   13  A    between atoms: C_19  and  C_22
REMARK   14  A    between atoms: C_22  and  O_23
REMARK   15  A    between atoms: C_27  and  O_28
REMARK                            x       y       z     vdW  Elec       q    Type
REMARK                         _______ _______ _______ _____ _____    ______ ____
ROOT
ATOM      1  N   UNK A   2       8.991  -0.408  23.018  0.00  0.00    -0.272 N 
ATOM      2  C   UNK A   1       9.544  -1.616  22.654  0.00  0.00    +0.240 C 
ATOM      3  O   UNK A   1      10.636  -1.903  22.236  0.00  0.00    -0.273 OA
ATOM      4  C   UNK A   1       8.239  -2.328  23.079  0.00  0.00    +0.190 C 
ATOM      5  C   UNK A   1       7.627  -0.914  22.791  0.00  0.00    +0.161 C 
ENDROOT
BRANCH   4   6
ATOM      6  N   UNK A   1       7.674  -3.451  22.296  0.00  0.00    -0.302 N 
ATOM      7  H   UNK A   1       7.033  -3.288  21.526  0.00  0.00    +0.150 HD
ATOM      8  C   UNK A   1       7.789  -4.716  22.824  0.00  0.00    +0.214 C 
ATOM      9  O   UNK A   1       8.396  -4.935  23.871  0.00  0.00    -0.276 OA
BRANCH   8  10
ATOM     10  C   UNK A   1       7.145  -5.834  22.037  0.00  0.00    +0.096 C 
BRANCH  10  11
ATOM     11  C   UNK A   1       5.626  -5.657  21.971  0.00  0.00    +0.011 C 
BRANCH  11  12
ATOM     12  C   UNK A   1       4.904  -5.567  23.330  0.00  0.00    +0.030 C 
BRANCH  12  13
ATOM     13  C   UNK A   1       4.949  -6.804  24.239  0.00  0.00    +0.161 C 
BRANCH  13  14
ATOM     14  N   UNK A   1       3.692  -7.604  24.161  0.00  0.00    -0.318 NA
ATOM     15  H   UNK A   1       3.069  -7.273  24.906  0.00  0.00    +0.119 HD
ATOM     16  H   UNK A   1       3.199  -7.334  23.302  0.00  0.00    +0.119 HD
ENDBRANCH  13  14
BRANCH  13  17
ATOM     17  C   UNK A   1       5.222  -6.444  25.708  0.00  0.00    +0.322 C 
ATOM     18  O   UNK A   1       4.725  -6.986  26.684  0.00  0.00    -0.249 OA
BRANCH  17  19
ATOM     19  O   UNK A   1       6.165  -5.471  25.812  0.00  0.00    -0.480 OA
ATOM     20  H   UNK A   1       6.503  -5.515  26.742  0.00  0.00    +0.295 HD
ENDBRANCH  17  19
ENDBRANCH  13  17
ENDBRANCH  12  13
ENDBRANCH  11  12
ENDBRANCH  10  11
ENDBRANCH   8  10
ENDBRANCH   4   6
BRANCH   5  21
ATOM     21  S   UNK A   1       6.466  -0.433  24.100  0.00  0.00    -0.154 S 
ATOM     22  H   UNK A   1       5.981   0.697  23.574  0.00  0.00    +0.104 HD
ENDBRANCH   5  21
BRANCH   1  23
ATOM     23  C   UNK A   2       9.630   0.877  22.728  0.00  0.00    +0.198 C 
BRANCH  23  24
ATOM     24  C   UNK A   2      10.457   1.345  23.937  0.00  0.00    +0.326 C 
ATOM     25  O   UNK A   2      10.431   0.795  25.033  0.00  0.00    -0.249 OA
BRANCH  24  26
ATOM     26  O   UNK A   2      11.170   2.475  23.710  0.00  0.00    -0.479 OA
ATOM     27  H   UNK A   2      10.704   3.248  24.083  0.00  0.00    +0.295 HD
ENDBRANCH  24  26
ENDBRANCH  23  24
BRANCH  23  28
ATOM     28  C   UNK A   2       8.801   2.020  22.137  0.00  0.00    +0.137 C 
BRANCH  28  30
ATOM     29  C   UNK A   2       6.568   3.559  22.229  0.00  0.00    +0.121 C 
ATOM     30  S   UNK A   2       7.863   2.987  23.347  0.00  0.00    +0.021 S 
ATOM     31  O   UNK A   2       8.688   4.171  23.743  0.00  0.00    -0.257 OA
ENDBRANCH  28  30
ENDBRANCH  23  28
ENDBRANCH   1  23
TORSDOF 14
ENDMDL
MODEL 9
REMARK VINA RESULT:      -5.2      2.689      7.465
REMARK  Name = 
REMARK  15 active torsions:
REMARK  status: ('A' for Active; 'I' for Inactive)
REMARK    1  A    between atoms: C_1  and  S_2
REMARK    2  A    between atoms: S_2  and  C_4
REMARK    3  A    between atoms: C_4  and  C_5
REMARK    4  A    between atoms: C_5  and  N_7
REMARK    5  A    between atoms: C_5  and  C_27
REMARK    6  A    between atoms: C_8  and  S_10
REMARK    7  A    between atoms: C_11  and  N_13
REMARK    8  A    between atoms: C_14  and  C_16
REMARK    9  A    between atoms: C_16  and  C_17
REMARK   10  A    between atoms: C_17  and  C_18
REMARK   11  A    between atoms: C_18  and  C_19
REMARK   12  A    between atoms: C_19  and  N_21
REMARK   13  A    between atoms: C_19  and  C_22
REMARK   14  A    between atoms: C_22  and  O_23
REMARK   15  A    between atoms: C_27  and  O_28
REMARK                            x       y       z     vdW  Elec       q    Type
REMARK                         _______ _______ _______ _____ _____    ______ ____
ROOT
ATOM      1  N   UNK A   2       8.059  -2.128  23.823  0.00  0.00    -0.272 N 
ATOM      2  C   UNK A   1       7.552  -3.381  23.559  0.00  0.00    +0.240 C 
ATOM      3  O   UNK A   1       7.375  -3.971  22.525  0.00  0.00    -0.273 OA
ATOM      4  C   UNK A   1       7.419  -3.634  25.079  0.00  0.00    +0.190 C 
ATOM      5  C   UNK A   1       7.357  -2.068  25.117  0.00  0.00    +0.161 C 
ENDROOT
BRANCH   4   6
ATOM      6  N   UNK A   1       6.251  -4.343  25.650  0.00  0.00    -0.302 N 
ATOM      7  H   UNK A   1       5.340  -3.899  25.707  0.00  0.00    +0.150 HD
ATOM      8  C   UNK A   1       6.493  -5.484  26.379  0.00  0.00    +0.214 C 
ATOM      9  O   UNK A   1       7.623  -5.954  26.502  0.00  0.00    -0.276 OA
BRANCH   8  10
ATOM     10  C   UNK A   1       5.290  -6.149  27.007  0.00  0.00    +0.096 C 
BRANCH  10  11
ATOM     11  C   UNK A   1       4.083  -6.103  26.066  0.00  0.00    +0.011 C 
BRANCH  11  12
ATOM     12  C   UNK A   1       4.127  -7.081  24.875  0.00  0.00    +0.030 C 
BRANCH  12  13
ATOM     13  C   UNK A   1       4.206  -6.477  23.465  0.00  0.00    +0.161 C 
BRANCH  13  14
ATOM     14  N   UNK A   1       5.611  -6.383  22.974  0.00  0.00    -0.318 NA
ATOM     15  H   UNK A   1       6.093  -7.247  23.249  0.00  0.00    +0.119 HD
ATOM     16  H   UNK A   1       5.592  -6.440  21.949  0.00  0.00    +0.119 HD
ENDBRANCH  13  14
BRANCH  13  17
ATOM     17  C   UNK A   1       3.554  -5.088  23.383  0.00  0.00    +0.322 C 
ATOM     18  O   UNK A   1       4.122  -4.018  23.544  0.00  0.00    -0.249 OA
BRANCH  17  19
ATOM     19  O   UNK A   1       2.245  -5.177  23.028  0.00  0.00    -0.480 OA
ATOM     20  H   UNK A   1       1.735  -5.240  23.876  0.00  0.00    +0.295 HD
ENDBRANCH  17  19
ENDBRANCH  13  17
ENDBRANCH  12  13
ENDBRANCH  11  12
ENDBRANCH  10  11
ENDBRANCH   8  10
ENDBRANCH   4   6
BRANCH   5  21
ATOM     21  S   UNK A   1       8.394  -1.413  26.455  0.00  0.00    -0.154 S 
ATOM     22  H   UNK A   1       9.195  -2.464  26.660  0.00  0.00    +0.104 HD
ENDBRANCH   5  21
BRANCH   1  23
ATOM     23  C   UNK A   2       8.291  -1.130  22.777  0.00  0.00    +0.198 C 
BRANCH  23  24
ATOM     24  C   UNK A   2       9.645  -1.379  22.094  0.00  0.00    +0.326 C 
ATOM     25  O   UNK A   2      10.558  -2.018  22.607  0.00  0.00    -0.249 OA
BRANCH  24  26
ATOM     26  O   UNK A   2       9.777  -0.764  20.893  0.00  0.00    -0.479 OA
ATOM     27  H   UNK A   2       9.711   0.204  21.003  0.00  0.00    +0.295 HD
ENDBRANCH  24  26
ENDBRANCH  23  24
BRANCH  23  28
ATOM     28  C   UNK A   2       8.082   0.356  23.086  0.00  0.00    +0.137 C 
BRANCH  28  30
ATOM     29  C   UNK A   2       8.674   2.429  24.734  0.00  0.00    +0.121 C 
ATOM     30  S   UNK A   2       9.544   1.215  23.722  0.00  0.00    +0.021 S 
ATOM     31  O   UNK A   2      10.193   1.941  22.585  0.00  0.00    -0.257 OA
ENDBRANCH  28  30
ENDBRANCH  23  28
ENDBRANCH   1  23
TORSDOF 14
ENDMDL
