MODEL 1
REMARK VINA RESULT:      -7.7      0.000      0.000
REMARK  Name = 
REMARK  9 active torsions:
REMARK  status: ('A' for Active; 'I' for Inactive)
REMARK    1  A    between atoms: C_1  and  N_2
REMARK    2  A    between atoms: C_5  and  C_7
REMARK    3  A    between atoms: C_10  and  C_13
REMARK    4  A    between atoms: C_16  and  N_20
REMARK    5  A    between atoms: C_22  and  C_24
REMARK    6  A    between atoms: C_24  and  O_25
REMARK    7  A    between atoms: O_25  and  P_26
REMARK    8  A    between atoms: P_26  and  O_27
REMARK    9  A    between atoms: P_26  and  O_28
REMARK                            x       y       z     vdW  Elec       q    Type
REMARK                         _______ _______ _______ _____ _____    ______ ____
ROOT
ATOM      1  C   UNL     1       6.713  -3.817  24.091  0.00  0.00    +0.019 A 
ATOM      2  C   UNL     1       8.094  -4.025  23.991  0.00  0.00    +0.133 A 
ATOM      3  F   UNL     1       8.602  -5.267  23.980  0.00  0.00    -0.205 F 
ATOM      4  C   UNL     1       9.007  -2.970  23.889  0.00  0.00    +0.062 A 
ATOM      5  C   UNL     1       8.569  -1.645  23.893  0.00  0.00    +0.042 A 
ATOM      6  C   UNL     1       7.202  -1.415  24.049  0.00  0.00    +0.024 A 
ATOM      7  C   UNL     1       6.292  -2.479  24.148  0.00  0.00    +0.013 A 
ENDROOT
BRANCH   1  11
ATOM      8  C   UNL     1       3.673  -6.811  23.982  0.00  0.00    +0.111 A 
ATOM      9  N   UNL     1       3.851  -5.999  22.913  0.00  0.00    -0.251 NA
ATOM     10  C   UNL     1       4.859  -5.093  22.974  0.00  0.00    +0.120 A 
ATOM     11  C   UNL     1       5.735  -4.926  24.050  0.00  0.00    +0.003 A 
ATOM     12  C   UNL     1       5.552  -5.822  25.113  0.00  0.00    +0.012 A 
ATOM     13  C   UNL     1       4.516  -6.764  25.086  0.00  0.00    +0.032 A 
BRANCH   8  17
ATOM     14  C   UNL     1       0.443 -10.305  24.911  0.00  0.00    +0.199 C 
ATOM     15  N   UNL     1       1.118  -9.179  24.326  0.00  0.00    -0.166 N 
ATOM     16  N   UNL     1       2.291  -8.723  24.804  0.00  0.00    -0.129 NA
ATOM     17  C   UNL     1       2.523  -7.714  23.937  0.00  0.00    +0.223 A 
ATOM     18  N   UNL     1       1.520  -7.596  22.996  0.00  0.00    -0.106 NA
ATOM     19  N   UNL     1       0.628  -8.541  23.257  0.00  0.00    -0.046 NA
ENDBRANCH   8  17
ENDBRANCH   1  11
BRANCH   5  20
ATOM     20  N   UNL     1       9.488  -0.574  23.782  0.00  0.00    -0.234 N 
ATOM     21  C   UNL     1       9.883   0.096  22.630  0.00  0.00    +0.408 C 
ATOM     22  O   UNL     1       9.663  -0.185  21.463  0.00  0.00    -0.226 OA
ATOM     23  O   UNL     1      10.606   1.217  22.982  0.00  0.00    -0.443 OA
ATOM     24  C   UNL     1      10.375   1.428  24.379  0.00  0.00    +0.222 C 
ATOM     25  C   UNL     1      10.149   0.029  24.899  0.00  0.00    +0.164 C 
BRANCH  24  26
ATOM     26  C   UNL     1       9.140   2.316  24.550  0.00  0.00    +0.218 C 
BRANCH  26  27
ATOM     27  O   UNL     1       9.119   3.362  23.583  0.00  0.00    -0.283 OA
BRANCH  27  28
ATOM     28  P   UNL     1       7.614   3.369  22.729  0.00  0.00    +0.472 P 
ATOM     29  O   UNL     1       6.267   3.376  21.964  0.00  0.00    -0.228 OA
BRANCH  28  30
ATOM     30  O   UNL     1       8.477   2.667  21.526  0.00  0.00    -0.303 OA
ATOM     31  H   UNL     1       9.429   2.661  21.725  0.00  0.00    +0.222 HD
ENDBRANCH  28  30
BRANCH  28  32
ATOM     32  O   UNL     1       8.045   4.885  22.290  0.00  0.00    -0.303 OA
ATOM     33  H   UNL     1       8.776   4.779  21.651  0.00  0.00    +0.222 HD
ENDBRANCH  28  32
ENDBRANCH  27  28
ENDBRANCH  26  27
ENDBRANCH  24  26
ENDBRANCH   5  20
TORSDOF 8
ENDMDL
MODEL 2
REMARK VINA RESULT:      -7.4      5.448     10.618
REMARK  Name = 
REMARK  9 active torsions:
REMARK  status: ('A' for Active; 'I' for Inactive)
REMARK    1  A    between atoms: C_1  and  N_2
REMARK    2  A    between atoms: C_5  and  C_7
REMARK    3  A    between atoms: C_10  and  C_13
REMARK    4  A    between atoms: C_16  and  N_20
REMARK    5  A    between atoms: C_22  and  C_24
REMARK    6  A    between atoms: C_24  and  O_25
REMARK    7  A    between atoms: O_25  and  P_26
REMARK    8  A    between atoms: P_26  and  O_27
REMARK    9  A    between atoms: P_26  and  O_28
REMARK                            x       y       z     vdW  Elec       q    Type
REMARK                         _______ _______ _______ _____ _____    ______ ____
ROOT
ATOM      1  C   UNL     1       7.739  -1.347  24.239  0.00  0.00    +0.019 A 
ATOM      2  C   UNL     1       7.805  -2.274  25.286  0.00  0.00    +0.133 A 
ATOM      3  F   UNL     1       8.685  -2.117  26.286  0.00  0.00    -0.205 F 
ATOM      4  C   UNL     1       6.965  -3.390  25.354  0.00  0.00    +0.062 A 
ATOM      5  C   UNL     1       6.020  -3.634  24.358  0.00  0.00    +0.042 A 
ATOM      6  C   UNL     1       5.977  -2.754  23.276  0.00  0.00    +0.024 A 
ATOM      7  C   UNL     1       6.820  -1.634  23.217  0.00  0.00    +0.013 A 
ENDROOT
BRANCH   1  11
ATOM      8  C   UNL     1       9.880   2.335  23.960  0.00  0.00    +0.111 A 
ATOM      9  N   UNL     1       8.530   2.352  24.058  0.00  0.00    -0.251 NA
ATOM     10  C   UNL     1       7.895   1.161  24.192  0.00  0.00    +0.120 A 
ATOM     11  C   UNL     1       8.518  -0.089  24.237  0.00  0.00    +0.003 A 
ATOM     12  C   UNL     1       9.918  -0.060  24.187  0.00  0.00    +0.012 A 
ATOM     13  C   UNL     1      10.606   1.152  24.040  0.00  0.00    +0.032 A 
BRANCH   8  17
ATOM     14  C   UNL     1      13.055   5.806  22.788  0.00  0.00    +0.199 C 
ATOM     15  N   UNL     1      11.864   5.119  23.203  0.00  0.00    -0.166 N 
ATOM     16  N   UNL     1      11.801   3.775  23.269  0.00  0.00    -0.129 NA
ATOM     17  C   UNL     1      10.538   3.620  23.721  0.00  0.00    +0.223 A 
ATOM     18  N   UNL     1       9.900   4.829  23.907  0.00  0.00    -0.106 NA
ATOM     19  N   UNL     1      10.761   5.779  23.573  0.00  0.00    -0.046 NA
ENDBRANCH   8  17
ENDBRANCH   1  11
BRANCH   5  20
ATOM     20  N   UNL     1       5.163  -4.759  24.425  0.00  0.00    -0.234 N 
ATOM     21  C   UNL     1       5.302  -5.978  23.773  0.00  0.00    +0.408 C 
ATOM     22  O   UNL     1       6.081  -6.292  22.889  0.00  0.00    -0.226 OA
ATOM     23  O   UNL     1       4.388  -6.875  24.288  0.00  0.00    -0.443 OA
ATOM     24  C   UNL     1       3.899  -6.304  25.506  0.00  0.00    +0.222 C 
ATOM     25  C   UNL     1       3.990  -4.820  25.244  0.00  0.00    +0.164 C 
BRANCH  24  26
ATOM     26  C   UNL     1       4.803  -6.745  26.660  0.00  0.00    +0.218 C 
BRANCH  26  27
ATOM     27  O   UNL     1       4.875  -5.743  27.670  0.00  0.00    -0.283 OA
BRANCH  27  28
ATOM     28  P   UNL     1       5.787  -6.311  29.026  0.00  0.00    +0.472 P 
ATOM     29  O   UNL     1       6.604  -6.820  30.239  0.00  0.00    -0.228 OA
BRANCH  28  30
ATOM     30  O   UNL     1       7.087  -6.022  28.069  0.00  0.00    -0.303 OA
ATOM     31  H   UNL     1       7.822  -6.625  28.274  0.00  0.00    +0.222 HD
ENDBRANCH  28  30
BRANCH  28  32
ATOM     32  O   UNL     1       5.522  -7.795  28.388  0.00  0.00    -0.303 OA
ATOM     33  H   UNL     1       5.992  -8.422  28.970  0.00  0.00    +0.222 HD
ENDBRANCH  28  32
ENDBRANCH  27  28
ENDBRANCH  26  27
ENDBRANCH  24  26
ENDBRANCH   5  20
TORSDOF 8
ENDMDL
MODEL 3
REMARK VINA RESULT:      -7.4      1.123      1.563
REMARK  Name = 
REMARK  9 active torsions:
REMARK  status: ('A' for Active; 'I' for Inactive)
REMARK    1  A    between atoms: C_1  and  N_2
REMARK    2  A    between atoms: C_5  and  C_7
REMARK    3  A    between atoms: C_10  and  C_13
REMARK    4  A    between atoms: C_16  and  N_20
REMARK    5  A    between atoms: C_22  and  C_24
REMARK    6  A    between atoms: C_24  and  O_25
REMARK    7  A    between atoms: O_25  and  P_26
REMARK    8  A    between atoms: P_26  and  O_27
REMARK    9  A    between atoms: P_26  and  O_28
REMARK                            x       y       z     vdW  Elec       q    Type
REMARK                         _______ _______ _______ _____ _____    ______ ____
ROOT
ATOM      1  C   UNL     1       6.850  -3.414  23.922  0.00  0.00    +0.019 A 
ATOM      2  C   UNL     1       8.242  -3.567  23.922  0.00  0.00    +0.133 A 
ATOM      3  F   UNL     1       8.798  -4.779  24.068  0.00  0.00    -0.205 F 
ATOM      4  C   UNL     1       9.115  -2.487  23.764  0.00  0.00    +0.062 A 
ATOM      5  C   UNL     1       8.626  -1.190  23.607  0.00  0.00    +0.042 A 
ATOM      6  C   UNL     1       7.244  -1.008  23.662  0.00  0.00    +0.024 A 
ATOM      7  C   UNL     1       6.373  -2.098  23.818  0.00  0.00    +0.013 A 
ENDROOT
BRANCH   1  11
ATOM      8  C   UNL     1       3.944  -6.540  23.971  0.00  0.00    +0.111 A 
ATOM      9  N   UNL     1       4.088  -5.778  22.861  0.00  0.00    -0.251 NA
ATOM     10  C   UNL     1       5.055  -4.827  22.874  0.00  0.00    +0.120 A 
ATOM     11  C   UNL     1       5.921  -4.566  23.939  0.00  0.00    +0.003 A 
ATOM     12  C   UNL     1       5.776  -5.411  25.048  0.00  0.00    +0.012 A 
ATOM     13  C   UNL     1       4.782  -6.398  25.071  0.00  0.00    +0.032 A 
BRANCH   8  17
ATOM     14  C   UNL     1       0.910 -10.167  25.040  0.00  0.00    +0.199 C 
ATOM     15  N   UNL     1       1.511  -9.017  24.424  0.00  0.00    -0.166 N 
ATOM     16  N   UNL     1       2.680  -8.506  24.855  0.00  0.00    -0.129 NA
ATOM     17  C   UNL     1       2.835  -7.494  23.974  0.00  0.00    +0.223 A 
ATOM     18  N   UNL     1       1.793  -7.428  23.070  0.00  0.00    -0.106 NA
ATOM     19  N   UNL     1       0.955  -8.409  23.370  0.00  0.00    -0.046 NA
ENDBRANCH   8  17
ENDBRANCH   1  11
BRANCH   5  20
ATOM     20  N   UNL     1       9.506  -0.094  23.440  0.00  0.00    -0.234 N 
ATOM     21  C   UNL     1       9.769   0.620  22.276  0.00  0.00    +0.408 C 
ATOM     22  O   UNL     1       9.438   0.368  21.129  0.00  0.00    -0.226 OA
ATOM     23  O   UNL     1      10.500   1.747  22.590  0.00  0.00    -0.443 OA
ATOM     24  C   UNL     1      10.406   1.911  24.009  0.00  0.00    +0.222 C 
ATOM     25  C   UNL     1      10.263   0.492  24.504  0.00  0.00    +0.164 C 
BRANCH  24  26
ATOM     26  C   UNL     1       9.176   2.763  24.331  0.00  0.00    +0.218 C 
BRANCH  26  27
ATOM     27  O   UNL     1       9.051   3.853  23.422  0.00  0.00    -0.283 OA
BRANCH  27  28
ATOM     28  P   UNL     1       9.874   5.248  24.029  0.00  0.00    +0.472 P 
ATOM     29  O   UNL     1      10.610   6.498  24.572  0.00  0.00    -0.228 OA
BRANCH  28  30
ATOM     30  O   UNL     1       9.030   6.050  22.875  0.00  0.00    -0.303 OA
ATOM     31  H   UNL     1       9.248   5.726  21.984  0.00  0.00    +0.222 HD
ENDBRANCH  28  30
BRANCH  28  32
ATOM     32  O   UNL     1      11.064   4.809  22.995  0.00  0.00    -0.303 OA
ATOM     33  H   UNL     1      10.870   5.268  22.156  0.00  0.00    +0.222 HD
ENDBRANCH  28  32
ENDBRANCH  27  28
ENDBRANCH  26  27
ENDBRANCH  24  26
ENDBRANCH   5  20
TORSDOF 8
ENDMDL
MODEL 4
REMARK VINA RESULT:      -6.9      4.781     10.335
REMARK  Name = 
REMARK  9 active torsions:
REMARK  status: ('A' for Active; 'I' for Inactive)
REMARK    1  A    between atoms: C_1  and  N_2
REMARK    2  A    between atoms: C_5  and  C_7
REMARK    3  A    between atoms: C_10  and  C_13
REMARK    4  A    between atoms: C_16  and  N_20
REMARK    5  A    between atoms: C_22  and  C_24
REMARK    6  A    between atoms: C_24  and  O_25
REMARK    7  A    between atoms: O_25  and  P_26
REMARK    8  A    between atoms: P_26  and  O_27
REMARK    9  A    between atoms: P_26  and  O_28
REMARK                            x       y       z     vdW  Elec       q    Type
REMARK                         _______ _______ _______ _____ _____    ______ ____
ROOT
ATOM      1  C   UNL     1       7.547  -0.811  25.264  0.00  0.00    +0.019 A 
ATOM      2  C   UNL     1       6.664  -1.326  24.306  0.00  0.00    +0.133 A 
ATOM      3  F   UNL     1       6.487  -0.702  23.132  0.00  0.00    -0.205 F 
ATOM      4  C   UNL     1       5.937  -2.503  24.511  0.00  0.00    +0.062 A 
ATOM      5  C   UNL     1       6.057  -3.218  25.702  0.00  0.00    +0.042 A 
ATOM      6  C   UNL     1       6.888  -2.692  26.692  0.00  0.00    +0.024 A 
ATOM      7  C   UNL     1       7.617  -1.511  26.478  0.00  0.00    +0.013 A 
ENDROOT
BRANCH   1  11
ATOM      8  C   UNL     1       9.905   2.603  24.266  0.00  0.00    +0.111 A 
ATOM      9  N   UNL     1       8.675   2.774  24.804  0.00  0.00    -0.251 NA
ATOM     10  C   UNL     1       7.980   1.662  25.148  0.00  0.00    +0.120 A 
ATOM     11  C   UNL     1       8.428   0.347  24.996  0.00  0.00    +0.003 A 
ATOM     12  C   UNL     1       9.727   0.214  24.486  0.00  0.00    +0.012 A 
ATOM     13  C   UNL     1      10.469   1.341  24.112  0.00  0.00    +0.032 A 
BRANCH   8  17
ATOM     14  C   UNL     1      13.149   5.725  22.466  0.00  0.00    +0.199 C 
ATOM     15  N   UNL     1      11.954   5.158  23.027  0.00  0.00    -0.166 N 
ATOM     16  N   UNL     1      11.844   3.842  23.292  0.00  0.00    -0.129 NA
ATOM     17  C   UNL     1      10.599   3.809  23.813  0.00  0.00    +0.223 A 
ATOM     18  N   UNL     1      10.016   5.060  23.846  0.00  0.00    -0.106 NA
ATOM     19  N   UNL     1      10.895   5.913  23.340  0.00  0.00    -0.046 NA
ENDBRANCH   8  17
ENDBRANCH   1  11
BRANCH   5  20
ATOM     20  N   UNL     1       5.329  -4.414  25.912  0.00  0.00    -0.234 N 
ATOM     21  C   UNL     1       3.964  -4.554  26.134  0.00  0.00    +0.408 C 
ATOM     22  O   UNL     1       3.130  -3.693  26.359  0.00  0.00    -0.226 OA
ATOM     23  O   UNL     1       3.627  -5.890  26.055  0.00  0.00    -0.443 OA
ATOM     24  C   UNL     1       4.738  -6.555  25.446  0.00  0.00    +0.222 C 
ATOM     25  C   UNL     1       5.915  -5.719  25.888  0.00  0.00    +0.164 C 
BRANCH  24  26
ATOM     26  C   UNL     1       4.555  -6.541  23.927  0.00  0.00    +0.218 C 
BRANCH  26  27
ATOM     27  O   UNL     1       5.810  -6.458  23.257  0.00  0.00    -0.283 OA
BRANCH  27  28
ATOM     28  P   UNL     1       5.787  -5.190  22.080  0.00  0.00    +0.472 P 
ATOM     29  O   UNL     1       5.767  -4.056  21.026  0.00  0.00    -0.228 OA
BRANCH  28  30
ATOM     30  O   UNL     1       4.223  -5.013  22.535  0.00  0.00    -0.303 OA
ATOM     31  H   UNL     1       3.890  -5.807  22.987  0.00  0.00    +0.222 HD
ENDBRANCH  28  30
BRANCH  28  32
ATOM     32  O   UNL     1       5.447  -6.389  21.019  0.00  0.00    -0.303 OA
ATOM     33  H   UNL     1       5.764  -6.075  20.151  0.00  0.00    +0.222 HD
ENDBRANCH  28  32
ENDBRANCH  27  28
ENDBRANCH  26  27
ENDBRANCH  24  26
ENDBRANCH   5  20
TORSDOF 8
ENDMDL
MODEL 5
REMARK VINA RESULT:      -6.9      5.673     10.602
REMARK  Name = 
REMARK  9 active torsions:
REMARK  status: ('A' for Active; 'I' for Inactive)
REMARK    1  A    between atoms: C_1  and  N_2
REMARK    2  A    between atoms: C_5  and  C_7
REMARK    3  A    between atoms: C_10  and  C_13
REMARK    4  A    between atoms: C_16  and  N_20
REMARK    5  A    between atoms: C_22  and  C_24
REMARK    6  A    between atoms: C_24  and  O_25
REMARK    7  A    between atoms: O_25  and  P_26
REMARK    8  A    between atoms: P_26  and  O_27
REMARK    9  A    between atoms: P_26  and  O_28
REMARK                            x       y       z     vdW  Elec       q    Type
REMARK                         _______ _______ _______ _____ _____    ______ ____
ROOT
ATOM      1  C   UNL     1       8.026  -1.860  23.687  0.00  0.00    +0.019 A 
ATOM      2  C   UNL     1       8.660  -3.089  23.909  0.00  0.00    +0.133 A 
ATOM      3  F   UNL     1       9.998  -3.176  23.929  0.00  0.00    -0.205 F 
ATOM      4  C   UNL     1       7.947  -4.271  24.130  0.00  0.00    +0.062 A 
ATOM      5  C   UNL     1       6.552  -4.276  24.127  0.00  0.00    +0.042 A 
ATOM      6  C   UNL     1       5.902  -3.073  23.849  0.00  0.00    +0.024 A 
ATOM      7  C   UNL     1       6.624  -1.889  23.632  0.00  0.00    +0.013 A 
ENDROOT
BRANCH   1  11
ATOM      8  C   UNL     1       9.923   1.961  23.540  0.00  0.00    +0.111 A 
ATOM      9  N   UNL     1       9.623   1.409  24.740  0.00  0.00    -0.251 NA
ATOM     10  C   UNL     1       9.063   0.174  24.739  0.00  0.00    +0.120 A 
ATOM     11  C   UNL     1       8.769  -0.583  23.602  0.00  0.00    +0.003 A 
ATOM     12  C   UNL     1       9.145   0.000  22.383  0.00  0.00    +0.012 A 
ATOM     13  C   UNL     1       9.717   1.278  22.347  0.00  0.00    +0.032 A 
BRANCH   8  17
ATOM     14  C   UNL     1      12.752   5.888  23.270  0.00  0.00    +0.199 C 
ATOM     15  N   UNL     1      11.615   5.024  23.423  0.00  0.00    -0.166 N 
ATOM     16  N   UNL     1      11.717   3.685  23.314  0.00  0.00    -0.129 NA
ATOM     17  C   UNL     1      10.437   3.331  23.558  0.00  0.00    +0.223 A 
ATOM     18  N   UNL     1       9.631   4.425  23.799  0.00  0.00    -0.106 NA
ATOM     19  N   UNL     1      10.399   5.501  23.711  0.00  0.00    -0.046 NA
ENDBRANCH   8  17
ENDBRANCH   1  11
BRANCH   5  20
ATOM     20  N   UNL     1       5.826  -5.469  24.356  0.00  0.00    -0.234 N 
ATOM     21  C   UNL     1       5.733  -6.197  25.537  0.00  0.00    +0.408 C 
ATOM     22  O   UNL     1       6.371  -6.073  26.569  0.00  0.00    -0.226 OA
ATOM     23  O   UNL     1       4.748  -7.154  25.403  0.00  0.00    -0.443 OA
ATOM     24  C   UNL     1       3.990  -6.799  24.241  0.00  0.00    +0.222 C 
ATOM     25  C   UNL     1       5.012  -6.110  23.369  0.00  0.00    +0.164 C 
BRANCH  24  26
ATOM     26  C   UNL     1       2.856  -5.859  24.656  0.00  0.00    +0.218 C 
BRANCH  26  27
ATOM     27  O   UNL     1       1.718  -6.590  25.104  0.00  0.00    -0.283 OA
BRANCH  27  28
ATOM     28  P   UNL     1       1.361  -6.208  26.753  0.00  0.00    +0.472 P 
ATOM     29  O   UNL     1       1.042  -5.867  28.230  0.00  0.00    -0.228 OA
BRANCH  28  30
ATOM     30  O   UNL     1       2.611  -5.158  26.613  0.00  0.00    -0.303 OA
ATOM     31  H   UNL     1       3.007  -4.956  27.479  0.00  0.00    +0.222 HD
ENDBRANCH  28  30
BRANCH  28  32
ATOM     32  O   UNL     1       2.336  -7.477  27.099  0.00  0.00    -0.303 OA
ATOM     33  H   UNL     1       1.821  -8.053  27.696  0.00  0.00    +0.222 HD
ENDBRANCH  28  32
ENDBRANCH  27  28
ENDBRANCH  26  27
ENDBRANCH  24  26
ENDBRANCH   5  20
TORSDOF 8
ENDMDL
MODEL 6
REMARK VINA RESULT:      -6.7      5.996     10.903
REMARK  Name = 
REMARK  9 active torsions:
REMARK  status: ('A' for Active; 'I' for Inactive)
REMARK    1  A    between atoms: C_1  and  N_2
REMARK    2  A    between atoms: C_5  and  C_7
REMARK    3  A    between atoms: C_10  and  C_13
REMARK    4  A    between atoms: C_16  and  N_20
REMARK    5  A    between atoms: C_22  and  C_24
REMARK    6  A    between atoms: C_24  and  O_25
REMARK    7  A    between atoms: O_25  and  P_26
REMARK    8  A    between atoms: P_26  and  O_27
REMARK    9  A    between atoms: P_26  and  O_28
REMARK                            x       y       z     vdW  Elec       q    Type
REMARK                         _______ _______ _______ _____ _____    ______ ____
ROOT
ATOM      1  C   UNL     1       7.711  -1.098  25.227  0.00  0.00    +0.019 A 
ATOM      2  C   UNL     1       6.504  -1.598  24.724  0.00  0.00    +0.133 A 
ATOM      3  F   UNL     1       5.739  -0.854  23.912  0.00  0.00    -0.205 F 
ATOM      4  C   UNL     1       6.039  -2.882  25.026  0.00  0.00    +0.062 A 
ATOM      5  C   UNL     1       6.769  -3.727  25.863  0.00  0.00    +0.042 A 
ATOM      6  C   UNL     1       7.947  -3.227  26.420  0.00  0.00    +0.024 A 
ATOM      7  C   UNL     1       8.408  -1.938  26.110  0.00  0.00    +0.013 A 
ENDROOT
BRANCH   1  11
ATOM      8  C   UNL     1       9.609   2.556  24.105  0.00  0.00    +0.111 A 
ATOM      9  N   UNL     1       9.986   1.398  23.514  0.00  0.00    -0.251 NA
ATOM     10  C   UNL     1       9.324   0.269  23.868  0.00  0.00    +0.120 A 
ATOM     11  C   UNL     1       8.280   0.197  24.793  0.00  0.00    +0.003 A 
ATOM     12  C   UNL     1       7.884   1.425  25.342  0.00  0.00    +0.012 A 
ATOM     13  C   UNL     1       8.552   2.609  25.006  0.00  0.00    +0.032 A 
BRANCH   8  17
ATOM     14  C   UNL     1      13.089   5.589  22.622  0.00  0.00    +0.199 C 
ATOM     15  N   UNL     1      11.854   5.061  23.133  0.00  0.00    -0.166 N 
ATOM     16  N   UNL     1      11.638   3.737  23.248  0.00  0.00    -0.129 NA
ATOM     17  C   UNL     1      10.397   3.746  23.782  0.00  0.00    +0.223 A 
ATOM     18  N   UNL     1       9.921   5.028  23.968  0.00  0.00    -0.106 NA
ATOM     19  N   UNL     1      10.864   5.859  23.550  0.00  0.00    -0.046 NA
ENDBRANCH   8  17
ENDBRANCH   1  11
BRANCH   5  20
ATOM     20  N   UNL     1       6.307  -5.030  26.167  0.00  0.00    -0.234 N 
ATOM     21  C   UNL     1       6.226  -5.638  27.414  0.00  0.00    +0.408 C 
ATOM     22  O   UNL     1       6.676  -5.261  28.484  0.00  0.00    -0.226 OA
ATOM     23  O   UNL     1       5.509  -6.811  27.302  0.00  0.00    -0.443 OA
ATOM     24  C   UNL     1       4.851  -6.766  26.031  0.00  0.00    +0.222 C 
ATOM     25  C   UNL     1       5.797  -5.943  25.190  0.00  0.00    +0.164 C 
BRANCH  24  26
ATOM     26  C   UNL     1       3.489  -6.089  26.200  0.00  0.00    +0.218 C 
BRANCH  26  27
ATOM     27  O   UNL     1       2.630  -6.376  25.101  0.00  0.00    -0.283 OA
BRANCH  27  28
ATOM     28  P   UNL     1       2.287  -8.070  25.024  0.00  0.00    +0.472 P 
ATOM     29  O   UNL     1       1.979  -9.586  24.955  0.00  0.00    -0.228 OA
BRANCH  28  30
ATOM     30  O   UNL     1       2.821  -7.945  23.479  0.00  0.00    -0.303 OA
ATOM     31  H   UNL     1       3.038  -8.816  23.105  0.00  0.00    +0.222 HD
ENDBRANCH  28  30
BRANCH  28  32
ATOM     32  O   UNL     1       0.769  -7.590  24.644  0.00  0.00    -0.303 OA
ATOM     33  H   UNL     1       0.379  -8.323  24.131  0.00  0.00    +0.222 HD
ENDBRANCH  28  32
ENDBRANCH  27  28
ENDBRANCH  26  27
ENDBRANCH  24  26
ENDBRANCH   5  20
TORSDOF 8
ENDMDL
MODEL 7
REMARK VINA RESULT:      -6.6      3.390      5.444
REMARK  Name = 
REMARK  9 active torsions:
REMARK  status: ('A' for Active; 'I' for Inactive)
REMARK    1  A    between atoms: C_1  and  N_2
REMARK    2  A    between atoms: C_5  and  C_7
REMARK    3  A    between atoms: C_10  and  C_13
REMARK    4  A    between atoms: C_16  and  N_20
REMARK    5  A    between atoms: C_22  and  C_24
REMARK    6  A    between atoms: C_24  and  O_25
REMARK    7  A    between atoms: O_25  and  P_26
REMARK    8  A    between atoms: P_26  and  O_27
REMARK    9  A    between atoms: P_26  and  O_28
REMARK                            x       y       z     vdW  Elec       q    Type
REMARK                         _______ _______ _______ _____ _____    ______ ____
ROOT
ATOM      1  C   UNL     1       7.798   0.992  24.618  0.00  0.00    +0.019 A 
ATOM      2  C   UNL     1       9.015   1.446  24.096  0.00  0.00    +0.133 A 
ATOM      3  F   UNL     1       9.859   0.599  23.489  0.00  0.00    -0.205 F 
ATOM      4  C   UNL     1       9.408   2.787  24.165  0.00  0.00    +0.062 A 
ATOM      5  C   UNL     1       8.593   3.738  24.779  0.00  0.00    +0.042 A 
ATOM      6  C   UNL     1       7.402   3.296  25.357  0.00  0.00    +0.024 A 
ATOM      7  C   UNL     1       7.013   1.949  25.280  0.00  0.00    +0.013 A 
ENDROOT
BRANCH   1  11
ATOM      8  C   UNL     1       6.121  -2.880  23.977  0.00  0.00    +0.111 A 
ATOM      9  N   UNL     1       6.280  -2.039  22.928  0.00  0.00    -0.251 NA
ATOM     10  C   UNL     1       6.860  -0.837  23.172  0.00  0.00    +0.120 A 
ATOM     11  C   UNL     1       7.310  -0.391  24.417  0.00  0.00    +0.003 A 
ATOM     12  C   UNL     1       7.176  -1.312  25.465  0.00  0.00    +0.012 A 
ATOM     13  C   UNL     1       6.575  -2.559  25.251  0.00  0.00    +0.032 A 
BRANCH   8  17
ATOM     14  C   UNL     1       3.828  -7.129  24.421  0.00  0.00    +0.199 C 
ATOM     15  N   UNL     1       4.404  -5.930  23.877  0.00  0.00    -0.166 N 
ATOM     16  N   UNL     1       5.031  -5.025  24.653  0.00  0.00    -0.129 NA
ATOM     17  C   UNL     1       5.408  -4.131  23.713  0.00  0.00    +0.223 A 
ATOM     18  N   UNL     1       5.013  -4.510  22.446  0.00  0.00    -0.106 NA
ATOM     19  N   UNL     1       4.373  -5.664  22.567  0.00  0.00    -0.046 NA
ENDBRANCH   8  17
ENDBRANCH   1  11
BRANCH   5  20
ATOM     20  N   UNL     1       8.982   5.097  24.846  0.00  0.00    -0.234 N 
ATOM     21  C   UNL     1       8.962   5.937  25.954  0.00  0.00    +0.408 C 
ATOM     22  O   UNL     1       8.463   5.751  27.051  0.00  0.00    -0.226 OA
ATOM     23  O   UNL     1       9.637   7.102  25.652  0.00  0.00    -0.443 OA
ATOM     24  C   UNL     1      10.373   6.847  24.451  0.00  0.00    +0.222 C 
ATOM     25  C   UNL     1       9.514   5.831  23.738  0.00  0.00    +0.164 C 
BRANCH  24  26
ATOM     26  C   UNL     1      11.749   6.286  24.820  0.00  0.00    +0.218 C 
BRANCH  26  27
ATOM     27  O   UNL     1      12.121   5.220  23.952  0.00  0.00    -0.283 OA
BRANCH  27  28
ATOM     28  P   UNL     1      13.114   5.806  22.662  0.00  0.00    +0.472 P 
ATOM     29  O   UNL     1      14.004   6.330  21.508  0.00  0.00    -0.228 OA
BRANCH  28  30
ATOM     30  O   UNL     1      12.459   4.569  21.809  0.00  0.00    -0.303 OA
ATOM     31  H   UNL     1      11.829   4.890  21.141  0.00  0.00    +0.222 HD
ENDBRANCH  28  30
BRANCH  28  32
ATOM     32  O   UNL     1      14.273   4.863  23.331  0.00  0.00    -0.303 OA
ATOM     33  H   UNL     1      13.813   4.065  23.655  0.00  0.00    +0.222 HD
ENDBRANCH  28  32
ENDBRANCH  27  28
ENDBRANCH  26  27
ENDBRANCH  24  26
ENDBRANCH   5  20
TORSDOF 8
ENDMDL
MODEL 8
REMARK VINA RESULT:      -6.0      5.907     10.967
REMARK  Name = 
REMARK  9 active torsions:
REMARK  status: ('A' for Active; 'I' for Inactive)
REMARK    1  A    between atoms: C_1  and  N_2
REMARK    2  A    between atoms: C_5  and  C_7
REMARK    3  A    between atoms: C_10  and  C_13
REMARK    4  A    between atoms: C_16  and  N_20
REMARK    5  A    between atoms: C_22  and  C_24
REMARK    6  A    between atoms: C_24  and  O_25
REMARK    7  A    between atoms: O_25  and  P_26
REMARK    8  A    between atoms: P_26  and  O_27
REMARK    9  A    between atoms: P_26  and  O_28
REMARK                            x       y       z     vdW  Elec       q    Type
REMARK                         _______ _______ _______ _____ _____    ______ ____
ROOT
ATOM      1  C   UNL     1       7.789  -0.809  24.949  0.00  0.00    +0.019 A 
ATOM      2  C   UNL     1       7.596  -1.401  26.202  0.00  0.00    +0.133 A 
ATOM      3  F   UNL     1       8.300  -0.994  27.269  0.00  0.00    -0.205 F 
ATOM      4  C   UNL     1       6.668  -2.426  26.414  0.00  0.00    +0.062 A 
ATOM      5  C   UNL     1       5.892  -2.914  25.363  0.00  0.00    +0.042 A 
ATOM      6  C   UNL     1       6.110  -2.377  24.093  0.00  0.00    +0.024 A 
ATOM      7  C   UNL     1       7.040  -1.347  23.890  0.00  0.00    +0.013 A 
ENDROOT
BRANCH   1  11
ATOM      8  C   UNL     1      10.134   2.662  24.130  0.00  0.00    +0.111 A 
ATOM      9  N   UNL     1       8.850   2.803  24.535  0.00  0.00    -0.251 NA
ATOM     10  C   UNL     1       8.157   1.674  24.828  0.00  0.00    +0.120 A 
ATOM     11  C   UNL     1       8.658   0.372  24.750  0.00  0.00    +0.003 A 
ATOM     12  C   UNL     1      10.006   0.273  24.379  0.00  0.00    +0.012 A 
ATOM     13  C   UNL     1      10.749   1.417  24.061  0.00  0.00    +0.032 A 
BRANCH   8  17
ATOM     14  C   UNL     1      13.354   5.833  22.374  0.00  0.00    +0.199 C 
ATOM     15  N   UNL     1      12.178   5.254  22.962  0.00  0.00    -0.166 N 
ATOM     16  N   UNL     1      12.047   3.925  23.136  0.00  0.00    -0.129 NA
ATOM     17  C   UNL     1      10.834   3.882  23.727  0.00  0.00    +0.223 A 
ATOM     18  N   UNL     1      10.289   5.140  23.888  0.00  0.00    -0.106 NA
ATOM     19  N   UNL     1      11.161   6.008  23.395  0.00  0.00    -0.046 NA
ENDBRANCH   8  17
ENDBRANCH   1  11
BRANCH   5  20
ATOM     20  N   UNL     1       4.946  -3.946  25.572  0.00  0.00    -0.234 N 
ATOM     21  C   UNL     1       3.560  -3.844  25.587  0.00  0.00    +0.408 C 
ATOM     22  O   UNL     1       2.863  -2.842  25.589  0.00  0.00    -0.226 OA
ATOM     23  O   UNL     1       3.011  -5.110  25.590  0.00  0.00    -0.443 OA
ATOM     24  C   UNL     1       4.066  -6.011  25.236  0.00  0.00    +0.222 C 
ATOM     25  C   UNL     1       5.296  -5.320  25.773  0.00  0.00    +0.164 C 
BRANCH  24  26
ATOM     26  C   UNL     1       4.103  -6.160  23.713  0.00  0.00    +0.218 C 
BRANCH  26  27
ATOM     27  O   UNL     1       2.808  -6.439  23.191  0.00  0.00    -0.283 OA
BRANCH  27  28
ATOM     28  P   UNL     1       2.154  -7.867  23.916  0.00  0.00    +0.472 P 
ATOM     29  O   UNL     1       1.569  -9.146  24.565  0.00  0.00    -0.228 OA
BRANCH  28  30
ATOM     30  O   UNL     1       1.641  -8.210  22.398  0.00  0.00    -0.303 OA
ATOM     31  H   UNL     1       0.827  -7.724  22.177  0.00  0.00    +0.222 HD
ENDBRANCH  28  30
BRANCH  28  32
ATOM     32  O   UNL     1       0.860  -6.922  24.248  0.00  0.00    -0.303 OA
ATOM     33  H   UNL     1       1.206  -6.011  24.315  0.00  0.00    +0.222 HD
ENDBRANCH  28  32
ENDBRANCH  27  28
ENDBRANCH  26  27
ENDBRANCH  24  26
ENDBRANCH   5  20
TORSDOF 8
ENDMDL
MODEL 9
REMARK VINA RESULT:      -5.9      5.748     10.602
REMARK  Name = 
REMARK  9 active torsions:
REMARK  status: ('A' for Active; 'I' for Inactive)
REMARK    1  A    between atoms: C_1  and  N_2
REMARK    2  A    between atoms: C_5  and  C_7
REMARK    3  A    between atoms: C_10  and  C_13
REMARK    4  A    between atoms: C_16  and  N_20
REMARK    5  A    between atoms: C_22  and  C_24
REMARK    6  A    between atoms: C_24  and  O_25
REMARK    7  A    between atoms: O_25  and  P_26
REMARK    8  A    between atoms: P_26  and  O_27
REMARK    9  A    between atoms: P_26  and  O_28
REMARK                            x       y       z     vdW  Elec       q    Type
REMARK                         _______ _______ _______ _____ _____    ______ ____
ROOT
ATOM      1  C   UNL     1       6.411  -1.416  24.897  0.00  0.00    +0.019 A 
ATOM      2  C   UNL     1       5.839  -2.283  23.958  0.00  0.00    +0.133 A 
ATOM      3  F   UNL     1       5.881  -1.998  22.648  0.00  0.00    -0.205 F 
ATOM      4  C   UNL     1       5.212  -3.478  24.324  0.00  0.00    +0.062 A 
ATOM      5  C   UNL     1       5.121  -3.855  25.664  0.00  0.00    +0.042 A 
ATOM      6  C   UNL     1       5.634  -2.977  26.620  0.00  0.00    +0.024 A 
ATOM      7  C   UNL     1       6.265  -1.781  26.244  0.00  0.00    +0.013 A 
ENDROOT
BRANCH   1  11
ATOM      8  C   UNL     1       8.835   1.991  24.039  0.00  0.00    +0.111 A 
ATOM      9  N   UNL     1       9.405   0.765  24.106  0.00  0.00    -0.251 NA
ATOM     10  C   UNL     1       8.589  -0.294  24.335  0.00  0.00    +0.120 A 
ATOM     11  C   UNL     1       7.204  -0.229  24.508  0.00  0.00    +0.003 A 
ATOM     12  C   UNL     1       6.647   1.051  24.377  0.00  0.00    +0.012 A 
ATOM     13  C   UNL     1       7.461   2.168  24.149  0.00  0.00    +0.032 A 
BRANCH   8  17
ATOM     14  C   UNL     1      10.854   6.397  24.153  0.00  0.00    +0.199 C 
ATOM     15  N   UNL     1      10.636   4.993  23.947  0.00  0.00    -0.166 N 
ATOM     16  N   UNL     1       9.481   4.392  24.291  0.00  0.00    -0.129 NA
ATOM     17  C   UNL     1       9.742   3.130  23.888  0.00  0.00    +0.223 A 
ATOM     18  N   UNL     1      11.000   3.011  23.333  0.00  0.00    -0.106 NA
ATOM     19  N   UNL     1      11.560   4.211  23.376  0.00  0.00    -0.046 NA
ENDBRANCH   8  17
ENDBRANCH   1  11
BRANCH   5  20
ATOM     20  N   UNL     1       4.494  -5.067  26.039  0.00  0.00    -0.234 N 
ATOM     21  C   UNL     1       3.164  -5.267  26.390  0.00  0.00    +0.408 C 
ATOM     22  O   UNL     1       2.295  -4.440  26.610  0.00  0.00    -0.226 OA
ATOM     23  O   UNL     1       2.911  -6.622  26.458  0.00  0.00    -0.443 OA
ATOM     24  C   UNL     1       4.012  -7.274  25.816  0.00  0.00    +0.222 C 
ATOM     25  C   UNL     1       5.162  -6.332  26.079  0.00  0.00    +0.164 C 
BRANCH  24  26
ATOM     26  C   UNL     1       3.706  -7.412  24.322  0.00  0.00    +0.218 C 
BRANCH  26  27
ATOM     27  O   UNL     1       2.452  -8.054  24.110  0.00  0.00    -0.283 OA
BRANCH  27  28
ATOM     28  P   UNL     1       1.489  -7.151  22.992  0.00  0.00    +0.472 P 
ATOM     29  O   UNL     1       0.626  -6.342  21.992  0.00  0.00    -0.228 OA
BRANCH  28  30
ATOM     30  O   UNL     1       1.611  -8.489  22.053  0.00  0.00    -0.303 OA
ATOM     31  H   UNL     1       1.909  -9.259  22.566  0.00  0.00    +0.222 HD
ENDBRANCH  28  30
BRANCH  28  32
ATOM     32  O   UNL     1       2.920  -6.542  22.485  0.00  0.00    -0.303 OA
ATOM     33  H   UNL     1       3.271  -7.188  21.842  0.00  0.00    +0.222 HD
ENDBRANCH  28  32
ENDBRANCH  27  28
ENDBRANCH  26  27
ENDBRANCH  24  26
ENDBRANCH   5  20
TORSDOF 8
ENDMDL
