MODEL 1
REMARK VINA RESULT:      -6.8      0.000      0.000
REMARK  Name = 
REMARK  17 active torsions:
REMARK  status: ('A' for Active; 'I' for Inactive)
REMARK    1  A    between atoms: C_2  and  C_4
REMARK    2  A    between atoms: N_6  and  C_38
REMARK    3  A    between atoms: C_9  and  N_11
REMARK    4  A    between atoms: N_18  and  C_19
REMARK    5  A    between atoms: C_19  and  C_21
REMARK    6  A    between atoms: C_19  and  C_30
REMARK    7  A    between atoms: C_41  and  C_43
REMARK    8  A    between atoms: C_43  and  O_44
REMARK    9  A    between atoms: O_44  and  P_45
REMARK   10  A    between atoms: P_45  and  O_48
REMARK   11  A    between atoms: O_48  and  P_49
REMARK   12  A    between atoms: P_49  and  O_52
REMARK   13  A    between atoms: O_52  and  C_53
REMARK   14  A    between atoms: C_53  and  C_54
REMARK   15  A    between atoms: C_57  and  N_65
REMARK   16  A    between atoms: C_75  and  O_77
REMARK   17  A    between atoms: C_78  and  O_80
REMARK                            x       y       z     vdW  Elec       q    Type
REMARK                         _______ _______ _______ _____ _____    ______ ____
ROOT
ATOM      1  C   UNL     1       8.829  -3.480  23.472  0.00  0.00    +0.241 C 
ATOM      2  C   UNL     1       9.454  -3.814  24.836  0.00  0.00    +0.193 C 
ATOM      3  C   UNL     1       8.283  -3.696  25.818  0.00  0.00    +0.178 C 
ATOM      4  C   UNL     1       7.078  -3.339  24.937  0.00  0.00    +0.178 C 
ATOM      5  O   UNL     1       7.426  -3.709  23.591  0.00  0.00    -0.348 OA
ENDROOT
BRANCH   1  10
ATOM      6  C   UNL     1      10.011   0.075  23.492  0.00  0.00    +0.056 C 
ATOM      7  C   UNL     1       9.260   0.702  22.328  0.00  0.00    +0.167 C 
ATOM      8  C   UNL     1       8.743  -0.352  21.363  0.00  0.00    +0.020 C 
ATOM      9  C   UNL     1       8.689  -1.646  21.707  0.00  0.00    +0.075 C 
ATOM     10  N   UNL     1       9.128  -2.107  22.955  0.00  0.00    -0.284 N 
ATOM     11  C   UNL     1       9.918  -1.252  23.723  0.00  0.00    +0.088 C 
BRANCH   7  12
ATOM     12  N   UNL     1       8.106   1.489  22.812  0.00  0.00    -0.257 N 
ATOM     13  N   UNL     1       6.959   0.901  23.261  0.00  0.00    -0.150 NA
ATOM     14  C   UNL     1       6.230   1.941  23.652  0.00  0.00    +0.185 A 
ATOM     15  N   UNL     1       4.908   1.839  24.077  0.00  0.00    -0.216 NA
ATOM     16  C   UNL     1       4.304   2.989  24.151  0.00  0.00    +0.203 A 
ATOM     17  N   UNL     1       4.841   4.262  23.954  0.00  0.00    -0.309 N 
ATOM     18  C   UNL     1       6.225   4.393  23.866  0.00  0.00    +0.101 A 
ATOM     19  S   UNL     1       7.177   5.746  24.095  0.00  0.00    -0.032 S 
ATOM     20  C   UNL     1       6.873   3.168  23.520  0.00  0.00    +0.069 A 
ATOM     21  C   UNL     1       8.069   2.864  22.923  0.00  0.00    +0.122 A 
BRANCH  17  22
ATOM     22  C   UNL     1       3.949   5.446  23.943  0.00  0.00    +0.205 C 
BRANCH  22  23
ATOM     23  C   UNL     1       3.215   5.727  22.576  0.00  0.00    +0.243 C 
ATOM     24  N   UNL     1       2.090   4.985  22.185  0.00  0.00    -0.299 N 
ATOM     25  C   UNL     1       1.634   5.127  20.794  0.00  0.00    +0.108 C 
ATOM     26  C   UNL     1       2.112   3.952  19.941  0.00  0.00    +0.019 C 
ATOM     27  C   UNL     1       1.157   2.757  19.926  0.00  0.00    +0.002 C 
ATOM     28  C   UNL     1       0.444   2.435  21.238  0.00  0.00    +0.002 C 
ATOM     29  C   UNL     1       1.289   2.619  22.500  0.00  0.00    +0.019 C 
ATOM     30  C   UNL     1       1.316   4.064  23.014  0.00  0.00    +0.108 C 
ATOM     31  O   UNL     1       3.673   6.568  21.790  0.00  0.00    -0.273 OA
ENDBRANCH  22  23
BRANCH  22  32
ATOM     32  C   UNL     1       3.026   5.467  25.172  0.00  0.00    -0.016 A 
ATOM     33  C   UNL     1       3.154   4.546  26.233  0.00  0.00    +0.006 A 
ATOM     34  C   UNL     1       2.321   4.617  27.349  0.00  0.00    +0.000 A 
ATOM     35  C   UNL     1       1.351   5.610  27.440  0.00  0.00    +0.000 A 
ATOM     36  C   UNL     1       1.206   6.529  26.405  0.00  0.00    +0.000 A 
ATOM     37  C   UNL     1       2.033   6.457  25.279  0.00  0.00    +0.006 A 
ENDBRANCH  22  32
ENDBRANCH  17  22
ENDBRANCH   7  12
BRANCH   6  41
ATOM     38  N   UNL     1      11.124   0.575  25.575  0.00  0.00    -0.326 N 
ATOM     39  H   UNL     1      10.856  -0.310  25.957  0.00  0.00    +0.145 HD
ATOM     40  H   UNL     1      11.748   1.161  26.116  0.00  0.00    +0.145 HD
ATOM     41  C   UNL     1      10.859   0.971  24.307  0.00  0.00    +0.241 C 
ATOM     42  O   UNL     1      11.255   2.056  23.900  0.00  0.00    -0.271 OA
ENDBRANCH   6  41
ENDBRANCH   1  10
BRANCH   2  43
ATOM     43  O   UNL     1       9.987  -5.161  24.817  0.00  0.00    -0.385 OA
ATOM     44  H   UNL     1      10.953  -5.082  24.709  0.00  0.00    +0.210 HD
ENDBRANCH   2  43
BRANCH   3  45
ATOM     45  O   UNL     1       8.523  -2.672  26.787  0.00  0.00    -0.386 OA
ATOM     46  H   UNL     1       8.663  -1.855  26.246  0.00  0.00    +0.210 HD
ENDBRANCH   3  45
BRANCH   4  47
ATOM     47  C   UNL     1       5.801  -4.006  25.432  0.00  0.00    +0.202 C 
BRANCH  47  48
ATOM     48  O   UNL     1       5.508  -5.095  24.570  0.00  0.00    -0.325 OA
BRANCH  48  49
ATOM     49  P   UNL     1       3.936  -5.665  24.353  0.00  0.00    +0.218 P 
ATOM     50  O   UNL     1       4.513  -7.295  24.302  0.00  0.00    -0.437 OA
ATOM     51  O   UNL     1       3.749  -5.589  22.805  0.00  0.00    -0.517 OA
BRANCH  49  52
ATOM     52  O   UNL     1       3.357  -4.036  24.404  0.00  0.00    -0.270 OA
BRANCH  52  53
ATOM     53  P   UNL     1       1.999  -3.732  25.345  0.00  0.00    +0.218 P 
ATOM     54  O   UNL     1       2.209  -4.576  26.590  0.00  0.00    -0.517 OA
ATOM     55  O   UNL     1       0.799  -4.023  24.467  0.00  0.00    -0.437 OA
BRANCH  53  56
ATOM     56  O   UNL     1       2.012  -2.150  25.824  0.00  0.00    -0.325 OA
BRANCH  56  57
ATOM     57  C   UNL     1       1.383  -1.630  27.055  0.00  0.00    +0.198 C 
BRANCH  57  58
ATOM     58  C   UNL     1       2.235  -1.480  28.435  0.00  0.00    +0.133 C 
ATOM     59  C   UNL     1       3.738  -2.064  28.344  0.00  0.00    -0.093 C 
ATOM     60  O   UNL     1       4.080  -2.586  29.542  0.00  0.00    -0.852 OA
ATOM     61  C   UNL     1       4.655  -0.797  28.072  0.00  0.00    -0.075 C 
ATOM     62  O   UNL     1       5.194  -0.831  26.842  0.00  0.00    -0.851 OA
ATOM     63  C   UNL     1       3.624   0.379  28.168  0.00  0.00    +0.208 C 
ATOM     64  O   UNL     1       2.420  -0.085  28.835  0.00  0.00    -0.353 OA
BRANCH  63  65
ATOM     65  N   UNL     1       4.133   1.579  28.839  0.00  0.00    -0.289 N 
ATOM     66  C   UNL     1       5.199   2.342  28.426  0.00  0.00    +0.167 A 
ATOM     67  N   UNL     1       5.962   2.185  27.332  0.00  0.00    -0.216 NA
ATOM     68  C   UNL     1       6.929   3.101  27.256  0.00  0.00    +0.225 A 
ATOM     69  N   UNL     1       7.210   4.109  28.115  0.00  0.00    -0.219 NA
ATOM     70  C   UNL     1       6.406   4.240  29.198  0.00  0.00    +0.147 A 
ATOM     71  N   UNL     1       6.735   5.268  30.100  0.00  0.00    -0.341 N 
ATOM     72  H   UNL     1       6.375   5.022  31.017  0.00  0.00    +0.144 HD
ATOM     73  H   UNL     1       7.726   5.443  30.023  0.00  0.00    +0.144 HD
ATOM     74  C   UNL     1       5.353   3.324  29.392  0.00  0.00    +0.147 A 
ATOM     75  N   UNL     1       4.428   3.172  30.408  0.00  0.00    -0.231 NA
ATOM     76  C   UNL     1       3.721   2.113  30.043  0.00  0.00    +0.203 A 
ENDBRANCH  63  65
ENDBRANCH  57  58
ENDBRANCH  56  57
ENDBRANCH  53  56
ENDBRANCH  52  53
ENDBRANCH  49  52
ENDBRANCH  48  49
ENDBRANCH  47  48
ENDBRANCH   4  47
TORSDOF 17
ENDMDL
MODEL 2
REMARK VINA RESULT:      -6.5      2.787      6.411
REMARK  Name = 
REMARK  17 active torsions:
REMARK  status: ('A' for Active; 'I' for Inactive)
REMARK    1  A    between atoms: C_2  and  C_4
REMARK    2  A    between atoms: N_6  and  C_38
REMARK    3  A    between atoms: C_9  and  N_11
REMARK    4  A    between atoms: N_18  and  C_19
REMARK    5  A    between atoms: C_19  and  C_21
REMARK    6  A    between atoms: C_19  and  C_30
REMARK    7  A    between atoms: C_41  and  C_43
REMARK    8  A    between atoms: C_43  and  O_44
REMARK    9  A    between atoms: O_44  and  P_45
REMARK   10  A    between atoms: P_45  and  O_48
REMARK   11  A    between atoms: O_48  and  P_49
REMARK   12  A    between atoms: P_49  and  O_52
REMARK   13  A    between atoms: O_52  and  C_53
REMARK   14  A    between atoms: C_53  and  C_54
REMARK   15  A    between atoms: C_57  and  N_65
REMARK   16  A    between atoms: C_75  and  O_77
REMARK   17  A    between atoms: C_78  and  O_80
REMARK                            x       y       z     vdW  Elec       q    Type
REMARK                         _______ _______ _______ _____ _____    ______ ____
ROOT
ATOM      1  C   UNL     1       4.316  -5.387  24.138  0.00  0.00    +0.241 C 
ATOM      2  C   UNL     1       3.941  -6.350  25.277  0.00  0.00    +0.193 C 
ATOM      3  C   UNL     1       3.650  -5.423  26.462  0.00  0.00    +0.178 C 
ATOM      4  C   UNL     1       3.848  -4.008  25.902  0.00  0.00    +0.178 C 
ATOM      5  O   UNL     1       3.762  -4.115  24.470  0.00  0.00    -0.348 OA
ENDROOT
BRANCH   1  10
ATOM      6  C   UNL     1       7.995  -5.082  24.778  0.00  0.00    +0.056 C 
ATOM      7  C   UNL     1       8.540  -4.557  23.459  0.00  0.00    +0.167 C 
ATOM      8  C   UNL     1       7.569  -4.804  22.316  0.00  0.00    +0.020 C 
ATOM      9  C   UNL     1       6.290  -5.132  22.545  0.00  0.00    +0.075 C 
ATOM     10  N   UNL     1       5.781  -5.297  23.840  0.00  0.00    -0.284 N 
ATOM     11  C   UNL     1       6.694  -5.425  24.887  0.00  0.00    +0.088 C 
BRANCH   7  12
ATOM     12  N   UNL     1       8.798  -3.105  23.540  0.00  0.00    -0.257 N 
ATOM     13  N   UNL     1       9.721  -2.574  24.393  0.00  0.00    -0.150 NA
ATOM     14  C   UNL     1       9.681  -1.278  24.101  0.00  0.00    +0.185 A 
ATOM     15  N   UNL     1      10.376  -0.305  24.814  0.00  0.00    -0.216 NA
ATOM     16  C   UNL     1       9.988   0.906  24.539  0.00  0.00    +0.203 A 
ATOM     17  N   UNL     1       9.061   1.321  23.582  0.00  0.00    -0.309 N 
ATOM     18  C   UNL     1       8.619   0.394  22.640  0.00  0.00    +0.101 A 
ATOM     19  S   UNL     1       7.916   0.655  21.147  0.00  0.00    -0.032 S 
ATOM     20  C   UNL     1       8.809  -0.956  23.065  0.00  0.00    +0.069 A 
ATOM     21  C   UNL     1       8.203  -2.144  22.748  0.00  0.00    +0.122 A 
BRANCH  17  22
ATOM     22  C   UNL     1       8.647   2.743  23.522  0.00  0.00    +0.205 C 
BRANCH  22  23
ATOM     23  C   UNL     1       7.455   3.141  24.474  0.00  0.00    +0.243 C 
ATOM     24  N   UNL     1       6.471   4.056  24.069  0.00  0.00    -0.299 N 
ATOM     25  C   UNL     1       5.558   4.570  25.102  0.00  0.00    +0.108 C 
ATOM     26  C   UNL     1       5.985   5.963  25.564  0.00  0.00    +0.019 C 
ATOM     27  C   UNL     1       5.389   7.108  24.744  0.00  0.00    +0.002 C 
ATOM     28  C   UNL     1       5.250   6.873  23.241  0.00  0.00    +0.002 C 
ATOM     29  C   UNL     1       6.400   6.096  22.595  0.00  0.00    +0.019 C 
ATOM     30  C   UNL     1       6.257   4.574  22.721  0.00  0.00    +0.108 C 
ATOM     31  O   UNL     1       7.414   2.698  25.630  0.00  0.00    -0.273 OA
ENDBRANCH  22  23
BRANCH  22  32
ATOM     32  C   UNL     1       9.860   3.686  23.598  0.00  0.00    -0.016 A 
ATOM     33  C   UNL     1      11.184   3.235  23.411  0.00  0.00    +0.006 A 
ATOM     34  C   UNL     1      12.256   4.125  23.453  0.00  0.00    +0.000 A 
ATOM     35  C   UNL     1      12.036   5.482  23.669  0.00  0.00    +0.000 A 
ATOM     36  C   UNL     1      10.738   5.948  23.857  0.00  0.00    +0.000 A 
ATOM     37  C   UNL     1       9.660   5.059  23.825  0.00  0.00    +0.006 A 
ENDBRANCH  22  32
ENDBRANCH  17  22
ENDBRANCH   7  12
BRANCH   6  41
ATOM     38  N   UNL     1      10.237  -5.526  25.559  0.00  0.00    -0.326 N 
ATOM     39  H   UNL     1      10.580  -5.565  24.619  0.00  0.00    +0.145 HD
ATOM     40  H   UNL     1      10.907  -5.575  26.316  0.00  0.00    +0.145 HD
ATOM     41  C   UNL     1       8.957  -5.231  25.892  0.00  0.00    +0.241 C 
ATOM     42  O   UNL     1       8.622  -5.164  27.067  0.00  0.00    -0.271 OA
ENDBRANCH   6  41
ENDBRANCH   1  10
BRANCH   2  43
ATOM     43  O   UNL     1       2.766  -7.113  24.909  0.00  0.00    -0.385 OA
ATOM     44  H   UNL     1       2.729  -7.882  25.507  0.00  0.00    +0.210 HD
ENDBRANCH   2  43
BRANCH   3  45
ATOM     45  O   UNL     1       4.553  -5.669  27.544  0.00  0.00    -0.386 OA
ATOM     46  H   UNL     1       4.225  -6.512  27.946  0.00  0.00    +0.210 HD
ENDBRANCH   3  45
BRANCH   4  47
ATOM     47  C   UNL     1       2.847  -3.023  26.491  0.00  0.00    +0.202 C 
BRANCH  47  48
ATOM     48  O   UNL     1       3.504  -2.278  27.506  0.00  0.00    -0.325 OA
BRANCH  48  49
ATOM     49  P   UNL     1       4.266  -0.808  27.183  0.00  0.00    +0.218 P 
ATOM     50  O   UNL     1       4.322  -1.186  25.497  0.00  0.00    -0.437 OA
ATOM     51  O   UNL     1       5.775  -1.144  27.399  0.00  0.00    -0.517 OA
BRANCH  49  52
ATOM     52  O   UNL     1       4.211  -0.430  28.871  0.00  0.00    -0.270 OA
BRANCH  52  53
ATOM     53  P   UNL     1       3.262   0.877  29.333  0.00  0.00    +0.218 P 
ATOM     54  O   UNL     1       4.259   1.994  29.588  0.00  0.00    -0.517 OA
ATOM     55  O   UNL     1       2.405   0.394  30.485  0.00  0.00    -0.437 OA
BRANCH  53  56
ATOM     56  O   UNL     1       2.325   1.348  28.054  0.00  0.00    -0.325 OA
BRANCH  56  57
ATOM     57  C   UNL     1       0.905   1.745  28.143  0.00  0.00    +0.198 C 
BRANCH  57  58
ATOM     58  C   UNL     1       0.444   3.281  27.861  0.00  0.00    +0.133 C 
ATOM     59  C   UNL     1       1.372   4.388  28.585  0.00  0.00    -0.093 C 
ATOM     60  O   UNL     1       0.604   5.438  28.947  0.00  0.00    -0.852 OA
ATOM     61  C   UNL     1       2.383   4.874  27.461  0.00  0.00    -0.075 C 
ATOM     62  O   UNL     1       3.643   4.492  27.730  0.00  0.00    -0.851 OA
ATOM     63  C   UNL     1       1.857   4.113  26.197  0.00  0.00    +0.208 C 
ATOM     64  O   UNL     1       0.505   3.639  26.444  0.00  0.00    -0.353 OA
BRANCH  63  65
ATOM     65  N   UNL     1       1.888   4.898  24.959  0.00  0.00    -0.289 N 
ATOM     66  C   UNL     1       2.143   4.407  23.701  0.00  0.00    +0.167 A 
ATOM     67  N   UNL     1       2.372   3.136  23.332  0.00  0.00    -0.216 NA
ATOM     68  C   UNL     1       2.605   3.024  22.023  0.00  0.00    +0.225 A 
ATOM     69  N   UNL     1       2.636   3.997  21.083  0.00  0.00    -0.219 NA
ATOM     70  C   UNL     1       2.384   5.264  21.495  0.00  0.00    +0.147 A 
ATOM     71  N   UNL     1       2.459   6.267  20.513  0.00  0.00    -0.341 N 
ATOM     72  H   UNL     1       2.673   7.149  20.967  0.00  0.00    +0.144 HD
ATOM     73  H   UNL     1       3.091   5.950  19.793  0.00  0.00    +0.144 HD
ATOM     74  C   UNL     1       2.133   5.509  22.859  0.00  0.00    +0.147 A 
ATOM     75  N   UNL     1       1.908   6.674  23.568  0.00  0.00    -0.231 NA
ATOM     76  C   UNL     1       1.774   6.266  24.822  0.00  0.00    +0.203 A 
ENDBRANCH  63  65
ENDBRANCH  57  58
ENDBRANCH  56  57
ENDBRANCH  53  56
ENDBRANCH  52  53
ENDBRANCH  49  52
ENDBRANCH  48  49
ENDBRANCH  47  48
ENDBRANCH   4  47
TORSDOF 17
ENDMDL
MODEL 3
REMARK VINA RESULT:      -6.2      3.601      5.774
REMARK  Name = 
REMARK  17 active torsions:
REMARK  status: ('A' for Active; 'I' for Inactive)
REMARK    1  A    between atoms: C_2  and  C_4
REMARK    2  A    between atoms: N_6  and  C_38
REMARK    3  A    between atoms: C_9  and  N_11
REMARK    4  A    between atoms: N_18  and  C_19
REMARK    5  A    between atoms: C_19  and  C_21
REMARK    6  A    between atoms: C_19  and  C_30
REMARK    7  A    between atoms: C_41  and  C_43
REMARK    8  A    between atoms: C_43  and  O_44
REMARK    9  A    between atoms: O_44  and  P_45
REMARK   10  A    between atoms: P_45  and  O_48
REMARK   11  A    between atoms: O_48  and  P_49
REMARK   12  A    between atoms: P_49  and  O_52
REMARK   13  A    between atoms: O_52  and  C_53
REMARK   14  A    between atoms: C_53  and  C_54
REMARK   15  A    between atoms: C_57  and  N_65
REMARK   16  A    between atoms: C_75  and  O_77
REMARK   17  A    between atoms: C_78  and  O_80
REMARK                            x       y       z     vdW  Elec       q    Type
REMARK                         _______ _______ _______ _____ _____    ______ ____
ROOT
ATOM      1  C   UNL     1       9.691  -1.232  21.965  0.00  0.00    +0.241 C 
ATOM      2  C   UNL     1       9.980  -1.743  23.387  0.00  0.00    +0.193 C 
ATOM      3  C   UNL     1       8.701  -2.490  23.778  0.00  0.00    +0.178 C 
ATOM      4  C   UNL     1       7.797  -2.376  22.543  0.00  0.00    +0.178 C 
ATOM      5  O   UNL     1       8.652  -2.052  21.433  0.00  0.00    -0.348 OA
ENDROOT
BRANCH   1  10
ATOM      6  C   UNL     1       9.835   2.438  22.708  0.00  0.00    +0.056 C 
ATOM      7  C   UNL     1       8.481   2.946  22.238  0.00  0.00    +0.167 C 
ATOM      8  C   UNL     1       7.825   1.974  21.270  0.00  0.00    +0.020 C 
ATOM      9  C   UNL     1       8.260   0.713  21.146  0.00  0.00    +0.075 C 
ATOM     10  N   UNL     1       9.355   0.225  21.871  0.00  0.00    -0.284 N 
ATOM     11  C   UNL     1      10.190   1.154  22.492  0.00  0.00    +0.088 C 
BRANCH   7  12
ATOM     12  N   UNL     1       7.569   3.143  23.383  0.00  0.00    -0.257 N 
ATOM     13  N   UNL     1       7.312   2.156  24.289  0.00  0.00    -0.150 NA
ATOM     14  C   UNL     1       6.518   2.761  25.166  0.00  0.00    +0.185 A 
ATOM     15  N   UNL     1       5.890   2.103  26.220  0.00  0.00    -0.216 NA
ATOM     16  C   UNL     1       4.956   2.813  26.784  0.00  0.00    +0.203 A 
ATOM     17  N   UNL     1       4.597   4.136  26.520  0.00  0.00    -0.309 N 
ATOM     18  C   UNL     1       5.435   4.903  25.714  0.00  0.00    +0.101 A 
ATOM     19  S   UNL     1       5.552   6.564  25.588  0.00  0.00    -0.032 S 
ATOM     20  C   UNL     1       6.289   4.106  24.891  0.00  0.00    +0.069 A 
ATOM     21  C   UNL     1       6.934   4.326  23.702  0.00  0.00    +0.122 A 
BRANCH  17  22
ATOM     22  C   UNL     1       3.403   4.721  27.174  0.00  0.00    +0.205 C 
BRANCH  22  23
ATOM     23  C   UNL     1       2.322   5.322  26.195  0.00  0.00    +0.243 C 
ATOM     24  N   UNL     1       1.994   4.685  24.989  0.00  0.00    -0.299 N 
ATOM     25  C   UNL     1       1.185   5.441  24.021  0.00  0.00    +0.108 C 
ATOM     26  C   UNL     1       2.063   6.031  22.918  0.00  0.00    +0.019 C 
ATOM     27  C   UNL     1       2.275   5.103  21.720  0.00  0.00    +0.002 C 
ATOM     28  C   UNL     1       2.428   3.614  22.026  0.00  0.00    +0.002 C 
ATOM     29  C   UNL     1       3.224   3.289  23.292  0.00  0.00    +0.019 C 
ATOM     30  C   UNL     1       2.383   3.339  24.574  0.00  0.00    +0.108 C 
ATOM     31  O   UNL     1       1.797   6.414  26.451  0.00  0.00    -0.273 OA
ENDBRANCH  22  23
BRANCH  22  32
ATOM     32  C   UNL     1       2.830   3.780  28.247  0.00  0.00    -0.016 A 
ATOM     33  C   UNL     1       3.412   3.644  29.525  0.00  0.00    +0.006 A 
ATOM     34  C   UNL     1       2.845   2.806  30.485  0.00  0.00    +0.000 A 
ATOM     35  C   UNL     1       1.684   2.096  30.200  0.00  0.00    +0.000 A 
ATOM     36  C   UNL     1       1.094   2.214  28.945  0.00  0.00    +0.000 A 
ATOM     37  C   UNL     1       1.663   3.046  27.976  0.00  0.00    +0.006 A 
ENDBRANCH  22  32
ENDBRANCH  17  22
ENDBRANCH   7  12
BRANCH   6  41
ATOM     38  N   UNL     1      10.292   4.696  23.430  0.00  0.00    -0.326 N 
ATOM     39  H   UNL     1       9.379   4.995  23.149  0.00  0.00    +0.145 HD
ATOM     40  H   UNL     1      10.881   5.356  23.923  0.00  0.00    +0.145 HD
ATOM     41  C   UNL     1      10.732   3.417  23.360  0.00  0.00    +0.241 C 
ATOM     42  O   UNL     1      11.850   3.123  23.761  0.00  0.00    -0.271 OA
ENDBRANCH   6  41
ENDBRANCH   1  10
BRANCH   2  43
ATOM     43  O   UNL     1      11.121  -2.635  23.365  0.00  0.00    -0.385 OA
ATOM     44  H   UNL     1      11.063  -3.190  24.165  0.00  0.00    +0.210 HD
ENDBRANCH   2  43
BRANCH   3  45
ATOM     45  O   UNL     1       8.080  -1.888  24.917  0.00  0.00    -0.386 OA
ATOM     46  H   UNL     1       7.372  -2.530  25.175  0.00  0.00    +0.210 HD
ENDBRANCH   3  45
BRANCH   4  47
ATOM     47  C   UNL     1       6.983  -3.645  22.322  0.00  0.00    +0.202 C 
BRANCH  47  48
ATOM     48  O   UNL     1       6.617  -4.162  23.594  0.00  0.00    -0.325 OA
BRANCH  48  49
ATOM     49  P   UNL     1       5.122  -3.827  24.299  0.00  0.00    +0.218 P 
ATOM     50  O   UNL     1       4.320  -4.174  22.806  0.00  0.00    -0.437 OA
ATOM     51  O   UNL     1       4.989  -2.283  24.114  0.00  0.00    -0.517 OA
BRANCH  49  52
ATOM     52  O   UNL     1       5.924  -3.480  25.792  0.00  0.00    -0.270 OA
BRANCH  52  53
ATOM     53  P   UNL     1       4.989  -2.850  27.037  0.00  0.00    +0.218 P 
ATOM     54  O   UNL     1       3.559  -3.135  26.614  0.00  0.00    -0.517 OA
ATOM     55  O   UNL     1       5.421  -1.408  27.206  0.00  0.00    -0.437 OA
BRANCH  53  56
ATOM     56  O   UNL     1       5.267  -3.717  28.418  0.00  0.00    -0.325 OA
BRANCH  56  57
ATOM     57  C   UNL     1       4.249  -4.495  29.152  0.00  0.00    +0.198 C 
BRANCH  57  58
ATOM     58  C   UNL     1       4.059  -6.090  28.886  0.00  0.00    +0.133 C 
ATOM     59  C   UNL     1       2.665  -6.687  29.444  0.00  0.00    -0.093 C 
ATOM     60  O   UNL     1       2.867  -7.952  29.872  0.00  0.00    -0.852 OA
ATOM     61  C   UNL     1       1.705  -6.736  28.181  0.00  0.00    -0.075 C 
ATOM     62  O   UNL     1       0.696  -5.855  28.291  0.00  0.00    -0.851 OA
ATOM     63  C   UNL     1       2.666  -6.301  27.023  0.00  0.00    +0.208 C 
ATOM     64  O   UNL     1       4.045  -6.428  27.463  0.00  0.00    -0.353 OA
BRANCH  63  65
ATOM     65  N   UNL     1       2.476  -7.035  25.767  0.00  0.00    -0.289 N 
ATOM     66  C   UNL     1       1.898  -6.537  24.624  0.00  0.00    +0.167 A 
ATOM     67  N   UNL     1       1.431  -5.299  24.397  0.00  0.00    -0.216 NA
ATOM     68  C   UNL     1       0.913  -5.171  23.174  0.00  0.00    +0.225 A 
ATOM     69  N   UNL     1       0.811  -6.102  22.197  0.00  0.00    -0.219 NA
ATOM     70  C   UNL     1       1.309  -7.335  22.462  0.00  0.00    +0.147 A 
ATOM     71  N   UNL     1       1.160  -8.300  21.451  0.00  0.00    -0.341 N 
ATOM     72  H   UNL     1       1.165  -9.221  21.879  0.00  0.00    +0.144 HD
ATOM     73  H   UNL     1       0.353  -8.049  20.899  0.00  0.00    +0.144 HD
ATOM     74  C   UNL     1       1.874  -7.593  23.726  0.00  0.00    +0.147 A 
ATOM     75  N   UNL     1       2.395  -8.740  24.295  0.00  0.00    -0.231 NA
ATOM     76  C   UNL     1       2.737  -8.366  25.519  0.00  0.00    +0.203 A 
ENDBRANCH  63  65
ENDBRANCH  57  58
ENDBRANCH  56  57
ENDBRANCH  53  56
ENDBRANCH  52  53
ENDBRANCH  49  52
ENDBRANCH  48  49
ENDBRANCH  47  48
ENDBRANCH   4  47
TORSDOF 17
ENDMDL
MODEL 4
REMARK VINA RESULT:      -6.1      2.784      5.266
REMARK  Name = 
REMARK  17 active torsions:
REMARK  status: ('A' for Active; 'I' for Inactive)
REMARK    1  A    between atoms: C_2  and  C_4
REMARK    2  A    between atoms: N_6  and  C_38
REMARK    3  A    between atoms: C_9  and  N_11
REMARK    4  A    between atoms: N_18  and  C_19
REMARK    5  A    between atoms: C_19  and  C_21
REMARK    6  A    between atoms: C_19  and  C_30
REMARK    7  A    between atoms: C_41  and  C_43
REMARK    8  A    between atoms: C_43  and  O_44
REMARK    9  A    between atoms: O_44  and  P_45
REMARK   10  A    between atoms: P_45  and  O_48
REMARK   11  A    between atoms: O_48  and  P_49
REMARK   12  A    between atoms: P_49  and  O_52
REMARK   13  A    between atoms: O_52  and  C_53
REMARK   14  A    between atoms: C_53  and  C_54
REMARK   15  A    between atoms: C_57  and  N_65
REMARK   16  A    between atoms: C_75  and  O_77
REMARK   17  A    between atoms: C_78  and  O_80
REMARK                            x       y       z     vdW  Elec       q    Type
REMARK                         _______ _______ _______ _____ _____    ______ ____
ROOT
ATOM      1  C   UNL     1       9.214  -0.549  21.985  0.00  0.00    +0.241 C 
ATOM      2  C   UNL     1      10.391  -0.899  22.911  0.00  0.00    +0.193 C 
ATOM      3  C   UNL     1       9.717  -1.459  24.168  0.00  0.00    +0.178 C 
ATOM      4  C   UNL     1       8.216  -1.416  23.851  0.00  0.00    +0.178 C 
ATOM      5  O   UNL     1       8.098  -1.323  22.420  0.00  0.00    -0.348 OA
ENDROOT
BRANCH   1  10
ATOM      6  C   UNL     1       9.347   3.110  22.781  0.00  0.00    +0.056 C 
ATOM      7  C   UNL     1       8.004   3.627  22.288  0.00  0.00    +0.167 C 
ATOM      8  C   UNL     1       7.369   2.670  21.294  0.00  0.00    +0.020 C 
ATOM      9  C   UNL     1       7.804   1.409  21.161  0.00  0.00    +0.075 C 
ATOM     10  N   UNL     1       8.883   0.910  21.903  0.00  0.00    -0.284 N 
ATOM     11  C   UNL     1       9.705   1.828  22.555  0.00  0.00    +0.088 C 
BRANCH   7  12
ATOM     12  N   UNL     1       7.067   3.810  23.416  0.00  0.00    -0.257 N 
ATOM     13  N   UNL     1       6.960   2.903  24.430  0.00  0.00    -0.150 NA
ATOM     14  C   UNL     1       6.079   3.474  25.243  0.00  0.00    +0.185 A 
ATOM     15  N   UNL     1       5.555   2.850  26.373  0.00  0.00    -0.216 NA
ATOM     16  C   UNL     1       4.520   3.467  26.865  0.00  0.00    +0.203 A 
ATOM     17  N   UNL     1       3.964   4.682  26.460  0.00  0.00    -0.309 N 
ATOM     18  C   UNL     1       4.678   5.472  25.563  0.00  0.00    +0.101 A 
ATOM     19  S   UNL     1       4.540   7.108  25.251  0.00  0.00    -0.032 S 
ATOM     20  C   UNL     1       5.648   4.729  24.824  0.00  0.00    +0.069 A 
ATOM     21  C   UNL     1       6.257   4.910  23.609  0.00  0.00    +0.122 A 
BRANCH  17  22
ATOM     22  C   UNL     1       2.691   5.148  27.060  0.00  0.00    +0.205 C 
BRANCH  22  23
ATOM     23  C   UNL     1       1.564   5.545  26.030  0.00  0.00    +0.243 C 
ATOM     24  N   UNL     1       1.316   4.774  24.885  0.00  0.00    -0.299 N 
ATOM     25  C   UNL     1       0.443   5.354  23.853  0.00  0.00    +0.108 C 
ATOM     26  C   UNL     1       1.267   5.932  22.703  0.00  0.00    +0.019 C 
ATOM     27  C   UNL     1       1.586   4.931  21.592  0.00  0.00    +0.002 C 
ATOM     28  C   UNL     1       1.889   3.498  22.029  0.00  0.00    +0.002 C 
ATOM     29  C   UNL     1       2.701   3.370  23.319  0.00  0.00    +0.019 C 
ATOM     30  C   UNL     1       1.847   3.445  24.591  0.00  0.00    +0.108 C 
ATOM     31  O   UNL     1       0.926   6.595  26.189  0.00  0.00    -0.273 OA
ENDBRANCH  22  23
BRANCH  22  32
ATOM     32  C   UNL     1       2.220   4.207  28.181  0.00  0.00    -0.016 A 
ATOM     33  C   UNL     1       1.188   3.263  27.996  0.00  0.00    +0.006 A 
ATOM     34  C   UNL     1       0.810   2.403  29.026  0.00  0.00    +0.000 A 
ATOM     35  C   UNL     1       1.456   2.454  30.257  0.00  0.00    +0.000 A 
ATOM     36  C   UNL     1       2.476   3.378  30.463  0.00  0.00    +0.000 A 
ATOM     37  C   UNL     1       2.853   4.250  29.436  0.00  0.00    +0.006 A 
ENDBRANCH  22  32
ENDBRANCH  17  22
ENDBRANCH   7  12
BRANCH   6  41
ATOM     38  N   UNL     1      11.547   4.035  23.149  0.00  0.00    -0.326 N 
ATOM     39  H   UNL     1      11.935   3.456  22.431  0.00  0.00    +0.145 HD
ATOM     40  H   UNL     1      12.144   4.733  23.576  0.00  0.00    +0.145 HD
ATOM     41  C   UNL     1      10.231   4.078  23.466  0.00  0.00    +0.241 C 
ATOM     42  O   UNL     1       9.826   4.843  24.332  0.00  0.00    -0.271 OA
ENDBRANCH   6  41
ENDBRANCH   1  10
BRANCH   2  43
ATOM     43  O   UNL     1      11.233  -1.895  22.281  0.00  0.00    -0.385 OA
ATOM     44  H   UNL     1      11.911  -2.148  22.934  0.00  0.00    +0.210 HD
ENDBRANCH   2  43
BRANCH   3  45
ATOM     45  O   UNL     1      10.015  -0.657  25.314  0.00  0.00    -0.386 OA
ATOM     46  H   UNL     1       9.323  -0.911  25.974  0.00  0.00    +0.210 HD
ENDBRANCH   3  45
BRANCH   4  47
ATOM     47  C   UNL     1       7.482  -2.615  24.437  0.00  0.00    +0.202 C 
BRANCH  47  48
ATOM     48  O   UNL     1       6.815  -2.193  25.617  0.00  0.00    -0.325 OA
BRANCH  48  49
ATOM     49  P   UNL     1       5.179  -1.782  25.621  0.00  0.00    +0.218 P 
ATOM     50  O   UNL     1       5.049  -2.209  23.951  0.00  0.00    -0.437 OA
ATOM     51  O   UNL     1       5.204  -0.251  25.319  0.00  0.00    -0.517 OA
BRANCH  49  52
ATOM     52  O   UNL     1       5.309  -1.354  27.293  0.00  0.00    -0.270 OA
BRANCH  52  53
ATOM     53  P   UNL     1       3.889  -1.317  28.188  0.00  0.00    +0.218 P 
ATOM     54  O   UNL     1       2.964  -2.280  27.465  0.00  0.00    -0.517 OA
ATOM     55  O   UNL     1       3.484   0.140  28.285  0.00  0.00    -0.437 OA
BRANCH  53  56
ATOM     56  O   UNL     1       4.174  -1.953  29.688  0.00  0.00    -0.325 OA
BRANCH  56  57
ATOM     57  C   UNL     1       3.799  -3.315  30.119  0.00  0.00    +0.198 C 
BRANCH  57  58
ATOM     58  C   UNL     1       4.765  -4.589  29.811  0.00  0.00    +0.133 C 
ATOM     59  C   UNL     1       3.981  -5.997  29.705  0.00  0.00    -0.093 C 
ATOM     60  O   UNL     1       4.771  -6.979  30.190  0.00  0.00    -0.852 OA
ATOM     61  C   UNL     1       3.783  -6.239  28.148  0.00  0.00    -0.075 C 
ATOM     62  O   UNL     1       2.489  -6.160  27.795  0.00  0.00    -0.851 OA
ATOM     63  C   UNL     1       4.576  -5.040  27.527  0.00  0.00    +0.208 C 
ATOM     64  O   UNL     1       5.462  -4.473  28.530  0.00  0.00    -0.353 OA
BRANCH  63  65
ATOM     65  N   UNL     1       5.342  -5.378  26.322  0.00  0.00    -0.289 N 
ATOM     66  C   UNL     1       4.851  -5.409  25.039  0.00  0.00    +0.167 A 
ATOM     67  N   UNL     1       3.613  -5.111  24.613  0.00  0.00    -0.216 NA
ATOM     68  C   UNL     1       3.480  -5.274  23.295  0.00  0.00    +0.225 A 
ATOM     69  N   UNL     1       4.404  -5.688  22.396  0.00  0.00    -0.219 NA
ATOM     70  C   UNL     1       5.645  -5.964  22.867  0.00  0.00    +0.147 A 
ATOM     71  N   UNL     1       6.581  -6.429  21.926  0.00  0.00    -0.341 N 
ATOM     72  H   UNL     1       7.282  -6.979  22.412  0.00  0.00    +0.144 HD
ATOM     73  H   UNL     1       6.073  -6.879  21.180  0.00  0.00    +0.144 HD
ATOM     74  C   UNL     1       5.904  -5.837  24.246  0.00  0.00    +0.147 A 
ATOM     75  N   UNL     1       7.027  -6.099  25.008  0.00  0.00    -0.231 NA
ATOM     76  C   UNL     1       6.647  -5.818  26.246  0.00  0.00    +0.203 A 
ENDBRANCH  63  65
ENDBRANCH  57  58
ENDBRANCH  56  57
ENDBRANCH  53  56
ENDBRANCH  52  53
ENDBRANCH  49  52
ENDBRANCH  48  49
ENDBRANCH  47  48
ENDBRANCH   4  47
TORSDOF 17
ENDMDL
MODEL 5
REMARK VINA RESULT:      -6.0      1.792      2.487
REMARK  Name = 
REMARK  17 active torsions:
REMARK  status: ('A' for Active; 'I' for Inactive)
REMARK    1  A    between atoms: C_2  and  C_4
REMARK    2  A    between atoms: N_6  and  C_38
REMARK    3  A    between atoms: C_9  and  N_11
REMARK    4  A    between atoms: N_18  and  C_19
REMARK    5  A    between atoms: C_19  and  C_21
REMARK    6  A    between atoms: C_19  and  C_30
REMARK    7  A    between atoms: C_41  and  C_43
REMARK    8  A    between atoms: C_43  and  O_44
REMARK    9  A    between atoms: O_44  and  P_45
REMARK   10  A    between atoms: P_45  and  O_48
REMARK   11  A    between atoms: O_48  and  P_49
REMARK   12  A    between atoms: P_49  and  O_52
REMARK   13  A    between atoms: O_52  and  C_53
REMARK   14  A    between atoms: C_53  and  C_54
REMARK   15  A    between atoms: C_57  and  N_65
REMARK   16  A    between atoms: C_75  and  O_77
REMARK   17  A    between atoms: C_78  and  O_80
REMARK                            x       y       z     vdW  Elec       q    Type
REMARK                         _______ _______ _______ _____ _____    ______ ____
ROOT
ATOM      1  C   UNL     1       8.295  -4.077  23.781  0.00  0.00    +0.241 C 
ATOM      2  C   UNL     1       9.153  -4.391  25.018  0.00  0.00    +0.193 C 
ATOM      3  C   UNL     1       8.136  -4.477  26.160  0.00  0.00    +0.178 C 
ATOM      4  C   UNL     1       6.778  -4.238  25.485  0.00  0.00    +0.178 C 
ATOM      5  O   UNL     1       6.965  -4.494  24.081  0.00  0.00    -0.348 OA
ENDROOT
BRANCH   1  10
ATOM      6  C   UNL     1       9.252  -0.454  23.735  0.00  0.00    +0.056 C 
ATOM      7  C   UNL     1       8.130   0.196  22.941  0.00  0.00    +0.167 C 
ATOM      8  C   UNL     1       7.373  -0.824  22.106  0.00  0.00    +0.020 C 
ATOM      9  C   UNL     1       7.494  -2.139  22.331  0.00  0.00    +0.075 C 
ATOM     10  N   UNL     1       8.343  -2.653  23.320  0.00  0.00    -0.284 N 
ATOM     11  C   UNL     1       9.302  -1.797  23.863  0.00  0.00    +0.088 C 
BRANCH   7  12
ATOM     12  N   UNL     1       7.166   0.860  23.843  0.00  0.00    -0.257 N 
ATOM     13  N   UNL     1       5.990   0.275  24.212  0.00  0.00    -0.150 NA
ATOM     14  C   UNL     1       5.474   1.160  25.058  0.00  0.00    +0.185 A 
ATOM     15  N   UNL     1       4.200   1.050  25.608  0.00  0.00    -0.216 NA
ATOM     16  C   UNL     1       3.794   2.144  26.184  0.00  0.00    +0.203 A 
ATOM     17  N   UNL     1       4.502   3.329  26.386  0.00  0.00    -0.309 N 
ATOM     18  C   UNL     1       5.875   3.330  26.147  0.00  0.00    +0.101 A 
ATOM     19  S   UNL     1       7.046   4.382  26.710  0.00  0.00    -0.032 S 
ATOM     20  C   UNL     1       6.286   2.267  25.288  0.00  0.00    +0.069 A 
ATOM     21  C   UNL     1       7.357   2.084  24.451  0.00  0.00    +0.122 A 
BRANCH  17  22
ATOM     22  C   UNL     1       3.811   4.518  26.939  0.00  0.00    +0.205 C 
BRANCH  22  23
ATOM     23  C   UNL     1       3.417   5.622  25.884  0.00  0.00    +0.243 C 
ATOM     24  N   UNL     1       2.601   5.321  24.783  0.00  0.00    -0.299 N 
ATOM     25  C   UNL     1       2.503   6.329  23.716  0.00  0.00    +0.108 C 
ATOM     26  C   UNL     1       3.409   5.968  22.538  0.00  0.00    +0.019 C 
ATOM     27  C   UNL     1       2.747   5.076  21.487  0.00  0.00    +0.002 C 
ATOM     28  C   UNL     1       1.796   3.998  22.005  0.00  0.00    +0.002 C 
ATOM     29  C   UNL     1       2.230   3.316  23.304  0.00  0.00    +0.019 C 
ATOM     30  C   UNL     1       1.837   4.095  24.566  0.00  0.00    +0.108 C 
ATOM     31  O   UNL     1       3.887   6.764  25.980  0.00  0.00    -0.273 OA
ENDBRANCH  22  23
BRANCH  22  32
ATOM     32  C   UNL     1       2.672   4.115  27.889  0.00  0.00    -0.016 A 
ATOM     33  C   UNL     1       1.592   3.305  27.478  0.00  0.00    +0.006 A 
ATOM     34  C   UNL     1       0.593   2.931  28.377  0.00  0.00    +0.000 A 
ATOM     35  C   UNL     1       0.652   3.344  29.704  0.00  0.00    +0.000 A 
ATOM     36  C   UNL     1       1.708   4.145  30.131  0.00  0.00    +0.000 A 
ATOM     37  C   UNL     1       2.707   4.530  29.232  0.00  0.00    +0.006 A 
ENDBRANCH  22  32
ENDBRANCH  17  22
ENDBRANCH   7  12
BRANCH   6  41
ATOM     38  N   UNL     1      10.470   0.378  25.646  0.00  0.00    -0.326 N 
ATOM     39  H   UNL     1      10.025  -0.288  26.247  0.00  0.00    +0.145 HD
ATOM     40  H   UNL     1      11.210   0.952  26.031  0.00  0.00    +0.145 HD
ATOM     41  C   UNL     1      10.279   0.443  24.306  0.00  0.00    +0.241 C 
ATOM     42  O   UNL     1      10.890   1.261  23.632  0.00  0.00    -0.271 OA
ENDBRANCH   6  41
ENDBRANCH   1  10
BRANCH   2  43
ATOM     43  O   UNL     1       9.839  -5.654  24.833  0.00  0.00    -0.385 OA
ATOM     44  H   UNL     1       9.848  -6.101  25.699  0.00  0.00    +0.210 HD
ENDBRANCH   2  43
BRANCH   3  45
ATOM     45  O   UNL     1       8.389  -3.478  27.152  0.00  0.00    -0.386 OA
ATOM     46  H   UNL     1       8.266  -3.953  28.011  0.00  0.00    +0.210 HD
ENDBRANCH   3  45
BRANCH   4  47
ATOM     47  C   UNL     1       5.681  -5.091  26.109  0.00  0.00    +0.202 C 
BRANCH  47  48
ATOM     48  O   UNL     1       4.602  -5.167  25.189  0.00  0.00    -0.325 OA
BRANCH  48  49
ATOM     49  P   UNL     1       3.712  -6.583  24.970  0.00  0.00    +0.218 P 
ATOM     50  O   UNL     1       5.025  -7.295  24.098  0.00  0.00    -0.437 OA
ATOM     51  O   UNL     1       2.897  -6.284  23.673  0.00  0.00    -0.517 OA
BRANCH  49  52
ATOM     52  O   UNL     1       2.398  -5.871  25.841  0.00  0.00    -0.270 OA
BRANCH  52  53
ATOM     53  P   UNL     1       1.964  -6.588  27.297  0.00  0.00    +0.218 P 
ATOM     54  O   UNL     1       3.287  -6.870  27.986  0.00  0.00    -0.517 OA
ATOM     55  O   UNL     1       1.068  -7.758  26.944  0.00  0.00    -0.437 OA
BRANCH  53  56
ATOM     56  O   UNL     1       1.158  -5.485  28.228  0.00  0.00    -0.325 OA
BRANCH  56  57
ATOM     57  C   UNL     1       1.731  -4.224  28.739  0.00  0.00    +0.198 C 
BRANCH  57  58
ATOM     58  C   UNL     1       2.819  -3.382  27.867  0.00  0.00    +0.133 C 
ATOM     59  C   UNL     1       2.159  -2.403  26.764  0.00  0.00    -0.093 C 
ATOM     60  O   UNL     1       2.966  -2.350  25.683  0.00  0.00    -0.852 OA
ATOM     61  C   UNL     1       2.143  -0.969  27.446  0.00  0.00    -0.075 C 
ATOM     62  O   UNL     1       0.891  -0.558  27.707  0.00  0.00    -0.851 OA
ATOM     63  C   UNL     1       2.904  -1.237  28.788  0.00  0.00    +0.208 C 
ATOM     64  O   UNL     1       3.634  -2.490  28.691  0.00  0.00    -0.353 OA
BRANCH  63  65
ATOM     65  N   UNL     1       3.815  -0.162  29.195  0.00  0.00    -0.289 N 
ATOM     66  C   UNL     1       5.109   0.002  28.764  0.00  0.00    +0.167 A 
ATOM     67  N   UNL     1       5.792  -0.737  27.874  0.00  0.00    -0.216 NA
ATOM     68  C   UNL     1       7.043  -0.302  27.710  0.00  0.00    +0.225 A 
ATOM     69  N   UNL     1       7.661   0.741  28.312  0.00  0.00    -0.219 NA
ATOM     70  C   UNL     1       6.931   1.470  29.191  0.00  0.00    +0.147 A 
ATOM     71  N   UNL     1       7.601   2.526  29.835  0.00  0.00    -0.341 N 
ATOM     72  H   UNL     1       7.138   2.711  30.719  0.00  0.00    +0.144 HD
ATOM     73  H   UNL     1       8.583   2.298  29.865  0.00  0.00    +0.144 HD
ATOM     74  C   UNL     1       5.598   1.101  29.454  0.00  0.00    +0.147 A 
ATOM     75  N   UNL     1       4.648   1.603  30.324  0.00  0.00    -0.231 NA
ATOM     76  C   UNL     1       3.598   0.816  30.144  0.00  0.00    +0.203 A 
ENDBRANCH  63  65
ENDBRANCH  57  58
ENDBRANCH  56  57
ENDBRANCH  53  56
ENDBRANCH  52  53
ENDBRANCH  49  52
ENDBRANCH  48  49
ENDBRANCH  47  48
ENDBRANCH   4  47
TORSDOF 17
ENDMDL
MODEL 6
REMARK VINA RESULT:      -5.4      4.155      9.976
REMARK  Name = 
REMARK  17 active torsions:
REMARK  status: ('A' for Active; 'I' for Inactive)
REMARK    1  A    between atoms: C_2  and  C_4
REMARK    2  A    between atoms: N_6  and  C_38
REMARK    3  A    between atoms: C_9  and  N_11
REMARK    4  A    between atoms: N_18  and  C_19
REMARK    5  A    between atoms: C_19  and  C_21
REMARK    6  A    between atoms: C_19  and  C_30
REMARK    7  A    between atoms: C_41  and  C_43
REMARK    8  A    between atoms: C_43  and  O_44
REMARK    9  A    between atoms: O_44  and  P_45
REMARK   10  A    between atoms: P_45  and  O_48
REMARK   11  A    between atoms: O_48  and  P_49
REMARK   12  A    between atoms: P_49  and  O_52
REMARK   13  A    between atoms: O_52  and  C_53
REMARK   14  A    between atoms: C_53  and  C_54
REMARK   15  A    between atoms: C_57  and  N_65
REMARK   16  A    between atoms: C_75  and  O_77
REMARK   17  A    between atoms: C_78  and  O_80
REMARK                            x       y       z     vdW  Elec       q    Type
REMARK                         _______ _______ _______ _____ _____    ______ ____
ROOT
ATOM      1  C   UNL     1       5.537   3.720  24.230  0.00  0.00    +0.241 C 
ATOM      2  C   UNL     1       4.557   4.313  23.205  0.00  0.00    +0.193 C 
ATOM      3  C   UNL     1       4.938   5.795  23.144  0.00  0.00    +0.178 C 
ATOM      4  C   UNL     1       6.123   5.927  24.111  0.00  0.00    +0.178 C 
ATOM      5  O   UNL     1       6.655   4.603  24.295  0.00  0.00    -0.348 OA
ENDROOT
BRANCH   1  10
ATOM      6  C   UNL     1       5.279   2.361  27.713  0.00  0.00    +0.056 C 
ATOM      7  C   UNL     1       3.784   2.384  27.990  0.00  0.00    +0.167 C 
ATOM      8  C   UNL     1       3.055   3.327  27.046  0.00  0.00    +0.020 C 
ATOM      9  C   UNL     1       3.639   3.787  25.931  0.00  0.00    +0.075 C 
ATOM     10  N   UNL     1       4.956   3.455  25.585  0.00  0.00    -0.284 N 
ATOM     11  C   UNL     1       5.766   2.893  26.572  0.00  0.00    +0.088 C 
BRANCH   7  12
ATOM     12  N   UNL     1       3.201   1.035  27.834  0.00  0.00    -0.257 N 
ATOM     13  N   UNL     1       1.955   0.721  28.292  0.00  0.00    -0.150 NA
ATOM     14  C   UNL     1       1.804  -0.538  27.896  0.00  0.00    +0.185 A 
ATOM     15  N   UNL     1       0.715  -1.332  28.247  0.00  0.00    -0.216 NA
ATOM     16  C   UNL     1       0.896  -2.594  27.987  0.00  0.00    +0.203 A 
ATOM     17  N   UNL     1       1.973  -3.196  27.334  0.00  0.00    -0.309 N 
ATOM     18  C   UNL     1       2.895  -2.380  26.683  0.00  0.00    +0.101 A 
ATOM     19  S   UNL     1       3.978  -2.766  25.470  0.00  0.00    -0.032 S 
ATOM     20  C   UNL     1       2.877  -1.035  27.162  0.00  0.00    +0.069 A 
ATOM     21  C   UNL     1       3.799  -0.021  27.177  0.00  0.00    +0.122 A 
BRANCH  17  22
ATOM     22  C   UNL     1       2.060  -4.674  27.262  0.00  0.00    +0.205 C 
BRANCH  22  23
ATOM     23  C   UNL     1       1.511  -5.320  25.933  0.00  0.00    +0.243 C 
ATOM     24  N   UNL     1       0.883  -6.575  25.936  0.00  0.00    -0.299 N 
ATOM     25  C   UNL     1       0.644  -7.217  24.634  0.00  0.00    +0.108 C 
ATOM     26  C   UNL     1       1.704  -8.279  24.347  0.00  0.00    +0.019 C 
ATOM     27  C   UNL     1       1.358  -9.672  24.876  0.00  0.00    +0.002 C 
ATOM     28  C   UNL     1       0.643  -9.732  26.225  0.00  0.00    +0.002 C 
ATOM     29  C   UNL     1       1.112  -8.706  27.258  0.00  0.00    +0.019 C 
ATOM     30  C   UNL     1       0.444  -7.333  27.105  0.00  0.00    +0.108 C 
ATOM     31  O   UNL     1       1.693  -4.751  24.848  0.00  0.00    -0.273 OA
ENDBRANCH  22  23
BRANCH  22  32
ATOM     32  C   UNL     1       3.452  -5.177  27.682  0.00  0.00    -0.016 A 
ATOM     33  C   UNL     1       4.145  -4.651  28.792  0.00  0.00    +0.006 A 
ATOM     34  C   UNL     1       5.391  -5.155  29.163  0.00  0.00    +0.000 A 
ATOM     35  C   UNL     1       5.968  -6.199  28.448  0.00  0.00    +0.000 A 
ATOM     36  C   UNL     1       5.303  -6.733  27.348  0.00  0.00    +0.000 A 
ATOM     37  C   UNL     1       4.057  -6.225  26.966  0.00  0.00    +0.006 A 
ENDBRANCH  22  32
ENDBRANCH  17  22
ENDBRANCH   7  12
BRANCH   6  41
ATOM     38  N   UNL     1       7.448   2.155  28.753  0.00  0.00    -0.326 N 
ATOM     39  H   UNL     1       7.829   2.859  28.150  0.00  0.00    +0.145 HD
ATOM     40  H   UNL     1       8.031   1.797  29.499  0.00  0.00    +0.145 HD
ATOM     41  C   UNL     1       6.148   1.775  28.756  0.00  0.00    +0.241 C 
ATOM     42  O   UNL     1       5.750   0.934  29.551  0.00  0.00    -0.271 OA
ENDBRANCH   6  41
ENDBRANCH   1  10
BRANCH   2  43
ATOM     43  O   UNL     1       4.742   3.672  21.919  0.00  0.00    -0.385 OA
ATOM     44  H   UNL     1       3.867   3.634  21.491  0.00  0.00    +0.210 HD
ENDBRANCH   2  43
BRANCH   3  45
ATOM     45  O   UNL     1       3.851   6.626  23.561  0.00  0.00    -0.386 OA
ATOM     46  H   UNL     1       3.209   5.995  23.973  0.00  0.00    +0.210 HD
ENDBRANCH   3  45
BRANCH   4  47
ATOM     47  C   UNL     1       7.157   6.923  23.602  0.00  0.00    +0.202 C 
BRANCH  47  48
ATOM     48  O   UNL     1       8.196   7.014  24.566  0.00  0.00    -0.325 OA
BRANCH  48  49
ATOM     49  P   UNL     1       8.495   5.779  25.676  0.00  0.00    +0.218 P 
ATOM     50  O   UNL     1       7.022   6.143  26.506  0.00  0.00    -0.437 OA
ATOM     51  O   UNL     1       9.379   6.485  26.751  0.00  0.00    -0.517 OA
BRANCH  49  52
ATOM     52  O   UNL     1       9.969   5.415  24.846  0.00  0.00    -0.270 OA
BRANCH  52  53
ATOM     53  P   UNL     1       9.958   4.097  23.806  0.00  0.00    +0.218 P 
ATOM     54  O   UNL     1      11.402   3.961  23.356  0.00  0.00    -0.517 OA
ATOM     55  O   UNL     1       8.898   4.388  22.762  0.00  0.00    -0.437 OA
BRANCH  53  56
ATOM     56  O   UNL     1       9.586   2.731  24.661  0.00  0.00    -0.325 OA
BRANCH  56  57
ATOM     57  C   UNL     1       9.781   1.348  24.180  0.00  0.00    +0.198 C 
BRANCH  57  58
ATOM     58  C   UNL     1       9.670   0.082  25.198  0.00  0.00    +0.133 C 
ATOM     59  C   UNL     1       8.332   0.085  26.104  0.00  0.00    -0.093 C 
ATOM     60  O   UNL     1       8.619  -0.441  27.314  0.00  0.00    -0.852 OA
ATOM     61  C   UNL     1       7.331  -0.897  25.359  0.00  0.00    -0.075 C 
ATOM     62  O   UNL     1       6.280  -0.236  24.845  0.00  0.00    -0.851 OA
ATOM     63  C   UNL     1       8.223  -1.457  24.200  0.00  0.00    +0.208 C 
ATOM     64  O   UNL     1       9.623  -1.202  24.499  0.00  0.00    -0.353 OA
BRANCH  63  65
ATOM     65  N   UNL     1       8.028  -2.883  23.918  0.00  0.00    -0.289 N 
ATOM     66  C   UNL     1       7.196  -3.407  22.959  0.00  0.00    +0.167 A 
ATOM     67  N   UNL     1       6.432  -2.752  22.070  0.00  0.00    -0.216 NA
ATOM     68  C   UNL     1       5.730  -3.583  21.297  0.00  0.00    +0.225 A 
ATOM     69  N   UNL     1       5.704  -4.936  21.316  0.00  0.00    -0.219 NA
ATOM     70  C   UNL     1       6.502  -5.558  22.219  0.00  0.00    +0.147 A 
ATOM     71  N   UNL     1       6.434  -6.962  22.250  0.00  0.00    -0.341 N 
ATOM     72  H   UNL     1       6.709  -7.279  23.175  0.00  0.00    +0.144 HD
ATOM     73  H   UNL     1       5.521  -7.236  21.919  0.00  0.00    +0.144 HD
ATOM     74  C   UNL     1       7.285  -4.784  23.097  0.00  0.00    +0.147 A 
ATOM     75  N   UNL     1       8.129  -5.125  24.137  0.00  0.00    -0.231 NA
ATOM     76  C   UNL     1       8.548  -3.960  24.607  0.00  0.00    +0.203 A 
ENDBRANCH  63  65
ENDBRANCH  57  58
ENDBRANCH  56  57
ENDBRANCH  53  56
ENDBRANCH  52  53
ENDBRANCH  49  52
ENDBRANCH  48  49
ENDBRANCH  47  48
ENDBRANCH   4  47
TORSDOF 17
ENDMDL
MODEL 7
REMARK VINA RESULT:      -4.6      4.409     10.157
REMARK  Name = 
REMARK  17 active torsions:
REMARK  status: ('A' for Active; 'I' for Inactive)
REMARK    1  A    between atoms: C_2  and  C_4
REMARK    2  A    between atoms: N_6  and  C_38
REMARK    3  A    between atoms: C_9  and  N_11
REMARK    4  A    between atoms: N_18  and  C_19
REMARK    5  A    between atoms: C_19  and  C_21
REMARK    6  A    between atoms: C_19  and  C_30
REMARK    7  A    between atoms: C_41  and  C_43
REMARK    8  A    between atoms: C_43  and  O_44
REMARK    9  A    between atoms: O_44  and  P_45
REMARK   10  A    between atoms: P_45  and  O_48
REMARK   11  A    between atoms: O_48  and  P_49
REMARK   12  A    between atoms: P_49  and  O_52
REMARK   13  A    between atoms: O_52  and  C_53
REMARK   14  A    between atoms: C_53  and  C_54
REMARK   15  A    between atoms: C_57  and  N_65
REMARK   16  A    between atoms: C_75  and  O_77
REMARK   17  A    between atoms: C_78  and  O_80
REMARK                            x       y       z     vdW  Elec       q    Type
REMARK                         _______ _______ _______ _____ _____    ______ ____
ROOT
ATOM      1  C   UNL     1       6.118   2.230  24.509  0.00  0.00    +0.241 C 
ATOM      2  C   UNL     1       5.451   2.148  23.126  0.00  0.00    +0.193 C 
ATOM      3  C   UNL     1       5.667   3.542  22.528  0.00  0.00    +0.178 C 
ATOM      4  C   UNL     1       6.467   4.299  23.598  0.00  0.00    +0.178 C 
ATOM      5  O   UNL     1       7.055   3.304  24.454  0.00  0.00    -0.348 OA
ENDROOT
BRANCH   1  10
ATOM      6  C   UNL     1       4.862   2.044  28.034  0.00  0.00    +0.056 C 
ATOM      7  C   UNL     1       3.350   2.045  27.869  0.00  0.00    +0.167 C 
ATOM      8  C   UNL     1       2.937   2.580  26.508  0.00  0.00    +0.020 C 
ATOM      9  C   UNL     1       3.820   2.700  25.508  0.00  0.00    +0.075 C 
ATOM     10  N   UNL     1       5.174   2.372  25.662  0.00  0.00    -0.284 N 
ATOM     11  C   UNL     1       5.661   2.217  26.960  0.00  0.00    +0.088 C 
BRANCH   7  12
ATOM     12  N   UNL     1       2.807   0.679  28.013  0.00  0.00    -0.257 N 
ATOM     13  N   UNL     1       1.865   0.363  28.949  0.00  0.00    -0.150 NA
ATOM     14  C   UNL     1       1.615  -0.917  28.694  0.00  0.00    +0.185 A 
ATOM     15  N   UNL     1       0.794  -1.715  29.486  0.00  0.00    -0.216 NA
ATOM     16  C   UNL     1       0.902  -2.984  29.220  0.00  0.00    +0.203 A 
ATOM     17  N   UNL     1       1.644  -3.596  28.208  0.00  0.00    -0.309 N 
ATOM     18  C   UNL     1       2.191  -2.793  27.209  0.00  0.00    +0.101 A 
ATOM     19  S   UNL     1       2.704  -3.215  25.676  0.00  0.00    -0.032 S 
ATOM     20  C   UNL     1       2.317  -1.427  27.606  0.00  0.00    +0.069 A 
ATOM     21  C   UNL     1       3.127  -0.395  27.208  0.00  0.00    +0.122 A 
BRANCH  17  22
ATOM     22  C   UNL     1       1.751  -5.073  28.161  0.00  0.00    +0.205 C 
BRANCH  22  23
ATOM     23  C   UNL     1       1.187  -5.750  26.853  0.00  0.00    +0.243 C 
ATOM     24  N   UNL     1       0.708  -7.069  26.862  0.00  0.00    -0.299 N 
ATOM     25  C   UNL     1       0.453  -7.706  25.561  0.00  0.00    +0.108 C 
ATOM     26  C   UNL     1       1.605  -8.633  25.172  0.00  0.00    +0.019 C 
ATOM     27  C   UNL     1       1.459 -10.067  25.682  0.00  0.00    +0.002 C 
ATOM     28  C   UNL     1       0.852 -10.239  27.074  0.00  0.00    +0.002 C 
ATOM     29  C   UNL     1       1.273  -9.186  28.102  0.00  0.00    +0.019 C 
ATOM     30  C   UNL     1       0.443  -7.898  28.035  0.00  0.00    +0.108 C 
ATOM     31  O   UNL     1       1.226  -5.140  25.776  0.00  0.00    -0.273 OA
ENDBRANCH  22  23
BRANCH  22  32
ATOM     32  C   UNL     1       3.157  -5.549  28.563  0.00  0.00    -0.016 A 
ATOM     33  C   UNL     1       3.846  -6.560  27.859  0.00  0.00    +0.006 A 
ATOM     34  C   UNL     1       5.134  -6.942  28.232  0.00  0.00    +0.000 A 
ATOM     35  C   UNL     1       5.770  -6.320  29.302  0.00  0.00    +0.000 A 
ATOM     36  C   UNL     1       5.109  -5.321  30.011  0.00  0.00    +0.000 A 
ATOM     37  C   UNL     1       3.813  -4.941  29.647  0.00  0.00    +0.006 A 
ENDBRANCH  22  32
ENDBRANCH  17  22
ENDBRANCH   7  12
BRANCH   6  41
ATOM     38  N   UNL     1       6.684   1.508  29.525  0.00  0.00    -0.326 N 
ATOM     39  H   UNL     1       7.315   1.408  28.754  0.00  0.00    +0.145 HD
ATOM     40  H   UNL     1       7.061   1.454  30.463  0.00  0.00    +0.145 HD
ATOM     41  C   UNL     1       5.389   1.890  29.407  0.00  0.00    +0.241 C 
ATOM     42  O   UNL     1       4.690   2.028  30.402  0.00  0.00    -0.271 OA
ENDBRANCH   6  41
ENDBRANCH   1  10
BRANCH   2  43
ATOM     43  O   UNL     1       6.100   1.129  22.326  0.00  0.00    -0.385 OA
ATOM     44  H   UNL     1       5.825   0.267  22.688  0.00  0.00    +0.210 HD
ENDBRANCH   2  43
BRANCH   3  45
ATOM     45  O   UNL     1       4.420   4.194  22.274  0.00  0.00    -0.386 OA
ATOM     46  H   UNL     1       3.806   3.457  22.030  0.00  0.00    +0.210 HD
ENDBRANCH   3  45
BRANCH   4  47
ATOM     47  C   UNL     1       7.493   5.237  22.975  0.00  0.00    +0.202 C 
BRANCH  47  48
ATOM     48  O   UNL     1       8.018   6.063  24.004  0.00  0.00    -0.325 OA
BRANCH  48  49
ATOM     49  P   UNL     1       9.443   5.675  24.821  0.00  0.00    +0.218 P 
ATOM     50  O   UNL     1       8.541   5.281  26.243  0.00  0.00    -0.437 OA
ATOM     51  O   UNL     1       9.905   7.054  25.388  0.00  0.00    -0.517 OA
BRANCH  49  52
ATOM     52  O   UNL     1      10.345   6.070  23.398  0.00  0.00    -0.270 OA
BRANCH  52  53
ATOM     53  P   UNL     1      11.953   5.586  23.350  0.00  0.00    +0.218 P 
ATOM     54  O   UNL     1      12.415   5.677  24.794  0.00  0.00    -0.517 OA
ATOM     55  O   UNL     1      12.630   6.463  22.316  0.00  0.00    -0.437 OA
BRANCH  53  56
ATOM     56  O   UNL     1      12.029   3.992  22.916  0.00  0.00    -0.325 OA
BRANCH  56  57
ATOM     57  C   UNL     1      11.459   2.872  23.692  0.00  0.00    +0.198 C 
BRANCH  57  58
ATOM     58  C   UNL     1       9.956   2.322  23.393  0.00  0.00    +0.133 C 
ATOM     59  C   UNL     1       9.851   1.377  22.088  0.00  0.00    -0.093 C 
ATOM     60  O   UNL     1       8.656   1.577  21.494  0.00  0.00    -0.852 OA
ATOM     61  C   UNL     1       9.886  -0.107  22.652  0.00  0.00    -0.075 C 
ATOM     62  O   UNL     1      11.015  -0.744  22.302  0.00  0.00    -0.851 OA
ATOM     63  C   UNL     1       9.869   0.132  24.200  0.00  0.00    +0.208 C 
ATOM     64  O   UNL     1       9.433   1.490  24.477  0.00  0.00    -0.353 OA
BRANCH  63  65
ATOM     65  N   UNL     1       9.042  -0.818  24.952  0.00  0.00    -0.289 N 
ATOM     66  C   UNL     1       8.376  -1.898  24.426  0.00  0.00    +0.167 A 
ATOM     67  N   UNL     1       8.366  -2.333  23.155  0.00  0.00    -0.216 NA
ATOM     68  C   UNL     1       7.588  -3.405  22.994  0.00  0.00    +0.225 A 
ATOM     69  N   UNL     1       6.848  -4.060  23.920  0.00  0.00    -0.219 NA
ATOM     70  C   UNL     1       6.899  -3.597  25.193  0.00  0.00    +0.147 A 
ATOM     71  N   UNL     1       6.095  -4.265  26.133  0.00  0.00    -0.341 N 
ATOM     72  H   UNL     1       5.882  -3.624  26.891  0.00  0.00    +0.144 HD
ATOM     73  H   UNL     1       5.316  -4.675  25.640  0.00  0.00    +0.144 HD
ATOM     74  C   UNL     1       7.681  -2.462  25.484  0.00  0.00    +0.147 A 
ATOM     75  N   UNL     1       7.877  -1.742  26.648  0.00  0.00    -0.231 NA
ATOM     76  C   UNL     1       8.691  -0.762  26.286  0.00  0.00    +0.203 A 
ENDBRANCH  63  65
ENDBRANCH  57  58
ENDBRANCH  56  57
ENDBRANCH  53  56
ENDBRANCH  52  53
ENDBRANCH  49  52
ENDBRANCH  48  49
ENDBRANCH  47  48
ENDBRANCH   4  47
TORSDOF 17
ENDMDL
MODEL 8
REMARK VINA RESULT:      -4.1      2.485      4.649
REMARK  Name = 
REMARK  17 active torsions:
REMARK  status: ('A' for Active; 'I' for Inactive)
REMARK    1  A    between atoms: C_2  and  C_4
REMARK    2  A    between atoms: N_6  and  C_38
REMARK    3  A    between atoms: C_9  and  N_11
REMARK    4  A    between atoms: N_18  and  C_19
REMARK    5  A    between atoms: C_19  and  C_21
REMARK    6  A    between atoms: C_19  and  C_30
REMARK    7  A    between atoms: C_41  and  C_43
REMARK    8  A    between atoms: C_43  and  O_44
REMARK    9  A    between atoms: O_44  and  P_45
REMARK   10  A    between atoms: P_45  and  O_48
REMARK   11  A    between atoms: O_48  and  P_49
REMARK   12  A    between atoms: P_49  and  O_52
REMARK   13  A    between atoms: O_52  and  C_53
REMARK   14  A    between atoms: C_53  and  C_54
REMARK   15  A    between atoms: C_57  and  N_65
REMARK   16  A    between atoms: C_75  and  O_77
REMARK   17  A    between atoms: C_78  and  O_80
REMARK                            x       y       z     vdW  Elec       q    Type
REMARK                         _______ _______ _______ _____ _____    ______ ____
ROOT
ATOM      1  C   UNL     1       8.339  -1.324  22.899  0.00  0.00    +0.241 C 
ATOM      2  C   UNL     1       8.654  -1.598  24.379  0.00  0.00    +0.193 C 
ATOM      3  C   UNL     1       7.281  -1.869  25.004  0.00  0.00    +0.178 C 
ATOM      4  C   UNL     1       6.297  -1.762  23.831  0.00  0.00    +0.178 C 
ATOM      5  O   UNL     1       7.070  -1.916  22.628  0.00  0.00    -0.348 OA
ENDROOT
BRANCH   1  10
ATOM      6  C   UNL     1       9.173   2.325  23.073  0.00  0.00    +0.056 C 
ATOM      7  C   UNL     1       8.104   2.972  22.206  0.00  0.00    +0.167 C 
ATOM      8  C   UNL     1       7.459   1.964  21.270  0.00  0.00    +0.020 C 
ATOM      9  C   UNL     1       7.605   0.645  21.456  0.00  0.00    +0.075 C 
ATOM     10  N   UNL     1       8.379   0.118  22.498  0.00  0.00    -0.284 N 
ATOM     11  C   UNL     1       9.257   0.980  23.155  0.00  0.00    +0.088 C 
BRANCH   7  12
ATOM     12  N   UNL     1       7.043   3.570  23.042  0.00  0.00    -0.257 N 
ATOM     13  N   UNL     1       6.868   3.230  24.352  0.00  0.00    -0.150 NA
ATOM     14  C   UNL     1       5.879   4.030  24.734  0.00  0.00    +0.185 A 
ATOM     15  N   UNL     1       5.264   3.955  25.982  0.00  0.00    -0.216 NA
ATOM     16  C   UNL     1       4.155   4.633  26.048  0.00  0.00    +0.203 A 
ATOM     17  N   UNL     1       3.592   5.466  25.080  0.00  0.00    -0.309 N 
ATOM     18  C   UNL     1       4.363   5.813  23.973  0.00  0.00    +0.101 A 
ATOM     19  S   UNL     1       4.185   7.099  22.921  0.00  0.00    -0.032 S 
ATOM     20  C   UNL     1       5.440   4.904  23.744  0.00  0.00    +0.069 A 
ATOM     21  C   UNL     1       6.168   4.556  22.635  0.00  0.00    +0.122 A 
BRANCH  17  22
ATOM     22  C   UNL     1       2.242   6.039  25.294  0.00  0.00    +0.205 C 
BRANCH  22  23
ATOM     23  C   UNL     1       1.309   6.065  24.023  0.00  0.00    +0.243 C 
ATOM     24  N   UNL     1       1.194   4.950  23.179  0.00  0.00    -0.299 N 
ATOM     25  C   UNL     1       0.522   5.146  21.885  0.00  0.00    +0.108 C 
ATOM     26  C   UNL     1       1.542   5.296  20.757  0.00  0.00    +0.019 C 
ATOM     27  C   UNL     1       1.968   3.976  20.114  0.00  0.00    +0.002 C 
ATOM     28  C   UNL     1       2.119   2.777  21.050  0.00  0.00    +0.002 C 
ATOM     29  C   UNL     1       2.717   3.094  22.422  0.00  0.00    +0.019 C 
ATOM     30  C   UNL     1       1.685   3.599  23.438  0.00  0.00    +0.108 C 
ATOM     31  O   UNL     1       0.716   7.107  23.714  0.00  0.00    -0.273 OA
ENDBRANCH  22  23
BRANCH  22  32
ATOM     32  C   UNL     1       1.578   5.460  26.554  0.00  0.00    -0.016 A 
ATOM     33  C   UNL     1       1.068   4.145  26.606  0.00  0.00    +0.006 A 
ATOM     34  C   UNL     1       0.503   3.641  27.778  0.00  0.00    +0.000 A 
ATOM     35  C   UNL     1       0.443   4.428  28.924  0.00  0.00    +0.000 A 
ATOM     36  C   UNL     1       0.938   5.728  28.894  0.00  0.00    +0.000 A 
ATOM     37  C   UNL     1       1.498   6.241  27.720  0.00  0.00    +0.006 A 
ENDBRANCH  22  32
ENDBRANCH  17  22
ENDBRANCH   7  12
BRANCH   6  41
ATOM     38  N   UNL     1       9.650   4.456  24.103  0.00  0.00    -0.326 N 
ATOM     39  H   UNL     1       8.699   4.749  23.988  0.00  0.00    +0.145 HD
ATOM     40  H   UNL     1      10.276   5.055  24.626  0.00  0.00    +0.145 HD
ATOM     41  C   UNL     1      10.116   3.229  23.767  0.00  0.00    +0.241 C 
ATOM     42  O   UNL     1      11.284   2.931  23.975  0.00  0.00    -0.271 OA
ENDBRANCH   6  41
ENDBRANCH   1  10
BRANCH   2  43
ATOM     43  O   UNL     1       9.518  -2.755  24.492  0.00  0.00    -0.385 OA
ATOM     44  H   UNL     1      10.252  -2.504  25.082  0.00  0.00    +0.210 HD
ENDBRANCH   2  43
BRANCH   3  45
ATOM     45  O   UNL     1       6.974  -0.902  26.012  0.00  0.00    -0.386 OA
ATOM     46  H   UNL     1       7.482  -0.097  25.739  0.00  0.00    +0.210 HD
ENDBRANCH   3  45
BRANCH   4  47
ATOM     47  C   UNL     1       5.166  -2.774  23.951  0.00  0.00    +0.202 C 
BRANCH  47  48
ATOM     48  O   UNL     1       4.198  -2.251  24.850  0.00  0.00    -0.325 OA
BRANCH  48  49
ATOM     49  P   UNL     1       3.068  -3.239  25.621  0.00  0.00    +0.218 P 
ATOM     50  O   UNL     1       2.973  -4.253  24.223  0.00  0.00    -0.437 OA
ATOM     51  O   UNL     1       1.714  -2.529  25.308  0.00  0.00    -0.517 OA
BRANCH  49  52
ATOM     52  O   UNL     1       3.164  -2.225  27.020  0.00  0.00    -0.270 OA
BRANCH  52  53
ATOM     53  P   UNL     1       1.722  -1.851  27.795  0.00  0.00    +0.218 P 
ATOM     54  O   UNL     1       0.752  -1.555  26.665  0.00  0.00    -0.517 OA
ATOM     55  O   UNL     1       2.043  -0.746  28.782  0.00  0.00    -0.437 OA
BRANCH  53  56
ATOM     56  O   UNL     1       1.159  -3.195  28.576  0.00  0.00    -0.325 OA
BRANCH  56  57
ATOM     57  C   UNL     1       1.381  -4.588  28.137  0.00  0.00    +0.198 C 
BRANCH  57  58
ATOM     58  C   UNL     1       2.532  -5.512  28.827  0.00  0.00    +0.133 C 
ATOM     59  C   UNL     1       2.551  -7.038  28.299  0.00  0.00    -0.093 C 
ATOM     60  O   UNL     1       2.911  -7.851  29.314  0.00  0.00    -0.852 OA
ATOM     61  C   UNL     1       3.697  -7.077  27.199  0.00  0.00    -0.075 C 
ATOM     62  O   UNL     1       3.196  -7.274  25.969  0.00  0.00    -0.851 OA
ATOM     63  C   UNL     1       4.298  -5.634  27.303  0.00  0.00    +0.208 C 
ATOM     64  O   UNL     1       3.884  -5.025  28.555  0.00  0.00    -0.353 OA
BRANCH  63  65
ATOM     65  N   UNL     1       5.758  -5.575  27.180  0.00  0.00    -0.289 N 
ATOM     66  C   UNL     1       6.467  -5.546  26.003  0.00  0.00    +0.167 A 
ATOM     67  N   UNL     1       5.994  -5.527  24.746  0.00  0.00    -0.216 NA
ATOM     68  C   UNL     1       6.973  -5.524  23.839  0.00  0.00    +0.225 A 
ATOM     69  N   UNL     1       8.311  -5.540  24.039  0.00  0.00    -0.219 NA
ATOM     70  C   UNL     1       8.746  -5.543  25.323  0.00  0.00    +0.147 A 
ATOM     71  N   UNL     1      10.138  -5.599  25.512  0.00  0.00    -0.341 N 
ATOM     72  H   UNL     1      10.325  -6.008  26.421  0.00  0.00    +0.144 HD
ATOM     73  H   UNL     1      10.542  -6.052  24.707  0.00  0.00    +0.144 HD
ATOM     74  C   UNL     1       7.803  -5.556  26.370  0.00  0.00    +0.147 A 
ATOM     75  N   UNL     1       7.941  -5.620  27.744  0.00  0.00    -0.231 NA
ATOM     76  C   UNL     1       6.695  -5.637  28.192  0.00  0.00    +0.203 A 
ENDBRANCH  63  65
ENDBRANCH  57  58
ENDBRANCH  56  57
ENDBRANCH  53  56
ENDBRANCH  52  53
ENDBRANCH  49  52
ENDBRANCH  48  49
ENDBRANCH  47  48
ENDBRANCH   4  47
TORSDOF 17
ENDMDL
