MODEL 1
REMARK VINA RESULT:      -3.7      0.000      0.000
REMARK  Name = 
REMARK  6 active torsions:
REMARK  status: ('A' for Active; 'I' for Inactive)
REMARK    1  A    between atoms: C_1  and  C_2
REMARK    2  A    between atoms: C_2  and  C_3
REMARK    3  A    between atoms: C_3  and  CA_4
REMARK    4  A    between atoms: CA_4  and  N_6
REMARK    5  A    between atoms: CA_4  and  C_7
REMARK    6  A    between atoms: C_7  and  O_8
REMARK                            x       y       z     vdW  Elec       q    Type
REMARK                         _______ _______ _______ _____ _____    ______ ____
ROOT
ATOM      1  CA  UNL     1       9.125  -4.589  25.612  0.00  0.00    +0.161 C 
ENDROOT
BRANCH   1   2
ATOM      2  N   UNL     1      10.176  -5.621  25.354  0.00  0.00    -0.318 NA
ATOM      3  H1  UNL     1      10.058  -5.961  24.396  0.00  0.00    +0.119 HD
ATOM      4  H2  UNL     1      11.085  -5.143  25.342  0.00  0.00    +0.119 HD
ENDBRANCH   1   2
BRANCH   1   5
ATOM      5  C   UNL     1       7.876  -5.316  26.141  0.00  0.00    +0.322 C 
ATOM      6  OXT UNL     1       6.831  -5.463  25.529  0.00  0.00    -0.249 OA
BRANCH   5   7
ATOM      7  O   UNL     1       8.086  -5.798  27.396  0.00  0.00    -0.480 OA
ATOM      8  H   UNL     1       8.667  -6.592  27.287  0.00  0.00    +0.295 HD
ENDBRANCH   5   7
ENDBRANCH   1   5
BRANCH   1   9
ATOM      9  C   UNL     1       8.828  -3.848  24.302  0.00  0.00    +0.029 C 
BRANCH   9  11
ATOM     10  C   UNL     1       9.395  -1.909  22.789  0.00  0.00    +0.004 C 
ATOM     11  C   UNL     1       9.814  -2.713  24.010  0.00  0.00    -0.001 C 
ENDBRANCH   9  11
ENDBRANCH   1   9
TORSDOF 5
ENDMDL
MODEL 2
REMARK VINA RESULT:      -3.7      1.604      2.192
REMARK  Name = 
REMARK  6 active torsions:
REMARK  status: ('A' for Active; 'I' for Inactive)
REMARK    1  A    between atoms: C_1  and  C_2
REMARK    2  A    between atoms: C_2  and  C_3
REMARK    3  A    between atoms: C_3  and  CA_4
REMARK    4  A    between atoms: CA_4  and  N_6
REMARK    5  A    between atoms: CA_4  and  C_7
REMARK    6  A    between atoms: C_7  and  O_8
REMARK                            x       y       z     vdW  Elec       q    Type
REMARK                         _______ _______ _______ _____ _____    ______ ____
ROOT
ATOM      1  CA  UNL     1       9.142  -4.536  25.336  0.00  0.00    +0.161 C 
ENDROOT
BRANCH   1   2
ATOM      2  N   UNL     1       9.854  -5.842  25.196  0.00  0.00    -0.318 NA
ATOM      3  H1  UNL     1      10.295  -6.062  26.094  0.00  0.00    +0.119 HD
ATOM      4  H2  UNL     1       9.143  -6.574  25.079  0.00  0.00    +0.119 HD
ENDBRANCH   1   2
BRANCH   1   5
ATOM      5  C   UNL     1       8.160  -4.663  26.514  0.00  0.00    +0.322 C 
ATOM      6  OXT UNL     1       7.421  -3.779  26.918  0.00  0.00    -0.249 OA
BRANCH   5   7
ATOM      7  O   UNL     1       8.203  -5.911  27.053  0.00  0.00    -0.480 OA
ATOM      8  H   UNL     1       8.242  -5.781  28.033  0.00  0.00    +0.295 HD
ENDBRANCH   5   7
ENDBRANCH   1   5
BRANCH   1   9
ATOM      9  C   UNL     1       8.407  -4.229  24.026  0.00  0.00    +0.029 C 
BRANCH   9  11
ATOM     10  C   UNL     1       7.325  -5.728  22.308  0.00  0.00    +0.004 C 
ATOM     11  C   UNL     1       7.260  -5.199  23.732  0.00  0.00    -0.001 C 
ENDBRANCH   9  11
ENDBRANCH   1   9
TORSDOF 5
ENDMDL
MODEL 3
REMARK VINA RESULT:      -3.6      5.366      6.100
REMARK  Name = 
REMARK  6 active torsions:
REMARK  status: ('A' for Active; 'I' for Inactive)
REMARK    1  A    between atoms: C_1  and  C_2
REMARK    2  A    between atoms: C_2  and  C_3
REMARK    3  A    between atoms: C_3  and  CA_4
REMARK    4  A    between atoms: CA_4  and  N_6
REMARK    5  A    between atoms: CA_4  and  C_7
REMARK    6  A    between atoms: C_7  and  O_8
REMARK                            x       y       z     vdW  Elec       q    Type
REMARK                         _______ _______ _______ _____ _____    ______ ____
ROOT
ATOM      1  CA  UNL     1      10.096   0.806  22.315  0.00  0.00    +0.161 C 
ENDROOT
BRANCH   1   2
ATOM      2  N   UNL     1       9.548   1.850  21.397  0.00  0.00    -0.318 NA
ATOM      3  H1  UNL     1      10.081   2.711  21.541  0.00  0.00    +0.119 HD
ATOM      4  H2  UNL     1       9.777   1.570  20.435  0.00  0.00    +0.119 HD
ENDBRANCH   1   2
BRANCH   1   5
ATOM      5  C   UNL     1       9.353  -0.510  22.024  0.00  0.00    +0.322 C 
ATOM      6  OXT UNL     1       8.185  -0.738  22.293  0.00  0.00    -0.249 OA
BRANCH   5   7
ATOM      7  O   UNL     1      10.169  -1.404  21.402  0.00  0.00    -0.480 OA
ATOM      8  H   UNL     1      10.099  -1.208  20.435  0.00  0.00    +0.295 HD
ENDBRANCH   5   7
ENDBRANCH   1   5
BRANCH   1   9
ATOM      9  C   UNL     1       9.881   1.259  23.765  0.00  0.00    +0.029 C 
BRANCH   9  11
ATOM     10  C   UNL     1       9.378  -0.302  25.684  0.00  0.00    +0.004 C 
ATOM     11  C   UNL     1      10.463   0.289  24.796  0.00  0.00    -0.001 C 
ENDBRANCH   9  11
ENDBRANCH   1   9
TORSDOF 5
ENDMDL
MODEL 4
REMARK VINA RESULT:      -3.6      3.991      4.988
REMARK  Name = 
REMARK  6 active torsions:
REMARK  status: ('A' for Active; 'I' for Inactive)
REMARK    1  A    between atoms: C_1  and  C_2
REMARK    2  A    between atoms: C_2  and  C_3
REMARK    3  A    between atoms: C_3  and  CA_4
REMARK    4  A    between atoms: CA_4  and  N_6
REMARK    5  A    between atoms: CA_4  and  C_7
REMARK    6  A    between atoms: C_7  and  O_8
REMARK                            x       y       z     vdW  Elec       q    Type
REMARK                         _______ _______ _______ _____ _____    ______ ____
ROOT
ATOM      1  CA  UNL     1       9.591  -0.588  23.839  0.00  0.00    +0.161 C 
ENDROOT
BRANCH   1   2
ATOM      2  N   UNL     1       8.935  -0.941  25.134  0.00  0.00    -0.318 NA
ATOM      3  H1  UNL     1       8.155  -0.295  25.282  0.00  0.00    +0.119 HD
ATOM      4  H2  UNL     1       8.484  -1.857  25.016  0.00  0.00    +0.119 HD
ENDBRANCH   1   2
BRANCH   1   5
ATOM      5  C   UNL     1      10.118  -1.890  23.212  0.00  0.00    +0.322 C 
ATOM      6  OXT UNL     1      10.239  -2.957  23.792  0.00  0.00    -0.249 OA
BRANCH   5   7
ATOM      7  O   UNL     1      10.426  -1.711  21.898  0.00  0.00    -0.480 OA
ATOM      8  H   UNL     1       9.618  -1.322  21.481  0.00  0.00    +0.295 HD
ENDBRANCH   5   7
ENDBRANCH   1   5
BRANCH   1   9
ATOM      9  C   UNL     1      10.731   0.401  24.113  0.00  0.00    +0.029 C 
BRANCH   9  11
ATOM     10  C   UNL     1      10.035   1.821  22.146  0.00  0.00    +0.004 C 
ATOM     11  C   UNL     1      10.437   1.818  23.613  0.00  0.00    -0.001 C 
ENDBRANCH   9  11
ENDBRANCH   1   9
TORSDOF 5
ENDMDL
MODEL 5
REMARK VINA RESULT:      -3.6      3.615      4.622
REMARK  Name = 
REMARK  6 active torsions:
REMARK  status: ('A' for Active; 'I' for Inactive)
REMARK    1  A    between atoms: C_1  and  C_2
REMARK    2  A    between atoms: C_2  and  C_3
REMARK    3  A    between atoms: C_3  and  CA_4
REMARK    4  A    between atoms: CA_4  and  N_6
REMARK    5  A    between atoms: CA_4  and  C_7
REMARK    6  A    between atoms: C_7  and  O_8
REMARK                            x       y       z     vdW  Elec       q    Type
REMARK                         _______ _______ _______ _____ _____    ______ ____
ROOT
ATOM      1  CA  UNL     1      10.368  -1.182  22.821  0.00  0.00    +0.161 C 
ENDROOT
BRANCH   1   2
ATOM      2  N   UNL     1       9.990  -1.541  21.420  0.00  0.00    -0.318 NA
ATOM      3  H1  UNL     1      10.803  -1.975  20.974  0.00  0.00    +0.119 HD
ATOM      4  H2  UNL     1       9.297  -2.297  21.468  0.00  0.00    +0.119 HD
ENDBRANCH   1   2
BRANCH   1   5
ATOM      5  C   UNL     1       9.668  -2.178  23.763  0.00  0.00    +0.322 C 
ATOM      6  OXT UNL     1      10.080  -3.290  24.051  0.00  0.00    -0.249 OA
BRANCH   5   7
ATOM      7  O   UNL     1       8.515  -1.652  24.260  0.00  0.00    -0.480 OA
ATOM      8  H   UNL     1       8.115  -1.130  23.521  0.00  0.00    +0.295 HD
ENDBRANCH   5   7
ENDBRANCH   1   5
BRANCH   1   9
ATOM      9  C   UNL     1       9.923   0.259  23.101  0.00  0.00    +0.029 C 
BRANCH   9  11
ATOM     10  C   UNL     1       8.416   1.776  21.760  0.00  0.00    +0.004 C 
ATOM     11  C   UNL     1       9.779   1.106  21.833  0.00  0.00    -0.001 C 
ENDBRANCH   9  11
ENDBRANCH   1   9
TORSDOF 5
ENDMDL
MODEL 6
REMARK VINA RESULT:      -3.6      5.698      6.576
REMARK  Name = 
REMARK  6 active torsions:
REMARK  status: ('A' for Active; 'I' for Inactive)
REMARK    1  A    between atoms: C_1  and  C_2
REMARK    2  A    between atoms: C_2  and  C_3
REMARK    3  A    between atoms: C_3  and  CA_4
REMARK    4  A    between atoms: CA_4  and  N_6
REMARK    5  A    between atoms: CA_4  and  C_7
REMARK    6  A    between atoms: C_7  and  O_8
REMARK                            x       y       z     vdW  Elec       q    Type
REMARK                         _______ _______ _______ _____ _____    ______ ____
ROOT
ATOM      1  CA  UNL     1       9.434   0.074  22.435  0.00  0.00    +0.161 C 
ENDROOT
BRANCH   1   2
ATOM      2  N   UNL     1       9.819  -0.905  21.373  0.00  0.00    -0.318 NA
ATOM      3  H1  UNL     1       9.463  -1.825  21.646  0.00  0.00    +0.119 HD
ATOM      4  H2  UNL     1       9.287  -0.670  20.526  0.00  0.00    +0.119 HD
ENDBRANCH   1   2
BRANCH   1   5
ATOM      5  C   UNL     1       9.104   1.408  21.744  0.00  0.00    +0.322 C 
ATOM      6  OXT UNL     1       7.995   1.756  21.369  0.00  0.00    -0.249 OA
BRANCH   5   7
ATOM      7  O   UNL     1      10.217   2.179  21.611  0.00  0.00    -0.480 OA
ATOM      8  H   UNL     1      10.957   1.553  21.412  0.00  0.00    +0.295 HD
ENDBRANCH   5   7
ENDBRANCH   1   5
BRANCH   1   9
ATOM      9  C   UNL     1      10.604   0.227  23.416  0.00  0.00    +0.029 C 
BRANCH   9  11
ATOM     10  C   UNL     1       9.121  -0.793  25.186  0.00  0.00    +0.004 C 
ATOM     11  C   UNL     1      10.164   0.272  24.882  0.00  0.00    -0.001 C 
ENDBRANCH   9  11
ENDBRANCH   1   9
TORSDOF 5
ENDMDL
MODEL 7
REMARK VINA RESULT:      -3.5      5.685      6.888
REMARK  Name = 
REMARK  6 active torsions:
REMARK  status: ('A' for Active; 'I' for Inactive)
REMARK    1  A    between atoms: C_1  and  C_2
REMARK    2  A    between atoms: C_2  and  C_3
REMARK    3  A    between atoms: C_3  and  CA_4
REMARK    4  A    between atoms: CA_4  and  N_6
REMARK    5  A    between atoms: CA_4  and  C_7
REMARK    6  A    between atoms: C_7  and  O_8
REMARK                            x       y       z     vdW  Elec       q    Type
REMARK                         _______ _______ _______ _____ _____    ______ ____
ROOT
ATOM      1  CA  UNL     1       9.001   0.777  22.105  0.00  0.00    +0.161 C 
ENDROOT
BRANCH   1   2
ATOM      2  N   UNL     1       8.304   1.578  21.053  0.00  0.00    -0.318 NA
ATOM      3  H1  UNL     1       8.751   1.378  20.154  0.00  0.00    +0.119 HD
ATOM      4  H2  UNL     1       7.354   1.200  20.952  0.00  0.00    +0.119 HD
ENDBRANCH   1   2
BRANCH   1   5
ATOM      5  C   UNL     1      10.139   1.642  22.673  0.00  0.00    +0.322 C 
ATOM      6  OXT UNL     1      10.621   1.533  23.790  0.00  0.00    -0.249 OA
BRANCH   5   7
ATOM      7  O   UNL     1      10.566   2.553  21.757  0.00  0.00    -0.480 OA
ATOM      8  H   UNL     1       9.834   3.212  21.670  0.00  0.00    +0.295 HD
ENDBRANCH   5   7
ENDBRANCH   1   5
BRANCH   1   9
ATOM      9  C   UNL     1       9.540  -0.511  21.472  0.00  0.00    +0.029 C 
BRANCH   9  11
ATOM     10  C   UNL     1       9.959  -2.067  23.415  0.00  0.00    +0.004 C 
ATOM     11  C   UNL     1       9.089  -1.780  22.200  0.00  0.00    -0.001 C 
ENDBRANCH   9  11
ENDBRANCH   1   9
TORSDOF 5
ENDMDL
MODEL 8
REMARK VINA RESULT:      -3.4      5.871      7.000
REMARK  Name = 
REMARK  6 active torsions:
REMARK  status: ('A' for Active; 'I' for Inactive)
REMARK    1  A    between atoms: C_1  and  C_2
REMARK    2  A    between atoms: C_2  and  C_3
REMARK    3  A    between atoms: C_3  and  CA_4
REMARK    4  A    between atoms: CA_4  and  N_6
REMARK    5  A    between atoms: CA_4  and  C_7
REMARK    6  A    between atoms: C_7  and  O_8
REMARK                            x       y       z     vdW  Elec       q    Type
REMARK                         _______ _______ _______ _____ _____    ______ ____
ROOT
ATOM      1  CA  UNL     1      10.009   2.235  23.968  0.00  0.00    +0.161 C 
ENDROOT
BRANCH   1   2
ATOM      2  N   UNL     1       8.922   2.387  24.982  0.00  0.00    -0.318 NA
ATOM      3  H1  UNL     1       9.359   2.567  25.890  0.00  0.00    +0.119 HD
ATOM      4  H2  UNL     1       8.416   3.255  24.769  0.00  0.00    +0.119 HD
ENDBRANCH   1   2
BRANCH   1   5
ATOM      5  C   UNL     1       9.344   2.080  22.589  0.00  0.00    +0.322 C 
ATOM      6  OXT UNL     1       8.165   1.829  22.396  0.00  0.00    -0.249 OA
BRANCH   5   7
ATOM      7  O   UNL     1      10.244   2.274  21.587  0.00  0.00    -0.480 OA
ATOM      8  H   UNL     1       9.723   2.250  20.747  0.00  0.00    +0.295 HD
ENDBRANCH   5   7
ENDBRANCH   1   5
BRANCH   1   9
ATOM      9  C   UNL     1      10.851   1.003  24.323  0.00  0.00    +0.029 C 
BRANCH   9  11
ATOM     10  C   UNL     1       9.783  -1.279  24.187  0.00  0.00    +0.004 C 
ATOM     11  C   UNL     1      10.062  -0.075  25.072  0.00  0.00    -0.001 C 
ENDBRANCH   9  11
ENDBRANCH   1   9
TORSDOF 5
ENDMDL
MODEL 9
REMARK VINA RESULT:      -3.4      6.043      7.101
REMARK  Name = 
REMARK  6 active torsions:
REMARK  status: ('A' for Active; 'I' for Inactive)
REMARK    1  A    between atoms: C_1  and  C_2
REMARK    2  A    between atoms: C_2  and  C_3
REMARK    3  A    between atoms: C_3  and  CA_4
REMARK    4  A    between atoms: CA_4  and  N_6
REMARK    5  A    between atoms: CA_4  and  C_7
REMARK    6  A    between atoms: C_7  and  O_8
REMARK                            x       y       z     vdW  Elec       q    Type
REMARK                         _______ _______ _______ _____ _____    ______ ____
ROOT
ATOM      1  CA  UNL     1       9.329   1.472  22.279  0.00  0.00    +0.161 C 
ENDROOT
BRANCH   1   2
ATOM      2  N   UNL     1      10.371   2.389  21.725  0.00  0.00    -0.318 NA
ATOM      3  H1  UNL     1      11.290   2.018  21.982  0.00  0.00    +0.119 HD
ATOM      4  H2  UNL     1      10.345   2.308  20.701  0.00  0.00    +0.119 HD
ENDBRANCH   1   2
BRANCH   1   5
ATOM      5  C   UNL     1       9.866   0.034  22.171  0.00  0.00    +0.322 C 
ATOM      6  OXT UNL     1      10.519  -0.544  23.025  0.00  0.00    -0.249 OA
BRANCH   5   7
ATOM      7  O   UNL     1       9.506  -0.534  20.989  0.00  0.00    -0.480 OA
ATOM      8  H   UNL     1      10.317  -0.520  20.423  0.00  0.00    +0.295 HD
ENDBRANCH   5   7
ENDBRANCH   1   5
BRANCH   1   9
ATOM      9  C   UNL     1       8.035   1.647  21.474  0.00  0.00    +0.029 C 
BRANCH   9  11
ATOM     10  C   UNL     1       7.046   3.856  22.191  0.00  0.00    +0.004 C 
ATOM     11  C   UNL     1       6.921   2.342  22.261  0.00  0.00    -0.001 C 
ENDBRANCH   9  11
ENDBRANCH   1   9
TORSDOF 5
ENDMDL
