MODEL 1
REMARK VINA RESULT:      -6.8      0.000      0.000
REMARK  Name = 
REMARK  4 active torsions:
REMARK  status: ('A' for Active; 'I' for Inactive)
REMARK    1  A    between atoms: C_1  and  S_2
REMARK    2  A    between atoms: S_2  and  C_5
REMARK    3  A    between atoms: C_8  and  N_9
REMARK    4  A    between atoms: N_9  and  C_10
REMARK                            x       y       z     vdW  Elec       q    Type
REMARK                         _______ _______ _______ _____ _____    ______ ____
ROOT
ATOM      1  N   UNL     1       9.292  -3.600  24.549  0.00  0.00    -0.299 N 
ATOM      2  H   UNL     1       9.789  -3.896  25.397  0.00  0.00    +0.154 HD
ENDROOT
BRANCH   1   3
ATOM      3  C   UNL     1       8.137  -4.352  24.340  0.00  0.00    +0.130 A 
ATOM      4  N   UNL     1       7.409  -4.781  25.478  0.00  0.00    -0.200 N 
ATOM      5  C   UNL     1       6.240  -5.544  25.344  0.00  0.00    +0.159 A 
ATOM      6  C   UNL     1       5.809  -5.816  26.621  0.00  0.00    +0.069 A 
ATOM      7  C   UNL     1       6.740  -5.189  27.466  0.00  0.00    +0.137 A 
ATOM      8  N   UNL     1       5.732  -5.895  24.126  0.00  0.00    -0.216 NA
ATOM      9  C   UNL     1       6.420  -5.523  23.088  0.00  0.00    +0.135 A 
ATOM     10 CL   UNL     1       5.757  -5.941  21.553  0.00  0.00    -0.062 Cl
ATOM     11  N   UNL     1       7.702  -4.552  26.795  0.00  0.00    -0.172 NA
ATOM     12  C   UNL     1       7.697  -4.760  23.134  0.00  0.00    +0.084 A 
ENDBRANCH   1   3
BRANCH   1  16
ATOM     13  C   UNL     1       9.697   0.539  23.810  0.00  0.00    +0.088 A 
ATOM     14  C   UNL     1       9.155   0.085  25.012  0.00  0.00    +0.029 A 
ATOM     15  C   UNL     1       9.048  -1.292  25.240  0.00  0.00    +0.025 A 
ATOM     16  C   UNL     1       9.476  -2.224  24.281  0.00  0.00    +0.032 A 
ATOM     17  C   UNL     1      10.082  -1.735  23.113  0.00  0.00    +0.025 A 
ATOM     18  C   UNL     1      10.200  -0.364  22.874  0.00  0.00    +0.029 A 
BRANCH  13  20
ATOM     19  C   UNL     1       8.703   2.955  24.737  0.00  0.00    +0.200 C 
ATOM     20  S   UNL     1       9.713   2.277  23.441  0.00  0.00    -0.006 S 
ATOM     21  O   UNL     1      11.070   2.752  23.627  0.00  0.00    -0.170 OA
ATOM     22  O   UNL     1       9.021   2.465  22.181  0.00  0.00    -0.170 OA
ENDBRANCH  13  20
ENDBRANCH   1  16
TORSDOF 3
ENDMDL
MODEL 2
REMARK VINA RESULT:      -6.7      1.758      2.533
REMARK  Name = 
REMARK  4 active torsions:
REMARK  status: ('A' for Active; 'I' for Inactive)
REMARK    1  A    between atoms: C_1  and  S_2
REMARK    2  A    between atoms: S_2  and  C_5
REMARK    3  A    between atoms: C_8  and  N_9
REMARK    4  A    between atoms: N_9  and  C_10
REMARK                            x       y       z     vdW  Elec       q    Type
REMARK                         _______ _______ _______ _____ _____    ______ ____
ROOT
ATOM      1  N   UNL     1       9.604  -3.339  24.184  0.00  0.00    -0.299 N 
ATOM      2  H   UNL     1      10.479  -3.692  24.588  0.00  0.00    +0.154 HD
ENDROOT
BRANCH   1   3
ATOM      3  C   UNL     1       8.502  -4.068  24.627  0.00  0.00    +0.130 A 
ATOM      4  N   UNL     1       7.533  -4.458  23.668  0.00  0.00    -0.200 N 
ATOM      5  C   UNL     1       6.397  -5.189  24.044  0.00  0.00    +0.159 A 
ATOM      6  C   UNL     1       5.659  -5.370  22.897  0.00  0.00    +0.069 A 
ATOM      7  C   UNL     1       6.399  -4.743  21.880  0.00  0.00    +0.137 A 
ATOM      8  N   UNL     1       6.173  -5.581  25.332  0.00  0.00    -0.216 NA
ATOM      9  C   UNL     1       7.049  -5.196  26.210  0.00  0.00    +0.135 A 
ATOM     10 CL   UNL     1       6.777  -5.720  27.830  0.00  0.00    -0.062 Cl
ATOM     11  N   UNL     1       7.535  -4.200  22.325  0.00  0.00    -0.172 NA
ATOM     12  C   UNL     1       8.254  -4.373  25.916  0.00  0.00    +0.084 A 
ENDBRANCH   1   3
BRANCH   1  16
ATOM     13  C   UNL     1       9.652   0.829  23.505  0.00  0.00    +0.088 A 
ATOM     14  C   UNL     1       9.424   0.324  24.784  0.00  0.00    +0.029 A 
ATOM     15  C   UNL     1       9.430  -1.061  24.986  0.00  0.00    +0.025 A 
ATOM     16  C   UNL     1       9.662  -1.950  23.925  0.00  0.00    +0.032 A 
ATOM     17  C   UNL     1       9.959  -1.408  22.665  0.00  0.00    +0.025 A 
ATOM     18  C   UNL     1       9.962  -0.027  22.450  0.00  0.00    +0.029 A 
BRANCH  13  20
ATOM     19  C   UNL     1       8.754   3.166  24.695  0.00  0.00    +0.200 C 
ATOM     20  S   UNL     1       9.509   2.573  23.199  0.00  0.00    -0.006 S 
ATOM     21  O   UNL     1      10.851   3.117  23.121  0.00  0.00    -0.170 OA
ATOM     22  O   UNL     1       8.565   2.753  22.113  0.00  0.00    -0.170 OA
ENDBRANCH  13  20
ENDBRANCH   1  16
TORSDOF 3
ENDMDL
MODEL 3
REMARK VINA RESULT:      -6.6      1.780      2.247
REMARK  Name = 
REMARK  4 active torsions:
REMARK  status: ('A' for Active; 'I' for Inactive)
REMARK    1  A    between atoms: C_1  and  S_2
REMARK    2  A    between atoms: S_2  and  C_5
REMARK    3  A    between atoms: C_8  and  N_9
REMARK    4  A    between atoms: N_9  and  C_10
REMARK                            x       y       z     vdW  Elec       q    Type
REMARK                         _______ _______ _______ _____ _____    ______ ____
ROOT
ATOM      1  N   UNL     1       8.852  -2.265  22.293  0.00  0.00    -0.299 N 
ATOM      2  H   UNL     1       9.736  -2.699  22.005  0.00  0.00    +0.154 HD
ENDROOT
BRANCH   1   3
ATOM      3  C   UNL     1       8.009  -3.182  22.920  0.00  0.00    +0.130 A 
ATOM      4  N   UNL     1       8.542  -3.954  23.982  0.00  0.00    -0.200 N 
ATOM      5  C   UNL     1       7.753  -4.898  24.656  0.00  0.00    +0.159 A 
ATOM      6  C   UNL     1       8.572  -5.486  25.591  0.00  0.00    +0.069 A 
ATOM      7  C   UNL     1       9.818  -4.855  25.440  0.00  0.00    +0.137 A 
ATOM      8  N   UNL     1       6.440  -5.109  24.345  0.00  0.00    -0.216 NA
ATOM      9  C   UNL     1       5.967  -4.419  23.352  0.00  0.00    +0.135 A 
ATOM     10 CL   UNL     1       4.301  -4.666  22.985  0.00  0.00    -0.062 Cl
ATOM     11  N   UNL     1       9.814  -3.922  24.485  0.00  0.00    -0.172 NA
ATOM     12  C   UNL     1       6.741  -3.436  22.545  0.00  0.00    +0.084 A 
ENDBRANCH   1   3
BRANCH   1  16
ATOM     13  C   UNL     1       9.202   1.814  23.330  0.00  0.00    +0.088 A 
ATOM     14  C   UNL     1       8.889   0.863  24.299  0.00  0.00    +0.029 A 
ATOM     15  C   UNL     1       8.796  -0.485  23.934  0.00  0.00    +0.025 A 
ATOM     16  C   UNL     1       9.012  -0.896  22.609  0.00  0.00    +0.032 A 
ATOM     17  C   UNL     1       9.396   0.076  21.672  0.00  0.00    +0.025 A 
ATOM     18  C   UNL     1       9.498   1.425  22.024  0.00  0.00    +0.029 A 
BRANCH  13  20
ATOM     19  C   UNL     1       7.953   4.190  22.638  0.00  0.00    +0.200 C 
ATOM     20  S   UNL     1       9.187   3.543  23.741  0.00  0.00    -0.006 S 
ATOM     21  O   UNL     1       8.692   3.666  25.098  0.00  0.00    -0.170 OA
ATOM     22  O   UNL     1      10.471   4.096  23.360  0.00  0.00    -0.170 OA
ENDBRANCH  13  20
ENDBRANCH   1  16
TORSDOF 3
ENDMDL
MODEL 4
REMARK VINA RESULT:      -6.6      1.690      2.325
REMARK  Name = 
REMARK  4 active torsions:
REMARK  status: ('A' for Active; 'I' for Inactive)
REMARK    1  A    between atoms: C_1  and  S_2
REMARK    2  A    between atoms: S_2  and  C_5
REMARK    3  A    between atoms: C_8  and  N_9
REMARK    4  A    between atoms: N_9  and  C_10
REMARK                            x       y       z     vdW  Elec       q    Type
REMARK                         _______ _______ _______ _____ _____    ______ ____
ROOT
ATOM      1  N   UNL     1       8.354  -4.554  25.831  0.00  0.00    -0.299 N 
ATOM      2  H   UNL     1       8.819  -4.845  26.698  0.00  0.00    +0.154 HD
ENDROOT
BRANCH   1   3
ATOM      3  C   UNL     1       7.109  -5.163  25.686  0.00  0.00    +0.130 A 
ATOM      4  N   UNL     1       6.512  -5.737  26.837  0.00  0.00    -0.200 N 
ATOM      5  C   UNL     1       5.262  -6.370  26.764  0.00  0.00    +0.159 A 
ATOM      6  C   UNL     1       4.994  -6.838  28.029  0.00  0.00    +0.069 A 
ATOM      7  C   UNL     1       6.099  -6.452  28.807  0.00  0.00    +0.137 A 
ATOM      8  N   UNL     1       4.549  -6.449  25.602  0.00  0.00    -0.216 NA
ATOM      9  C   UNL     1       5.115  -5.948  24.546  0.00  0.00    +0.135 A 
ATOM     10 CL   UNL     1       4.197  -6.022  23.089  0.00  0.00    -0.062 Cl
ATOM     11  N   UNL     1       7.015  -5.778  28.108  0.00  0.00    -0.172 NA
ATOM     12  C   UNL     1       6.458  -5.307  24.515  0.00  0.00    +0.084 A 
ENDBRANCH   1   3
BRANCH   1  16
ATOM     13  C   UNL     1       9.557  -0.680  24.656  0.00  0.00    +0.088 A 
ATOM     14  C   UNL     1       9.803  -1.777  23.831  0.00  0.00    +0.029 A 
ATOM     15  C   UNL     1       9.379  -3.048  24.235  0.00  0.00    +0.025 A 
ATOM     16  C   UNL     1       8.711  -3.239  25.454  0.00  0.00    +0.032 A 
ATOM     17  C   UNL     1       8.415  -2.105  26.228  0.00  0.00    +0.025 A 
ATOM     18  C   UNL     1       8.828  -0.829  25.834  0.00  0.00    +0.029 A 
BRANCH  13  20
ATOM     19  C   UNL     1      10.026   0.949  22.462  0.00  0.00    +0.200 C 
ATOM     20  S   UNL     1      10.209   0.917  24.230  0.00  0.00    -0.006 S 
ATOM     21  O   UNL     1       9.325   1.917  24.796  0.00  0.00    -0.170 OA
ATOM     22  O   UNL     1      11.626   0.910  24.539  0.00  0.00    -0.170 OA
ENDBRANCH  13  20
ENDBRANCH   1  16
TORSDOF 3
ENDMDL
MODEL 5
REMARK VINA RESULT:      -6.5      5.201      8.248
REMARK  Name = 
REMARK  4 active torsions:
REMARK  status: ('A' for Active; 'I' for Inactive)
REMARK    1  A    between atoms: C_1  and  S_2
REMARK    2  A    between atoms: S_2  and  C_5
REMARK    3  A    between atoms: C_8  and  N_9
REMARK    4  A    between atoms: N_9  and  C_10
REMARK                            x       y       z     vdW  Elec       q    Type
REMARK                         _______ _______ _______ _____ _____    ______ ____
ROOT
ATOM      1  N   UNL     1      10.418   1.783  22.751  0.00  0.00    -0.299 N 
ATOM      2  H   UNL     1      10.789   1.895  21.801  0.00  0.00    +0.154 HD
ENDROOT
BRANCH   1   3
ATOM      3  C   UNL     1       9.824   2.956  23.213  0.00  0.00    +0.130 A 
ATOM      4  N   UNL     1      10.660   4.076  23.450  0.00  0.00    -0.200 N 
ATOM      5  C   UNL     1      10.131   5.287  23.918  0.00  0.00    +0.159 A 
ATOM      6  C   UNL     1      11.199   6.140  24.070  0.00  0.00    +0.069 A 
ATOM      7  C   UNL     1      12.324   5.397  23.673  0.00  0.00    +0.137 A 
ATOM      8  N   UNL     1       8.797   5.461  24.150  0.00  0.00    -0.216 NA
ATOM      9  C   UNL     1       8.041   4.422  23.960  0.00  0.00    +0.135 A 
ATOM     10 CL   UNL     1       6.353   4.657  24.223  0.00  0.00    -0.062 Cl
ATOM     11  N   UNL     1      12.015   4.158  23.285  0.00  0.00    -0.172 NA
ATOM     12  C   UNL     1       8.517   3.084  23.517  0.00  0.00    +0.084 A 
ENDBRANCH   1   3
BRANCH   1  16
ATOM     13  C   UNL     1       9.040  -2.155  23.409  0.00  0.00    +0.088 A 
ATOM     14  C   UNL     1       8.996  -1.595  22.133  0.00  0.00    +0.029 A 
ATOM     15  C   UNL     1       9.475  -0.294  21.938  0.00  0.00    +0.025 A 
ATOM     16  C   UNL     1       9.999   0.456  23.002  0.00  0.00    +0.032 A 
ATOM     17  C   UNL     1      10.095  -0.163  24.259  0.00  0.00    +0.025 A 
ATOM     18  C   UNL     1       9.625  -1.462  24.467  0.00  0.00    +0.029 A 
BRANCH  13  20
ATOM     19  C   UNL     1       7.096  -3.387  24.955  0.00  0.00    +0.200 C 
ATOM     20  S   UNL     1       8.310  -3.747  23.707  0.00  0.00    -0.006 S 
ATOM     21  O   UNL     1       7.614  -4.145  22.499  0.00  0.00    -0.170 OA
ATOM     22  O   UNL     1       9.328  -4.594  24.297  0.00  0.00    -0.170 OA
ENDBRANCH  13  20
ENDBRANCH   1  16
TORSDOF 3
ENDMDL
MODEL 6
REMARK VINA RESULT:      -6.4      5.221      7.515
REMARK  Name = 
REMARK  4 active torsions:
REMARK  status: ('A' for Active; 'I' for Inactive)
REMARK    1  A    between atoms: C_1  and  S_2
REMARK    2  A    between atoms: S_2  and  C_5
REMARK    3  A    between atoms: C_8  and  N_9
REMARK    4  A    between atoms: N_9  and  C_10
REMARK                            x       y       z     vdW  Elec       q    Type
REMARK                         _______ _______ _______ _____ _____    ______ ____
ROOT
ATOM      1  N   UNL     1       9.193   0.130  21.709  0.00  0.00    -0.299 N 
ATOM      2  H   UNL     1       8.665   0.110  20.829  0.00  0.00    +0.154 HD
ENDROOT
BRANCH   1   3
ATOM      3  C   UNL     1       9.260   1.417  22.239  0.00  0.00    +0.130 A 
ATOM      4  N   UNL     1       8.042   2.103  22.475  0.00  0.00    -0.200 N 
ATOM      5  C   UNL     1       8.034   3.402  23.003  0.00  0.00    +0.159 A 
ATOM      6  C   UNL     1       6.714   3.781  23.073  0.00  0.00    +0.069 A 
ATOM      7  C   UNL     1       5.988   2.679  22.589  0.00  0.00    +0.137 A 
ATOM      8  N   UNL     1       9.182   4.062  23.336  0.00  0.00    -0.216 NA
ATOM      9  C   UNL     1      10.295   3.440  23.091  0.00  0.00    +0.135 A 
ATOM     10 CL   UNL     1      11.739   4.265  23.543  0.00  0.00    -0.062 Cl
ATOM     11  N   UNL     1       6.771   1.657  22.237  0.00  0.00    -0.172 NA
ATOM     12  C   UNL     1      10.404   2.085  22.483  0.00  0.00    +0.084 A 
ENDBRANCH   1   3
BRANCH   1  16
ATOM     13  C   UNL     1       8.691  -3.460  23.878  0.00  0.00    +0.088 A 
ATOM     14  C   UNL     1       7.696  -3.015  23.008  0.00  0.00    +0.029 A 
ATOM     15  C   UNL     1       7.894  -1.831  22.288  0.00  0.00    +0.025 A 
ATOM     16  C   UNL     1       9.075  -1.085  22.424  0.00  0.00    +0.032 A 
ATOM     17  C   UNL     1      10.086  -1.597  23.253  0.00  0.00    +0.025 A 
ATOM     18  C   UNL     1       9.904  -2.780  23.974  0.00  0.00    +0.029 A 
BRANCH  13  20
ATOM     19  C   UNL     1       8.662  -4.231  26.540  0.00  0.00    +0.200 C 
ATOM     20  S   UNL     1       8.404  -4.880  24.906  0.00  0.00    -0.006 S 
ATOM     21  O   UNL     1       7.005  -5.240  24.776  0.00  0.00    -0.170 OA
ATOM     22  O   UNL     1       9.453  -5.842  24.629  0.00  0.00    -0.170 OA
ENDBRANCH  13  20
ENDBRANCH   1  16
TORSDOF 3
ENDMDL
MODEL 7
REMARK VINA RESULT:      -6.4      1.876      2.972
REMARK  Name = 
REMARK  4 active torsions:
REMARK  status: ('A' for Active; 'I' for Inactive)
REMARK    1  A    between atoms: C_1  and  S_2
REMARK    2  A    between atoms: S_2  and  C_5
REMARK    3  A    between atoms: C_8  and  N_9
REMARK    4  A    between atoms: N_9  and  C_10
REMARK                            x       y       z     vdW  Elec       q    Type
REMARK                         _______ _______ _______ _____ _____    ______ ____
ROOT
ATOM      1  N   UNL     1       8.818  -4.231  24.877  0.00  0.00    -0.299 N 
ATOM      2  H   UNL     1       9.485  -4.605  25.561  0.00  0.00    +0.154 HD
ENDROOT
BRANCH   1   3
ATOM      3  C   UNL     1       7.602  -4.910  24.921  0.00  0.00    +0.130 A 
ATOM      4  N   UNL     1       6.918  -5.127  23.698  0.00  0.00    -0.200 N 
ATOM      5  C   UNL     1       5.687  -5.800  23.667  0.00  0.00    +0.159 A 
ATOM      6  C   UNL     1       5.287  -5.809  22.351  0.00  0.00    +0.069 A 
ATOM      7  C   UNL     1       6.309  -5.146  21.650  0.00  0.00    +0.137 A 
ATOM      8  N   UNL     1       5.097  -6.296  24.794  0.00  0.00    -0.216 NA
ATOM      9  C   UNL     1       5.714  -6.068  25.913  0.00  0.00    +0.135 A 
ATOM     10 CL   UNL     1       4.981  -6.725  27.328  0.00  0.00    -0.062 Cl
ATOM     11  N   UNL     1       7.303  -4.740  22.444  0.00  0.00    -0.172 NA
ATOM     12  C   UNL     1       6.993  -5.319  26.051  0.00  0.00    +0.084 A 
ENDBRANCH   1   3
BRANCH   1  16
ATOM     13  C   UNL     1       9.569  -0.138  24.155  0.00  0.00    +0.088 A 
ATOM     14  C   UNL     1      10.156  -1.117  23.354  0.00  0.00    +0.029 A 
ATOM     15  C   UNL     1       9.878  -2.465  23.603  0.00  0.00    +0.025 A 
ATOM     16  C   UNL     1       9.018  -2.851  24.643  0.00  0.00    +0.032 A 
ATOM     17  C   UNL     1       8.387  -1.840  25.385  0.00  0.00    +0.025 A 
ATOM     18  C   UNL     1       8.652  -0.489  25.144  0.00  0.00    +0.029 A 
BRANCH  13  20
ATOM     19  C   UNL     1       9.659   1.854  22.230  0.00  0.00    +0.200 C 
ATOM     20  S   UNL     1      10.017   1.568  23.947  0.00  0.00    -0.006 S 
ATOM     21  O   UNL     1       9.100   2.363  24.741  0.00  0.00    -0.170 OA
ATOM     22  O   UNL     1      11.451   1.672  24.134  0.00  0.00    -0.170 OA
ENDBRANCH  13  20
ENDBRANCH   1  16
TORSDOF 3
ENDMDL
MODEL 8
REMARK VINA RESULT:      -6.2      2.598      3.405
REMARK  Name = 
REMARK  4 active torsions:
REMARK  status: ('A' for Active; 'I' for Inactive)
REMARK    1  A    between atoms: C_1  and  S_2
REMARK    2  A    between atoms: S_2  and  C_5
REMARK    3  A    between atoms: C_8  and  N_9
REMARK    4  A    between atoms: N_9  and  C_10
REMARK                            x       y       z     vdW  Elec       q    Type
REMARK                         _______ _______ _______ _____ _____    ______ ____
ROOT
ATOM      1  N   UNL     1       6.741  -1.779  22.796  0.00  0.00    -0.299 N 
ATOM      2  H   UNL     1       6.261  -1.837  21.891  0.00  0.00    +0.154 HD
ENDROOT
BRANCH   1   3
ATOM      3  C   UNL     1       7.299  -3.003  23.162  0.00  0.00    +0.130 A 
ATOM      4  N   UNL     1       6.932  -4.150  22.415  0.00  0.00    -0.200 N 
ATOM      5  C   UNL     1       7.452  -5.415  22.728  0.00  0.00    +0.159 A 
ATOM      6  C   UNL     1       6.874  -6.297  21.846  0.00  0.00    +0.069 A 
ATOM      7  C   UNL     1       6.038  -5.513  21.033  0.00  0.00    +0.137 A 
ATOM      8  N   UNL     1       8.344  -5.606  23.743  0.00  0.00    -0.216 NA
ATOM      9  C   UNL     1       8.654  -4.556  24.442  0.00  0.00    +0.135 A 
ATOM     10 CL   UNL     1       9.806  -4.798  25.701  0.00  0.00    -0.062 Cl
ATOM     11  N   UNL     1       6.071  -4.218  21.354  0.00  0.00    -0.172 NA
ATOM     12  C   UNL     1       8.114  -3.187  24.219  0.00  0.00    +0.084 A 
ENDBRANCH   1   3
BRANCH   1  16
ATOM     13  C   UNL     1       8.195   2.123  23.505  0.00  0.00    +0.088 A 
ATOM     14  C   UNL     1       7.127   1.621  24.247  0.00  0.00    +0.029 A 
ATOM     15  C   UNL     1       6.675   0.319  24.005  0.00  0.00    +0.025 A 
ATOM     16  C   UNL     1       7.277  -0.491  23.030  0.00  0.00    +0.032 A 
ATOM     17  C   UNL     1       8.395   0.017  22.350  0.00  0.00    +0.025 A 
ATOM     18  C   UNL     1       8.861   1.314  22.585  0.00  0.00    +0.029 A 
BRANCH  13  20
ATOM     19  C   UNL     1       8.186   4.182  25.361  0.00  0.00    +0.200 C 
ATOM     20  S   UNL     1       8.693   3.817  23.697  0.00  0.00    -0.006 S 
ATOM     21  O   UNL     1      10.142   3.858  23.644  0.00  0.00    -0.170 OA
ATOM     22  O   UNL     1       7.890   4.617  22.793  0.00  0.00    -0.170 OA
ENDBRANCH  13  20
ENDBRANCH   1  16
TORSDOF 3
ENDMDL
MODEL 9
REMARK VINA RESULT:      -6.2      4.899      7.424
REMARK  Name = 
REMARK  4 active torsions:
REMARK  status: ('A' for Active; 'I' for Inactive)
REMARK    1  A    between atoms: C_1  and  S_2
REMARK    2  A    between atoms: S_2  and  C_5
REMARK    3  A    between atoms: C_8  and  N_9
REMARK    4  A    between atoms: N_9  and  C_10
REMARK                            x       y       z     vdW  Elec       q    Type
REMARK                         _______ _______ _______ _____ _____    ______ ____
ROOT
ATOM      1  N   UNL     1       8.669   0.346  21.807  0.00  0.00    -0.299 N 
ATOM      2  H   UNL     1       8.456   0.175  20.818  0.00  0.00    +0.154 HD
ENDROOT
BRANCH   1   3
ATOM      3  C   UNL     1       8.180   1.580  22.233  0.00  0.00    +0.130 A 
ATOM      4  N   UNL     1       9.100   2.501  22.795  0.00  0.00    -0.200 N 
ATOM      5  C   UNL     1       8.678   3.760  23.248  0.00  0.00    +0.159 A 
ATOM      6  C   UNL     1       9.795   4.379  23.757  0.00  0.00    +0.069 A 
ATOM      7  C   UNL     1      10.842   3.461  23.575  0.00  0.00    +0.137 A 
ATOM      8  N   UNL     1       7.380   4.172  23.155  0.00  0.00    -0.216 NA
ATOM      9  C   UNL     1       6.538   3.313  22.666  0.00  0.00    +0.135 A 
ATOM     10 CL   UNL     1       4.906   3.851  22.521  0.00  0.00    -0.062 Cl
ATOM     11  N   UNL     1      10.444   2.331  22.986  0.00  0.00    -0.172 NA
ATOM     12  C   UNL     1       6.882   1.938  22.210  0.00  0.00    +0.084 A 
ENDBRANCH   1   3
BRANCH   1  16
ATOM     13  C   UNL     1       8.699  -3.196  24.108  0.00  0.00    +0.088 A 
ATOM     14  C   UNL     1       7.507  -2.714  23.568  0.00  0.00    +0.029 A 
ATOM     15  C   UNL     1       7.526  -1.547  22.795  0.00  0.00    +0.025 A 
ATOM     16  C   UNL     1       8.723  -0.855  22.553  0.00  0.00    +0.032 A 
ATOM     17  C   UNL     1       9.915  -1.405  23.050  0.00  0.00    +0.025 A 
ATOM     18  C   UNL     1       9.911  -2.572  23.819  0.00  0.00    +0.029 A 
BRANCH  13  20
ATOM     19  C   UNL     1       6.982  -5.122  25.121  0.00  0.00    +0.200 C 
ATOM     20  S   UNL     1       8.677  -4.592  25.206  0.00  0.00    -0.006 S 
ATOM     21  O   UNL     1       9.506  -5.626  24.618  0.00  0.00    -0.170 OA
ATOM     22  O   UNL     1       8.931  -4.101  26.546  0.00  0.00    -0.170 OA
ENDBRANCH  13  20
ENDBRANCH   1  16
TORSDOF 3
ENDMDL
