MODEL 1
REMARK VINA RESULT:      -8.1      0.000      0.000
REMARK  Name = 
REMARK  15 active torsions:
REMARK  status: ('A' for Active; 'I' for Inactive)
REMARK    1  A    between atoms: C_1  and  C_2
REMARK    2  A    between atoms: N_4  and  C_5
REMARK    3  A    between atoms: C_5  and  C_7
REMARK    4  A    between atoms: C_5  and  C_22
REMARK    5  A    between atoms: C_7  and  C_8
REMARK    6  A    between atoms: C_11  and  P_18
REMARK    7  A    between atoms: C_12  and  P_14
REMARK    8  A    between atoms: P_14  and  O_15
REMARK    9  A    between atoms: P_14  and  O_16
REMARK   10  A    between atoms: P_18  and  O_19
REMARK   11  A    between atoms: P_18  and  O_20
REMARK   12  A    between atoms: N_24  and  C_25
REMARK   13  A    between atoms: N_31  and  C_32
REMARK   14  A    between atoms: C_32  and  C_33
REMARK   15  A    between atoms: C_36  and  C_39
REMARK                            x       y       z     vdW  Elec       q    Type
REMARK                         _______ _______ _______ _____ _____    ______ ____
ROOT
ATOM      1  C   UNL     1       3.860  -3.096  26.238  0.00  0.00    +0.163 C 
ENDROOT
BRANCH   1   4
ATOM      2  C   UNL     1       3.505  -1.680  29.763  0.00  0.00    +0.109 C 
ATOM      3  C   UNL     1       3.861  -2.676  28.705  0.00  0.00    +0.211 C 
ATOM      4  N   UNL     1       3.683  -2.223  27.428  0.00  0.00    -0.304 N 
ATOM      5  H   UNL     1       3.680  -1.228  27.232  0.00  0.00    +0.149 HD
ATOM      6  O   UNL     1       4.278  -3.805  28.968  0.00  0.00    -0.276 OA
ENDBRANCH   1   4
BRANCH   1   7
ATOM      7  C   UNL     1       4.927  -2.492  25.313  0.00  0.00    +0.234 C 
ATOM      8  N   UNL     1       5.958  -3.162  24.756  0.00  0.00    -0.302 N 
ATOM      9  H   UNL     1       6.600  -2.497  24.339  0.00  0.00    +0.150 HD
ATOM     10  O   UNL     1       4.934  -1.264  25.124  0.00  0.00    -0.274 OA
BRANCH   8  11
ATOM     11  C   UNL     1       6.303  -4.562  24.393  0.00  0.00    +0.159 C 
ATOM     12  C   UNL     1       7.441  -4.580  23.353  0.00  0.00    +0.236 C 
ATOM     13  O   UNL     1       7.754  -5.570  22.696  0.00  0.00    -0.274 OA
ATOM     14  N   UNL     1       8.277  -3.489  23.509  0.00  0.00    -0.296 N 
ATOM     15  C   UNL     1       9.440  -3.594  24.376  0.00  0.00    +0.108 C 
ATOM     16  C   UNL     1       9.293  -4.491  25.630  0.00  0.00    +0.019 C 
ATOM     17  C   UNL     1       7.943  -4.585  26.362  0.00  0.00    +0.004 C 
ATOM     18  C   UNL     1       6.821  -5.321  25.611  0.00  0.00    +0.032 C 
BRANCH  14  19
ATOM     19  C   UNL     1       8.050  -2.330  22.651  0.00  0.00    +0.143 C 
BRANCH  19  20
ATOM     20  C   UNL     1       8.651  -1.019  23.076  0.00  0.00    -0.030 A 
ATOM     21  C   UNL     1       9.643  -0.456  22.263  0.00  0.00    +0.006 A 
ATOM     22  C   UNL     1      10.174   0.800  22.552  0.00  0.00    +0.009 A 
ATOM     23  C   UNL     1       9.725   1.545  23.653  0.00  0.00    -0.018 A 
ATOM     24  C   UNL     1       8.854   0.901  24.550  0.00  0.00    +0.009 A 
ATOM     25  C   UNL     1       8.328  -0.370  24.269  0.00  0.00    +0.006 A 
BRANCH  23  26
ATOM     26  C   UNL     1      10.058   2.984  23.775  0.00  0.00    -0.018 A 
ATOM     27  C   UNL     1      11.324   3.446  23.357  0.00  0.00    +0.008 A 
ATOM     28  C   UNL     1      11.652   4.802  23.359  0.00  0.00    +0.001 A 
ATOM     29  C   UNL     1      10.715   5.738  23.776  0.00  0.00    +0.000 A 
ATOM     30  C   UNL     1       9.459   5.312  24.202  0.00  0.00    +0.001 A 
ATOM     31  C   UNL     1       9.134   3.948  24.208  0.00  0.00    +0.008 A 
ENDBRANCH  23  26
ENDBRANCH  19  20
ENDBRANCH  14  19
ENDBRANCH   8  11
ENDBRANCH   1   7
BRANCH   1  32
ATOM     32  C   UNL     1       2.536  -3.400  25.571  0.00  0.00    +0.067 C 
BRANCH  32  33
ATOM     33  C   UNL     1       1.879  -4.743  25.785  0.00  0.00    -0.044 A 
ATOM     34  C   UNL     1       1.335  -5.287  24.633  0.00  0.00    +0.020 A 
ATOM     35  C   UNL     1       0.988  -6.650  24.530  0.00  0.00    +0.078 A 
ATOM     36  C   UNL     1       1.019  -7.431  25.569  0.00  0.00    +0.078 A 
ATOM     37  C   UNL     1       1.433  -6.883  26.808  0.00  0.00    +0.017 A 
ATOM     38  C   UNL     1       1.893  -5.554  26.911  0.00  0.00    +0.004 A 
BRANCH  35  39
ATOM     39  P   UNL     1       1.081  -7.362  22.847  0.00  0.00    +0.359 P 
ATOM     40  O   UNL     1       1.160  -7.965  21.423  0.00  0.00    -0.253 OA
BRANCH  39  41
ATOM     41  O   UNL     1       2.716  -7.147  22.834  0.00  0.00    -0.321 OA
ATOM     42  H   UNL     1       2.883  -6.466  22.156  0.00  0.00    +0.220 HD
ENDBRANCH  39  41
BRANCH  39  43
ATOM     43  O   UNL     1       0.592  -5.898  22.259  0.00  0.00    -0.321 OA
ATOM     44  H   UNL     1       1.287  -5.554  21.671  0.00  0.00    +0.220 HD
ENDBRANCH  39  43
ENDBRANCH  35  39
BRANCH  36  45
ATOM     45  P   UNL     1       1.140  -9.243  25.347  0.00  0.00    +0.359 P 
ATOM     46  O   UNL     1       1.242 -10.777  25.160  0.00  0.00    -0.253 OA
BRANCH  45  47
ATOM     47  O   UNL     1       1.010  -9.466  26.964  0.00  0.00    -0.321 OA
ATOM     48  H   UNL     1       1.626  -8.823  27.376  0.00  0.00    +0.220 HD
ENDBRANCH  45  47
BRANCH  45  49
ATOM     49  O   UNL     1       2.774  -9.045  25.247  0.00  0.00    -0.321 OA
ATOM     50  H   UNL     1       3.258  -9.762  25.700  0.00  0.00    +0.220 HD
ENDBRANCH  45  49
ENDBRANCH  36  45
ENDBRANCH  32  33
ENDBRANCH   1  32
TORSDOF 14
ENDMDL
MODEL 2
REMARK VINA RESULT:      -7.9      2.509      6.735
REMARK  Name = 
REMARK  15 active torsions:
REMARK  status: ('A' for Active; 'I' for Inactive)
REMARK    1  A    between atoms: C_1  and  C_2
REMARK    2  A    between atoms: N_4  and  C_5
REMARK    3  A    between atoms: C_5  and  C_7
REMARK    4  A    between atoms: C_5  and  C_22
REMARK    5  A    between atoms: C_7  and  C_8
REMARK    6  A    between atoms: C_11  and  P_18
REMARK    7  A    between atoms: C_12  and  P_14
REMARK    8  A    between atoms: P_14  and  O_15
REMARK    9  A    between atoms: P_14  and  O_16
REMARK   10  A    between atoms: P_18  and  O_19
REMARK   11  A    between atoms: P_18  and  O_20
REMARK   12  A    between atoms: N_24  and  C_25
REMARK   13  A    between atoms: N_31  and  C_32
REMARK   14  A    between atoms: C_32  and  C_33
REMARK   15  A    between atoms: C_36  and  C_39
REMARK                            x       y       z     vdW  Elec       q    Type
REMARK                         _______ _______ _______ _____ _____    ______ ____
ROOT
ATOM      1  C   UNL     1       7.783  -3.934  23.769  0.00  0.00    +0.163 C 
ENDROOT
BRANCH   1   4
ATOM      2  C   UNL     1       6.296  -5.575  20.663  0.00  0.00    +0.109 C 
ATOM      3  C   UNL     1       6.349  -4.677  21.858  0.00  0.00    +0.211 C 
ATOM      4  N   UNL     1       7.559  -4.663  22.493  0.00  0.00    -0.304 N 
ATOM      5  H   UNL     1       8.402  -4.924  21.996  0.00  0.00    +0.149 HD
ATOM      6  O   UNL     1       5.382  -4.011  22.233  0.00  0.00    -0.276 OA
ENDBRANCH   1   4
BRANCH   1   7
ATOM      7  C   UNL     1       9.016  -3.028  23.632  0.00  0.00    +0.234 C 
ATOM      8  N   UNL     1       9.094  -1.912  22.877  0.00  0.00    -0.302 N 
ATOM      9  H   UNL     1      10.061  -1.609  22.830  0.00  0.00    +0.150 HD
ATOM     10  O   UNL     1      10.083  -3.379  24.165  0.00  0.00    -0.274 OA
BRANCH   8  11
ATOM     11  C   UNL     1       8.172  -0.902  22.294  0.00  0.00    +0.159 C 
ATOM     12  C   UNL     1       7.519  -0.064  23.412  0.00  0.00    +0.236 C 
ATOM     13  O   UNL     1       6.543   0.662  23.244  0.00  0.00    -0.274 OA
ATOM     14  N   UNL     1       8.361   0.051  24.503  0.00  0.00    -0.296 N 
ATOM     15  C   UNL     1       9.285   1.171  24.582  0.00  0.00    +0.108 C 
ATOM     16  C   UNL     1       9.875   1.681  23.244  0.00  0.00    +0.019 C 
ATOM     17  C   UNL     1      10.168   0.694  22.100  0.00  0.00    +0.004 C 
ATOM     18  C   UNL     1       8.938   0.079  21.411  0.00  0.00    +0.032 C 
BRANCH  14  19
ATOM     19  C   UNL     1       8.156  -0.866  25.620  0.00  0.00    +0.143 C 
BRANCH  19  20
ATOM     20  C   UNL     1       6.750  -1.057  26.116  0.00  0.00    -0.030 A 
ATOM     21  C   UNL     1       5.827  -1.670  25.257  0.00  0.00    +0.006 A 
ATOM     22  C   UNL     1       4.534  -1.959  25.689  0.00  0.00    +0.009 A 
ATOM     23  C   UNL     1       4.118  -1.660  26.996  0.00  0.00    -0.018 A 
ATOM     24  C   UNL     1       4.996  -0.900  27.789  0.00  0.00    +0.009 A 
ATOM     25  C   UNL     1       6.294  -0.595  27.352  0.00  0.00    +0.006 A 
BRANCH  23  26
ATOM     26  C   UNL     1       2.869  -2.243  27.540  0.00  0.00    -0.018 A 
ATOM     27  C   UNL     1       2.067  -3.067  26.721  0.00  0.00    +0.008 A 
ATOM     28  C   UNL     1       0.935  -3.717  27.212  0.00  0.00    +0.001 A 
ATOM     29  C   UNL     1       0.575  -3.565  28.545  0.00  0.00    +0.000 A 
ATOM     30  C   UNL     1       1.343  -2.752  29.376  0.00  0.00    +0.001 A 
ATOM     31  C   UNL     1       2.475  -2.092  28.878  0.00  0.00    +0.008 A 
ENDBRANCH  23  26
ENDBRANCH  19  20
ENDBRANCH  14  19
ENDBRANCH   8  11
ENDBRANCH   1   7
BRANCH   1  32
ATOM     32  C   UNL     1       7.815  -4.880  24.950  0.00  0.00    +0.067 C 
BRANCH  32  33
ATOM     33  C   UNL     1       6.643  -4.934  25.901  0.00  0.00    -0.044 A 
ATOM     34  C   UNL     1       5.503  -5.494  25.349  0.00  0.00    +0.020 A 
ATOM     35  C   UNL     1       4.426  -5.949  26.137  0.00  0.00    +0.078 A 
ATOM     36  C   UNL     1       4.387  -5.722  27.417  0.00  0.00    +0.078 A 
ATOM     37  C   UNL     1       5.469  -5.022  28.008  0.00  0.00    +0.017 A 
ATOM     38  C   UNL     1       6.608  -4.658  27.261  0.00  0.00    +0.004 A 
BRANCH  35  39
ATOM     39  P   UNL     1       3.451  -7.322  25.422  0.00  0.00    +0.359 P 
ATOM     40  O   UNL     1       2.626  -8.485  24.818  0.00  0.00    -0.253 OA
BRANCH  39  41
ATOM     41  O   UNL     1       4.492  -7.412  24.147  0.00  0.00    -0.321 OA
ATOM     42  H   UNL     1       3.964  -7.762  23.404  0.00  0.00    +0.220 HD
ENDBRANCH  39  41
BRANCH  39  43
ATOM     43  O   UNL     1       2.387  -6.197  24.849  0.00  0.00    -0.321 OA
ATOM     44  H   UNL     1       2.393  -5.432  25.451  0.00  0.00    +0.220 HD
ENDBRANCH  39  43
ENDBRANCH  35  39
BRANCH  36  45
ATOM     45  P   UNL     1       3.345  -6.766  28.500  0.00  0.00    +0.359 P 
ATOM     46  O   UNL     1       2.463  -7.649  29.416  0.00  0.00    -0.253 OA
BRANCH  45  47
ATOM     47  O   UNL     1       3.334  -5.595  29.645  0.00  0.00    -0.321 OA
ATOM     48  H   UNL     1       3.478  -6.053  30.501  0.00  0.00    +0.220 HD
ENDBRANCH  45  47
BRANCH  45  49
ATOM     49  O   UNL     1       4.727  -7.547  28.947  0.00  0.00    -0.321 OA
ATOM     50  H   UNL     1       4.940  -8.286  28.344  0.00  0.00    +0.220 HD
ENDBRANCH  45  49
ENDBRANCH  36  45
ENDBRANCH  32  33
ENDBRANCH   1  32
TORSDOF 14
ENDMDL
MODEL 3
REMARK VINA RESULT:      -7.8      2.776      4.658
REMARK  Name = 
REMARK  15 active torsions:
REMARK  status: ('A' for Active; 'I' for Inactive)
REMARK    1  A    between atoms: C_1  and  C_2
REMARK    2  A    between atoms: N_4  and  C_5
REMARK    3  A    between atoms: C_5  and  C_7
REMARK    4  A    between atoms: C_5  and  C_22
REMARK    5  A    between atoms: C_7  and  C_8
REMARK    6  A    between atoms: C_11  and  P_18
REMARK    7  A    between atoms: C_12  and  P_14
REMARK    8  A    between atoms: P_14  and  O_15
REMARK    9  A    between atoms: P_14  and  O_16
REMARK   10  A    between atoms: P_18  and  O_19
REMARK   11  A    between atoms: P_18  and  O_20
REMARK   12  A    between atoms: N_24  and  C_25
REMARK   13  A    between atoms: N_31  and  C_32
REMARK   14  A    between atoms: C_32  and  C_33
REMARK   15  A    between atoms: C_36  and  C_39
REMARK                            x       y       z     vdW  Elec       q    Type
REMARK                         _______ _______ _______ _____ _____    ______ ____
ROOT
ATOM      1  C   UNL     1       6.197  -5.169  23.291  0.00  0.00    +0.163 C 
ENDROOT
BRANCH   1   4
ATOM      2  C   UNL     1       9.492  -4.933  25.200  0.00  0.00    +0.109 C 
ATOM      3  C   UNL     1       8.482  -4.610  24.144  0.00  0.00    +0.211 C 
ATOM      4  N   UNL     1       7.287  -5.257  24.297  0.00  0.00    -0.304 N 
ATOM      5  H   UNL     1       7.003  -5.602  25.207  0.00  0.00    +0.149 HD
ATOM      6  O   UNL     1       8.711  -3.828  23.220  0.00  0.00    -0.276 OA
ENDBRANCH   1   4
BRANCH   1   7
ATOM      7  C   UNL     1       5.552  -3.776  23.354  0.00  0.00    +0.234 C 
ATOM      8  N   UNL     1       5.382  -3.036  24.470  0.00  0.00    -0.302 N 
ATOM      9  H   UNL     1       4.781  -2.248  24.257  0.00  0.00    +0.150 HD
ATOM     10  O   UNL     1       5.035  -3.306  22.326  0.00  0.00    -0.274 OA
BRANCH   8  11
ATOM     11  C   UNL     1       5.983  -2.921  25.825  0.00  0.00    +0.159 C 
ATOM     12  C   UNL     1       6.829  -1.636  25.928  0.00  0.00    +0.236 C 
ATOM     13  O   UNL     1       7.631  -1.413  26.832  0.00  0.00    -0.274 OA
ATOM     14  N   UNL     1       6.325  -0.640  25.110  0.00  0.00    -0.296 N 
ATOM     15  C   UNL     1       5.344   0.294  25.638  0.00  0.00    +0.108 C 
ATOM     16  C   UNL     1       4.345  -0.264  26.682  0.00  0.00    +0.019 C 
ATOM     17  C   UNL     1       3.850  -1.718  26.582  0.00  0.00    +0.004 C 
ATOM     18  C   UNL     1       4.894  -2.805  26.888  0.00  0.00    +0.032 C 
BRANCH  14  19
ATOM     19  C   UNL     1       6.940  -0.462  23.798  0.00  0.00    +0.143 C 
BRANCH  19  20
ATOM     20  C   UNL     1       7.968   0.624  23.652  0.00  0.00    -0.030 A 
ATOM     21  C   UNL     1       7.599   1.792  22.971  0.00  0.00    +0.006 A 
ATOM     22  C   UNL     1       8.475   2.872  22.881  0.00  0.00    +0.009 A 
ATOM     23  C   UNL     1       9.744   2.833  23.478  0.00  0.00    -0.018 A 
ATOM     24  C   UNL     1      10.163   1.601  24.012  0.00  0.00    +0.009 A 
ATOM     25  C   UNL     1       9.288   0.506  24.092  0.00  0.00    +0.006 A 
BRANCH  23  26
ATOM     26  C   UNL     1      10.536   4.074  23.648  0.00  0.00    -0.018 A 
ATOM     27  C   UNL     1       9.939   5.208  24.240  0.00  0.00    +0.008 A 
ATOM     28  C   UNL     1      10.666   6.368  24.511  0.00  0.00    +0.001 A 
ATOM     29  C   UNL     1      12.018   6.423  24.201  0.00  0.00    +0.000 A 
ATOM     30  C   UNL     1      12.634   5.322  23.608  0.00  0.00    +0.001 A 
ATOM     31  C   UNL     1      11.899   4.161  23.328  0.00  0.00    +0.008 A 
ENDBRANCH  23  26
ENDBRANCH  19  20
ENDBRANCH  14  19
ENDBRANCH   8  11
ENDBRANCH   1   7
BRANCH   1  32
ATOM     32  C   UNL     1       5.229  -6.326  23.420  0.00  0.00    +0.067 C 
BRANCH  32  33
ATOM     33  C   UNL     1       4.304  -6.401  24.612  0.00  0.00    -0.044 A 
ATOM     34  C   UNL     1       4.946  -6.732  25.794  0.00  0.00    +0.020 A 
ATOM     35  C   UNL     1       4.356  -6.526  27.058  0.00  0.00    +0.078 A 
ATOM     36  C   UNL     1       3.114  -6.157  27.168  0.00  0.00    +0.078 A 
ATOM     37  C   UNL     1       2.370  -5.943  25.981  0.00  0.00    +0.017 A 
ATOM     38  C   UNL     1       2.970  -6.032  24.708  0.00  0.00    +0.004 A 
BRANCH  35  39
ATOM     39  P   UNL     1       5.525  -6.225  28.433  0.00  0.00    +0.359 P 
ATOM     40  O   UNL     1       6.514  -5.970  29.597  0.00  0.00    -0.253 OA
BRANCH  39  41
ATOM     41  O   UNL     1       6.740  -5.945  27.355  0.00  0.00    -0.321 OA
ATOM     42  H   UNL     1       6.446  -6.356  26.519  0.00  0.00    +0.220 HD
ENDBRANCH  39  41
BRANCH  39  43
ATOM     43  O   UNL     1       5.661  -7.862  28.605  0.00  0.00    -0.321 OA
ATOM     44  H   UNL     1       6.424  -8.165  28.081  0.00  0.00    +0.220 HD
ENDBRANCH  39  43
ENDBRANCH  35  39
BRANCH  36  45
ATOM     45  P   UNL     1       2.533  -5.350  28.704  0.00  0.00    +0.359 P 
ATOM     46  O   UNL     1       2.041  -4.667  30.004  0.00  0.00    -0.253 OA
BRANCH  45  47
ATOM     47  O   UNL     1       1.952  -6.778  29.253  0.00  0.00    -0.321 OA
ATOM     48  H   UNL     1       2.737  -7.321  29.480  0.00  0.00    +0.220 HD
ENDBRANCH  45  47
BRANCH  45  49
ATOM     49  O   UNL     1       1.214  -4.848  27.850  0.00  0.00    -0.321 OA
ATOM     50  H   UNL     1       1.409  -4.755  26.896  0.00  0.00    +0.220 HD
ENDBRANCH  45  49
ENDBRANCH  36  45
ENDBRANCH  32  33
ENDBRANCH   1  32
TORSDOF 14
ENDMDL
MODEL 4
REMARK VINA RESULT:      -7.8      2.936      8.876
REMARK  Name = 
REMARK  15 active torsions:
REMARK  status: ('A' for Active; 'I' for Inactive)
REMARK    1  A    between atoms: C_1  and  C_2
REMARK    2  A    between atoms: N_4  and  C_5
REMARK    3  A    between atoms: C_5  and  C_7
REMARK    4  A    between atoms: C_5  and  C_22
REMARK    5  A    between atoms: C_7  and  C_8
REMARK    6  A    between atoms: C_11  and  P_18
REMARK    7  A    between atoms: C_12  and  P_14
REMARK    8  A    between atoms: P_14  and  O_15
REMARK    9  A    between atoms: P_14  and  O_16
REMARK   10  A    between atoms: P_18  and  O_19
REMARK   11  A    between atoms: P_18  and  O_20
REMARK   12  A    between atoms: N_24  and  C_25
REMARK   13  A    between atoms: N_31  and  C_32
REMARK   14  A    between atoms: C_32  and  C_33
REMARK   15  A    between atoms: C_36  and  C_39
REMARK                            x       y       z     vdW  Elec       q    Type
REMARK                         _______ _______ _______ _____ _____    ______ ____
ROOT
ATOM      1  C   UNL     1       8.877   0.365  24.879  0.00  0.00    +0.163 C 
ENDROOT
BRANCH   1   4
ATOM      2  C   UNL     1       9.759   3.999  24.125  0.00  0.00    +0.109 C 
ATOM      3  C   UNL     1       8.918   2.763  24.165  0.00  0.00    +0.211 C 
ATOM      4  N   UNL     1       9.493   1.717  24.831  0.00  0.00    -0.304 N 
ATOM      5  H   UNL     1      10.214   1.884  25.524  0.00  0.00    +0.149 HD
ATOM      6  O   UNL     1       7.804   2.699  23.643  0.00  0.00    -0.276 OA
ENDBRANCH   1   4
BRANCH   1   7
ATOM      7  C   UNL     1       8.457   0.044  26.321  0.00  0.00    +0.234 C 
ATOM      8  N   UNL     1       7.463   0.650  27.006  0.00  0.00    -0.302 N 
ATOM      9  H   UNL     1       7.513   0.373  27.980  0.00  0.00    +0.150 HD
ATOM     10  O   UNL     1       9.135  -0.761  26.981  0.00  0.00    -0.274 OA
BRANCH   8  11
ATOM     11  C   UNL     1       6.218   1.408  26.713  0.00  0.00    +0.159 C 
ATOM     12  C   UNL     1       5.021   0.443  26.583  0.00  0.00    +0.236 C 
ATOM     13  O   UNL     1       3.935   0.758  26.105  0.00  0.00    -0.274 OA
ATOM     14  N   UNL     1       5.194  -0.675  27.379  0.00  0.00    -0.296 N 
ATOM     15  C   UNL     1       4.689  -0.670  28.742  0.00  0.00    +0.108 C 
ATOM     16  C   UNL     1       4.733   0.682  29.495  0.00  0.00    +0.019 C 
ATOM     17  C   UNL     1       5.880   1.676  29.239  0.00  0.00    +0.004 C 
ATOM     18  C   UNL     1       5.883   2.357  27.860  0.00  0.00    +0.032 C 
BRANCH  14  19
ATOM     19  C   UNL     1       5.723  -1.882  26.751  0.00  0.00    +0.143 C 
BRANCH  19  20
ATOM     20  C   UNL     1       4.754  -2.989  26.443  0.00  0.00    -0.030 A 
ATOM     21  C   UNL     1       3.941  -2.855  25.309  0.00  0.00    +0.006 A 
ATOM     22  C   UNL     1       3.088  -3.886  24.918  0.00  0.00    +0.009 A 
ATOM     23  C   UNL     1       3.025  -5.091  25.634  0.00  0.00    -0.018 A 
ATOM     24  C   UNL     1       3.718  -5.147  26.856  0.00  0.00    +0.009 A 
ATOM     25  C   UNL     1       4.567  -4.105  27.261  0.00  0.00    +0.006 A 
BRANCH  23  26
ATOM     26  C   UNL     1       2.365  -6.281  25.047  0.00  0.00    -0.018 A 
ATOM     27  C   UNL     1       1.576  -6.142  23.885  0.00  0.00    +0.008 A 
ATOM     28  C   UNL     1       1.013  -7.243  23.238  0.00  0.00    +0.001 A 
ATOM     29  C   UNL     1       1.232  -8.521  23.736  0.00  0.00    +0.000 A 
ATOM     30  C   UNL     1       2.000  -8.690  24.886  0.00  0.00    +0.001 A 
ATOM     31  C   UNL     1       2.557  -7.581  25.539  0.00  0.00    +0.008 A 
ENDBRANCH  23  26
ENDBRANCH  19  20
ENDBRANCH  14  19
ENDBRANCH   8  11
ENDBRANCH   1   7
BRANCH   1  32
ATOM     32  C   UNL     1       9.766  -0.673  24.229  0.00  0.00    +0.067 C 
BRANCH  32  33
ATOM     33  C   UNL     1       9.152  -1.911  23.619  0.00  0.00    -0.044 A 
ATOM     34  C   UNL     1       9.219  -3.027  24.437  0.00  0.00    +0.020 A 
ATOM     35  C   UNL     1       8.425  -4.172  24.223  0.00  0.00    +0.078 A 
ATOM     36  C   UNL     1       7.700  -4.294  23.150  0.00  0.00    +0.078 A 
ATOM     37  C   UNL     1       7.709  -3.235  22.209  0.00  0.00    +0.017 A 
ATOM     38  C   UNL     1       8.405  -2.034  22.456  0.00  0.00    +0.004 A 
BRANCH  35  39
ATOM     39  P   UNL     1       8.013  -5.138  25.721  0.00  0.00    +0.359 P 
ATOM     40  O   UNL     1       7.664  -5.956  26.988  0.00  0.00    -0.253 OA
BRANCH  39  41
ATOM     41  O   UNL     1       8.475  -3.876  26.675  0.00  0.00    -0.321 OA
ATOM     42  H   UNL     1       9.233  -4.206  27.194  0.00  0.00    +0.220 HD
ENDBRANCH  39  41
BRANCH  39  43
ATOM     43  O   UNL     1       9.459  -5.917  25.550  0.00  0.00    -0.321 OA
ATOM     44  H   UNL     1       9.292  -6.875  25.528  0.00  0.00    +0.220 HD
ENDBRANCH  39  43
ENDBRANCH  35  39
BRANCH  36  45
ATOM     45  P   UNL     1       6.277  -5.445  23.135  0.00  0.00    +0.359 P 
ATOM     46  O   UNL     1       5.073  -6.419  23.123  0.00  0.00    -0.253 OA
BRANCH  45  47
ATOM     47  O   UNL     1       6.977  -6.321  21.943  0.00  0.00    -0.321 OA
ATOM     48  H   UNL     1       7.585  -5.707  21.477  0.00  0.00    +0.220 HD
ENDBRANCH  45  47
BRANCH  45  49
ATOM     49  O   UNL     1       5.487  -4.334  22.207  0.00  0.00    -0.321 OA
ATOM     50  H   UNL     1       5.300  -3.511  22.700  0.00  0.00    +0.220 HD
ENDBRANCH  45  49
ENDBRANCH  36  45
ENDBRANCH  32  33
ENDBRANCH   1  32
TORSDOF 14
ENDMDL
MODEL 5
REMARK VINA RESULT:      -7.6      2.447      6.119
REMARK  Name = 
REMARK  15 active torsions:
REMARK  status: ('A' for Active; 'I' for Inactive)
REMARK    1  A    between atoms: C_1  and  C_2
REMARK    2  A    between atoms: N_4  and  C_5
REMARK    3  A    between atoms: C_5  and  C_7
REMARK    4  A    between atoms: C_5  and  C_22
REMARK    5  A    between atoms: C_7  and  C_8
REMARK    6  A    between atoms: C_11  and  P_18
REMARK    7  A    between atoms: C_12  and  P_14
REMARK    8  A    between atoms: P_14  and  O_15
REMARK    9  A    between atoms: P_14  and  O_16
REMARK   10  A    between atoms: P_18  and  O_19
REMARK   11  A    between atoms: P_18  and  O_20
REMARK   12  A    between atoms: N_24  and  C_25
REMARK   13  A    between atoms: N_31  and  C_32
REMARK   14  A    between atoms: C_32  and  C_33
REMARK   15  A    between atoms: C_36  and  C_39
REMARK                            x       y       z     vdW  Elec       q    Type
REMARK                         _______ _______ _______ _____ _____    ______ ____
ROOT
ATOM      1  C   UNL     1       7.442  -4.387  24.062  0.00  0.00    +0.163 C 
ENDROOT
BRANCH   1   4
ATOM      2  C   UNL     1       6.332  -5.859  20.722  0.00  0.00    +0.109 C 
ATOM      3  C   UNL     1       6.404  -4.863  21.836  0.00  0.00    +0.211 C 
ATOM      4  N   UNL     1       7.306  -5.180  22.812  0.00  0.00    -0.304 N 
ATOM      5  H   UNL     1       8.083  -5.799  22.611  0.00  0.00    +0.149 HD
ATOM      6  O   UNL     1       5.709  -3.845  21.864  0.00  0.00    -0.276 OA
ENDBRANCH   1   4
BRANCH   1   7
ATOM      7  C   UNL     1       8.720  -3.537  23.993  0.00  0.00    +0.234 C 
ATOM      8  N   UNL     1       8.859  -2.376  23.318  0.00  0.00    -0.302 N 
ATOM      9  H   UNL     1       9.840  -2.120  23.296  0.00  0.00    +0.150 HD
ATOM     10  O   UNL     1       9.764  -3.978  24.503  0.00  0.00    -0.274 OA
BRANCH   8  11
ATOM     11  C   UNL     1       7.993  -1.283  22.804  0.00  0.00    +0.159 C 
ATOM     12  C   UNL     1       7.716  -0.251  23.916  0.00  0.00    +0.236 C 
ATOM     13  O   UNL     1       6.843   0.610  23.852  0.00  0.00    -0.274 OA
ATOM     14  N   UNL     1       8.775  -0.181  24.804  0.00  0.00    -0.296 N 
ATOM     15  C   UNL     1       9.847   0.772  24.569  0.00  0.00    +0.108 C 
ATOM     16  C   UNL     1      10.214   1.054  23.091  0.00  0.00    +0.019 C 
ATOM     17  C   UNL     1      10.116  -0.066  22.040  0.00  0.00    +0.004 C 
ATOM     18  C   UNL     1       8.693  -0.526  21.679  0.00  0.00    +0.032 C 
BRANCH  14  19
ATOM     19  C   UNL     1       8.675  -0.948  26.043  0.00  0.00    +0.143 C 
BRANCH  19  20
ATOM     20  C   UNL     1       7.340  -0.988  26.732  0.00  0.00    -0.030 A 
ATOM     21  C   UNL     1       6.949   0.135  27.474  0.00  0.00    +0.006 A 
ATOM     22  C   UNL     1       5.686   0.197  28.061  0.00  0.00    +0.009 A 
ATOM     23  C   UNL     1       4.763  -0.850  27.917  0.00  0.00    -0.018 A 
ATOM     24  C   UNL     1       5.226  -2.033  27.314  0.00  0.00    +0.009 A 
ATOM     25  C   UNL     1       6.503  -2.105  26.735  0.00  0.00    +0.006 A 
BRANCH  23  26
ATOM     26  C   UNL     1       3.337  -0.650  28.268  0.00  0.00    -0.018 A 
ATOM     27  C   UNL     1       2.364  -1.542  27.771  0.00  0.00    +0.008 A 
ATOM     28  C   UNL     1       1.023  -1.457  28.149  0.00  0.00    +0.001 A 
ATOM     29  C   UNL     1       0.620  -0.476  29.044  0.00  0.00    +0.000 A 
ATOM     30  C   UNL     1       1.557   0.425  29.547  0.00  0.00    +0.001 A 
ATOM     31  C   UNL     1       2.902   0.342  29.159  0.00  0.00    +0.008 A 
ENDBRANCH  23  26
ENDBRANCH  19  20
ENDBRANCH  14  19
ENDBRANCH   8  11
ENDBRANCH   1   7
BRANCH   1  32
ATOM     32  C   UNL     1       7.326  -5.264  25.290  0.00  0.00    +0.067 C 
BRANCH  32  33
ATOM     33  C   UNL     1       5.963  -5.574  25.864  0.00  0.00    -0.044 A 
ATOM     34  C   UNL     1       4.914  -5.194  25.044  0.00  0.00    +0.020 A 
ATOM     35  C   UNL     1       3.603  -5.685  25.216  0.00  0.00    +0.078 A 
ATOM     36  C   UNL     1       3.285  -6.402  26.253  0.00  0.00    +0.078 A 
ATOM     37  C   UNL     1       4.297  -6.699  27.199  0.00  0.00    +0.017 A 
ATOM     38  C   UNL     1       5.638  -6.316  26.991  0.00  0.00    +0.004 A 
BRANCH  35  39
ATOM     39  P   UNL     1       2.590  -5.776  23.695  0.00  0.00    +0.359 P 
ATOM     40  O   UNL     1       1.732  -5.854  22.408  0.00  0.00    -0.253 OA
BRANCH  39  41
ATOM     41  O   UNL     1       3.582  -6.946  23.091  0.00  0.00    -0.321 OA
ATOM     42  H   UNL     1       3.411  -6.962  22.130  0.00  0.00    +0.220 HD
ENDBRANCH  39  41
BRANCH  39  43
ATOM     43  O   UNL     1       3.373  -4.425  23.157  0.00  0.00    -0.321 OA
ATOM     44  H   UNL     1       3.206  -3.701  23.785  0.00  0.00    +0.220 HD
ENDBRANCH  39  43
ENDBRANCH  35  39
BRANCH  36  45
ATOM     45  P   UNL     1       1.815  -7.491  26.196  0.00  0.00    +0.359 P 
ATOM     46  O   UNL     1       0.572  -8.412  26.148  0.00  0.00    -0.253 OA
BRANCH  45  47
ATOM     47  O   UNL     1       1.999  -7.848  27.783  0.00  0.00    -0.321 OA
ATOM     48  H   UNL     1       1.743  -7.037  28.274  0.00  0.00    +0.220 HD
ENDBRANCH  45  47
BRANCH  45  49
ATOM     49  O   UNL     1       2.796  -8.653  25.558  0.00  0.00    -0.321 OA
ATOM     50  H   UNL     1       2.512  -8.919  24.661  0.00  0.00    +0.220 HD
ENDBRANCH  45  49
ENDBRANCH  36  45
ENDBRANCH  32  33
ENDBRANCH   1  32
TORSDOF 14
ENDMDL
MODEL 6
REMARK VINA RESULT:      -7.6      3.174      6.402
REMARK  Name = 
REMARK  15 active torsions:
REMARK  status: ('A' for Active; 'I' for Inactive)
REMARK    1  A    between atoms: C_1  and  C_2
REMARK    2  A    between atoms: N_4  and  C_5
REMARK    3  A    between atoms: C_5  and  C_7
REMARK    4  A    between atoms: C_5  and  C_22
REMARK    5  A    between atoms: C_7  and  C_8
REMARK    6  A    between atoms: C_11  and  P_18
REMARK    7  A    between atoms: C_12  and  P_14
REMARK    8  A    between atoms: P_14  and  O_15
REMARK    9  A    between atoms: P_14  and  O_16
REMARK   10  A    between atoms: P_18  and  O_19
REMARK   11  A    between atoms: P_18  and  O_20
REMARK   12  A    between atoms: N_24  and  C_25
REMARK   13  A    between atoms: N_31  and  C_32
REMARK   14  A    between atoms: C_32  and  C_33
REMARK   15  A    between atoms: C_36  and  C_39
REMARK                            x       y       z     vdW  Elec       q    Type
REMARK                         _______ _______ _______ _____ _____    ______ ____
ROOT
ATOM      1  C   UNL     1       3.648  -6.575  24.138  0.00  0.00    +0.163 C 
ENDROOT
BRANCH   1   4
ATOM      2  C   UNL     1       0.835  -8.704  22.687  0.00  0.00    +0.109 C 
ATOM      3  C   UNL     1       1.903  -8.300  23.654  0.00  0.00    +0.211 C 
ATOM      4  N   UNL     1       2.486  -7.097  23.373  0.00  0.00    -0.304 N 
ATOM      5  H   UNL     1       1.997  -6.407  22.814  0.00  0.00    +0.149 HD
ATOM      6  O   UNL     1       2.223  -8.996  24.620  0.00  0.00    -0.276 OA
ENDBRANCH   1   4
BRANCH   1   7
ATOM      7  C   UNL     1       3.254  -5.267  24.841  0.00  0.00    +0.234 C 
ATOM      8  N   UNL     1       3.589  -4.918  26.102  0.00  0.00    -0.302 N 
ATOM      9  H   UNL     1       3.059  -4.097  26.371  0.00  0.00    +0.150 HD
ATOM     10  O   UNL     1       2.472  -4.489  24.270  0.00  0.00    -0.274 OA
BRANCH   8  11
ATOM     11  C   UNL     1       4.640  -5.246  27.100  0.00  0.00    +0.159 C 
ATOM     12  C   UNL     1       5.587  -4.044  27.295  0.00  0.00    +0.236 C 
ATOM     13  O   UNL     1       6.675  -4.113  27.860  0.00  0.00    -0.274 OA
ATOM     14  N   UNL     1       4.922  -2.849  27.091  0.00  0.00    -0.296 N 
ATOM     15  C   UNL     1       4.287  -2.179  28.214  0.00  0.00    +0.108 C 
ATOM     16  C   UNL     1       3.677  -3.087  29.310  0.00  0.00    +0.019 C 
ATOM     17  C   UNL     1       3.043  -4.438  28.933  0.00  0.00    +0.004 C 
ATOM     18  C   UNL     1       4.018  -5.531  28.464  0.00  0.00    +0.032 C 
BRANCH  14  19
ATOM     19  C   UNL     1       5.042  -2.220  25.778  0.00  0.00    +0.143 C 
BRANCH  19  20
ATOM     20  C   UNL     1       5.966  -1.041  25.653  0.00  0.00    -0.030 A 
ATOM     21  C   UNL     1       6.037  -0.389  24.415  0.00  0.00    +0.006 A 
ATOM     22  C   UNL     1       6.803   0.765  24.259  0.00  0.00    +0.009 A 
ATOM     23  C   UNL     1       7.515   1.317  25.334  0.00  0.00    -0.018 A 
ATOM     24  C   UNL     1       7.569   0.565  26.521  0.00  0.00    +0.009 A 
ATOM     25  C   UNL     1       6.810  -0.605  26.677  0.00  0.00    +0.006 A 
BRANCH  23  26
ATOM     26  C   UNL     1       8.064   2.691  25.247  0.00  0.00    -0.018 A 
ATOM     27  C   UNL     1       9.068   2.984  24.299  0.00  0.00    +0.008 A 
ATOM     28  C   UNL     1       9.549   4.280  24.110  0.00  0.00    +0.001 A 
ATOM     29  C   UNL     1       9.031   5.325  24.863  0.00  0.00    +0.000 A 
ATOM     30  C   UNL     1       8.044   5.066  25.812  0.00  0.00    +0.001 A 
ATOM     31  C   UNL     1       7.569   3.762  26.007  0.00  0.00    +0.008 A 
ENDBRANCH  23  26
ENDBRANCH  19  20
ENDBRANCH  14  19
ENDBRANCH   8  11
ENDBRANCH   1   7
BRANCH   1  32
ATOM     32  C   UNL     1       4.886  -6.483  23.272  0.00  0.00    +0.067 C 
BRANCH  32  33
ATOM     33  C   UNL     1       5.708  -5.215  23.270  0.00  0.00    -0.044 A 
ATOM     34  C   UNL     1       6.644  -5.156  24.289  0.00  0.00    +0.020 A 
ATOM     35  C   UNL     1       7.724  -4.250  24.273  0.00  0.00    +0.078 A 
ATOM     36  C   UNL     1       7.805  -3.317  23.371  0.00  0.00    +0.078 A 
ATOM     37  C   UNL     1       6.788  -3.247  22.385  0.00  0.00    +0.017 A 
ATOM     38  C   UNL     1       5.762  -4.211  22.313  0.00  0.00    +0.004 A 
BRANCH  35  39
ATOM     39  P   UNL     1       9.229  -4.801  25.156  0.00  0.00    +0.359 P 
ATOM     40  O   UNL     1      10.503  -5.267  25.902  0.00  0.00    -0.253 OA
BRANCH  39  41
ATOM     41  O   UNL     1       8.368  -5.990  25.904  0.00  0.00    -0.321 OA
ATOM     42  H   UNL     1       8.922  -6.280  26.654  0.00  0.00    +0.220 HD
ENDBRANCH  39  41
BRANCH  39  43
ATOM     43  O   UNL     1       8.994  -3.559  26.219  0.00  0.00    -0.321 OA
ATOM     44  H   UNL     1       9.234  -3.867  27.111  0.00  0.00    +0.220 HD
ENDBRANCH  39  43
ENDBRANCH  35  39
BRANCH  36  45
ATOM     45  P   UNL     1       9.421  -2.545  22.995  0.00  0.00    +0.359 P 
ATOM     46  O   UNL     1      10.789  -1.892  22.678  0.00  0.00    -0.253 OA
BRANCH  45  47
ATOM     47  O   UNL     1       9.258  -1.542  24.278  0.00  0.00    -0.321 OA
ATOM     48  H   UNL     1       8.295  -1.496  24.466  0.00  0.00    +0.220 HD
ENDBRANCH  45  47
BRANCH  45  49
ATOM     49  O   UNL     1       8.638  -1.639  21.861  0.00  0.00    -0.321 OA
ATOM     50  H   UNL     1       8.288  -0.807  22.235  0.00  0.00    +0.220 HD
ENDBRANCH  45  49
ENDBRANCH  36  45
ENDBRANCH  32  33
ENDBRANCH   1  32
TORSDOF 14
ENDMDL
MODEL 7
REMARK VINA RESULT:      -7.6      4.177      6.874
REMARK  Name = 
REMARK  15 active torsions:
REMARK  status: ('A' for Active; 'I' for Inactive)
REMARK    1  A    between atoms: C_1  and  C_2
REMARK    2  A    between atoms: N_4  and  C_5
REMARK    3  A    between atoms: C_5  and  C_7
REMARK    4  A    between atoms: C_5  and  C_22
REMARK    5  A    between atoms: C_7  and  C_8
REMARK    6  A    between atoms: C_11  and  P_18
REMARK    7  A    between atoms: C_12  and  P_14
REMARK    8  A    between atoms: P_14  and  O_15
REMARK    9  A    between atoms: P_14  and  O_16
REMARK   10  A    between atoms: P_18  and  O_19
REMARK   11  A    between atoms: P_18  and  O_20
REMARK   12  A    between atoms: N_24  and  C_25
REMARK   13  A    between atoms: N_31  and  C_32
REMARK   14  A    between atoms: C_32  and  C_33
REMARK   15  A    between atoms: C_36  and  C_39
REMARK                            x       y       z     vdW  Elec       q    Type
REMARK                         _______ _______ _______ _____ _____    ______ ____
ROOT
ATOM      1  C   UNL     1       4.529  -2.173  26.862  0.00  0.00    +0.163 C 
ENDROOT
BRANCH   1   4
ATOM      2  C   UNL     1       0.772  -2.565  27.398  0.00  0.00    +0.109 C 
ATOM      3  C   UNL     1       2.047  -1.889  27.004  0.00  0.00    +0.211 C 
ATOM      4  N   UNL     1       3.153  -2.687  27.090  0.00  0.00    -0.304 N 
ATOM      5  H   UNL     1       3.062  -3.696  27.055  0.00  0.00    +0.149 HD
ATOM      6  O   UNL     1       2.091  -0.714  26.634  0.00  0.00    -0.276 OA
ENDBRANCH   1   4
BRANCH   1   7
ATOM      7  C   UNL     1       5.447  -3.332  26.446  0.00  0.00    +0.234 C 
ATOM      8  N   UNL     1       5.611  -3.795  25.188  0.00  0.00    -0.302 N 
ATOM      9  H   UNL     1       6.130  -4.665  25.220  0.00  0.00    +0.150 HD
ATOM     10  O   UNL     1       6.022  -3.992  27.328  0.00  0.00    -0.274 OA
BRANCH   8  11
ATOM     11  C   UNL     1       5.450  -3.300  23.796  0.00  0.00    +0.159 C 
ATOM     12  C   UNL     1       6.812  -3.284  23.072  0.00  0.00    +0.236 C 
ATOM     13  O   UNL     1       7.019  -2.697  22.014  0.00  0.00    -0.274 OA
ATOM     14  N   UNL     1       7.643  -4.280  23.552  0.00  0.00    -0.296 N 
ATOM     15  C   UNL     1       7.634  -5.589  22.921  0.00  0.00    +0.108 C 
ATOM     16  C   UNL     1       6.276  -6.083  22.364  0.00  0.00    +0.019 C 
ATOM     17  C   UNL     1       4.964  -5.712  23.078  0.00  0.00    +0.004 C 
ATOM     18  C   UNL     1       4.548  -4.234  22.994  0.00  0.00    +0.032 C 
BRANCH  14  19
ATOM     19  C   UNL     1       8.628  -3.913  24.566  0.00  0.00    +0.143 C 
BRANCH  19  20
ATOM     20  C   UNL     1       9.015  -2.464  24.669  0.00  0.00    -0.030 A 
ATOM     21  C   UNL     1       9.942  -1.963  23.747  0.00  0.00    +0.006 A 
ATOM     22  C   UNL     1      10.273  -0.609  23.731  0.00  0.00    +0.009 A 
ATOM     23  C   UNL     1       9.681   0.296  24.624  0.00  0.00    -0.018 A 
ATOM     24  C   UNL     1       8.882  -0.244  25.647  0.00  0.00    +0.009 A 
ATOM     25  C   UNL     1       8.558  -1.610  25.675  0.00  0.00    +0.006 A 
BRANCH  23  26
ATOM     26  C   UNL     1       9.795   1.757  24.403  0.00  0.00    -0.018 A 
ATOM     27  C   UNL     1      10.905   2.272  23.699  0.00  0.00    +0.008 A 
ATOM     28  C   UNL     1      11.012   3.626  23.379  0.00  0.00    +0.001 A 
ATOM     29  C   UNL     1      10.003   4.505  23.751  0.00  0.00    +0.000 A 
ATOM     30  C   UNL     1       8.898   4.027  24.453  0.00  0.00    +0.001 A 
ATOM     31  C   UNL     1       8.797   2.668  24.781  0.00  0.00    +0.008 A 
ENDBRANCH  23  26
ENDBRANCH  19  20
ENDBRANCH  14  19
ENDBRANCH   8  11
ENDBRANCH   1   7
BRANCH   1  32
ATOM     32  C   UNL     1       5.021  -1.363  28.042  0.00  0.00    +0.067 C 
BRANCH  32  33
ATOM     33  C   UNL     1       5.680  -0.023  27.811  0.00  0.00    -0.044 A 
ATOM     34  C   UNL     1       5.362   0.550  26.591  0.00  0.00    +0.020 A 
ATOM     35  C   UNL     1       5.580   1.916  26.317  0.00  0.00    +0.078 A 
ATOM     36  C   UNL     1       6.235   2.672  27.148  0.00  0.00    +0.078 A 
ATOM     37  C   UNL     1       6.707   2.092  28.352  0.00  0.00    +0.017 A 
ATOM     38  C   UNL     1       6.404   0.760  28.699  0.00  0.00    +0.004 A 
BRANCH  35  39
ATOM     39  P   UNL     1       4.436   2.669  25.104  0.00  0.00    +0.359 P 
ATOM     40  O   UNL     1       3.468   3.306  24.077  0.00  0.00    -0.253 OA
BRANCH  39  41
ATOM     41  O   UNL     1       3.172   1.844  25.767  0.00  0.00    -0.321 OA
ATOM     42  H   UNL     1       2.387   2.404  25.612  0.00  0.00    +0.220 HD
ENDBRANCH  39  41
BRANCH  39  43
ATOM     43  O   UNL     1       4.961   1.557  24.001  0.00  0.00    -0.321 OA
ATOM     44  H   UNL     1       4.777   1.898  23.108  0.00  0.00    +0.220 HD
ENDBRANCH  39  43
ENDBRANCH  35  39
BRANCH  36  45
ATOM     45  P   UNL     1       6.024   4.488  27.094  0.00  0.00    +0.359 P 
ATOM     46  O   UNL     1       5.845   6.026  27.048  0.00  0.00    -0.253 OA
BRANCH  45  47
ATOM     47  O   UNL     1       7.488   4.695  27.797  0.00  0.00    -0.321 OA
ATOM     48  H   UNL     1       7.941   3.827  27.739  0.00  0.00    +0.220 HD
ENDBRANCH  45  47
BRANCH  45  49
ATOM     49  O   UNL     1       5.104   4.345  28.455  0.00  0.00    -0.321 OA
ATOM     50  H   UNL     1       5.576   3.871  29.168  0.00  0.00    +0.220 HD
ENDBRANCH  45  49
ENDBRANCH  36  45
ENDBRANCH  32  33
ENDBRANCH   1  32
TORSDOF 14
ENDMDL
MODEL 8
REMARK VINA RESULT:      -7.5      1.923      3.401
REMARK  Name = 
REMARK  15 active torsions:
REMARK  status: ('A' for Active; 'I' for Inactive)
REMARK    1  A    between atoms: C_1  and  C_2
REMARK    2  A    between atoms: N_4  and  C_5
REMARK    3  A    between atoms: C_5  and  C_7
REMARK    4  A    between atoms: C_5  and  C_22
REMARK    5  A    between atoms: C_7  and  C_8
REMARK    6  A    between atoms: C_11  and  P_18
REMARK    7  A    between atoms: C_12  and  P_14
REMARK    8  A    between atoms: P_14  and  O_15
REMARK    9  A    between atoms: P_14  and  O_16
REMARK   10  A    between atoms: P_18  and  O_19
REMARK   11  A    between atoms: P_18  and  O_20
REMARK   12  A    between atoms: N_24  and  C_25
REMARK   13  A    between atoms: N_31  and  C_32
REMARK   14  A    between atoms: C_32  and  C_33
REMARK   15  A    between atoms: C_36  and  C_39
REMARK                            x       y       z     vdW  Elec       q    Type
REMARK                         _______ _______ _______ _____ _____    ______ ____
ROOT
ATOM      1  C   UNL     1       5.541  -2.721  27.080  0.00  0.00    +0.163 C 
ENDROOT
BRANCH   1   4
ATOM      2  C   UNL     1       1.882  -2.923  26.019  0.00  0.00    +0.109 C 
ATOM      3  C   UNL     1       3.044  -2.700  26.936  0.00  0.00    +0.211 C 
ATOM      4  N   UNL     1       4.263  -2.788  26.325  0.00  0.00    -0.304 N 
ATOM      5  H   UNL     1       4.348  -2.641  25.326  0.00  0.00    +0.149 HD
ATOM      6  O   UNL     1       2.907  -2.457  28.136  0.00  0.00    -0.276 OA
ENDBRANCH   1   4
BRANCH   1   7
ATOM      7  C   UNL     1       6.511  -1.770  26.362  0.00  0.00    +0.234 C 
ATOM      8  N   UNL     1       7.276  -2.082  25.294  0.00  0.00    -0.302 N 
ATOM      9  H   UNL     1       7.942  -1.336  25.133  0.00  0.00    +0.150 HD
ATOM     10  O   UNL     1       6.715  -0.642  26.843  0.00  0.00    -0.274 OA
BRANCH   8  11
ATOM     11  C   UNL     1       7.277  -3.071  24.184  0.00  0.00    +0.159 C 
ATOM     12  C   UNL     1       7.131  -2.352  22.827  0.00  0.00    +0.236 C 
ATOM     13  O   UNL     1       6.854  -2.922  21.775  0.00  0.00    -0.274 OA
ATOM     14  N   UNL     1       7.693  -1.089  22.870  0.00  0.00    -0.296 N 
ATOM     15  C   UNL     1       9.088  -0.911  22.503  0.00  0.00    +0.108 C 
ATOM     16  C   UNL     1      10.054  -2.068  22.858  0.00  0.00    +0.019 C 
ATOM     17  C   UNL     1       9.833  -2.897  24.136  0.00  0.00    +0.004 C 
ATOM     18  C   UNL     1       8.604  -3.822  24.133  0.00  0.00    +0.032 C 
BRANCH  14  19
ATOM     19  C   UNL     1       6.803   0.043  23.113  0.00  0.00    +0.143 C 
BRANCH  19  20
ATOM     20  C   UNL     1       7.434   1.381  23.381  0.00  0.00    -0.030 A 
ATOM     21  C   UNL     1       7.896   1.643  24.677  0.00  0.00    +0.006 A 
ATOM     22  C   UNL     1       8.572   2.826  24.968  0.00  0.00    +0.009 A 
ATOM     23  C   UNL     1       8.825   3.784  23.974  0.00  0.00    -0.018 A 
ATOM     24  C   UNL     1       8.215   3.585  22.723  0.00  0.00    +0.009 A 
ATOM     25  C   UNL     1       7.520   2.401  22.431  0.00  0.00    +0.006 A 
BRANCH  23  26
ATOM     26  C   UNL     1       9.800   4.875  24.211  0.00  0.00    -0.018 A 
ATOM     27  C   UNL     1       9.472   5.926  25.094  0.00  0.00    +0.008 A 
ATOM     28  C   UNL     1      10.389   6.924  25.427  0.00  0.00    +0.001 A 
ATOM     29  C   UNL     1      11.667   6.894  24.886  0.00  0.00    +0.000 A 
ATOM     30  C   UNL     1      12.019   5.873  24.005  0.00  0.00    +0.001 A 
ATOM     31  C   UNL     1      11.092   4.876  23.666  0.00  0.00    +0.008 A 
ENDBRANCH  23  26
ENDBRANCH  19  20
ENDBRANCH  14  19
ENDBRANCH   8  11
ENDBRANCH   1   7
BRANCH   1  32
ATOM     32  C   UNL     1       6.093  -4.102  27.360  0.00  0.00    +0.067 C 
BRANCH  32  33
ATOM     33  C   UNL     1       5.452  -5.310  26.718  0.00  0.00    -0.044 A 
ATOM     34  C   UNL     1       4.475  -5.903  27.500  0.00  0.00    +0.020 A 
ATOM     35  C   UNL     1       3.531  -6.809  26.973  0.00  0.00    +0.078 A 
ATOM     36  C   UNL     1       3.631  -7.250  25.754  0.00  0.00    +0.078 A 
ATOM     37  C   UNL     1       4.704  -6.780  24.956  0.00  0.00    +0.017 A 
ATOM     38  C   UNL     1       5.592  -5.789  25.423  0.00  0.00    +0.004 A 
BRANCH  35  39
ATOM     39  P   UNL     1       1.916  -6.852  27.832  0.00  0.00    +0.359 P 
ATOM     40  O   UNL     1       0.549  -6.889  28.558  0.00  0.00    -0.253 OA
BRANCH  39  41
ATOM     41  O   UNL     1       2.294  -5.464  28.637  0.00  0.00    -0.321 OA
ATOM     42  H   UNL     1       2.370  -5.721  29.576  0.00  0.00    +0.220 HD
ENDBRANCH  39  41
BRANCH  39  43
ATOM     43  O   UNL     1       2.556  -7.970  28.865  0.00  0.00    -0.321 OA
ATOM     44  H   UNL     1       2.389  -7.678  29.778  0.00  0.00    +0.220 HD
ENDBRANCH  39  43
ENDBRANCH  35  39
BRANCH  36  45
ATOM     45  P   UNL     1       2.160  -7.928  24.904  0.00  0.00    +0.359 P 
ATOM     46  O   UNL     1       0.914  -8.502  24.184  0.00  0.00    -0.253 OA
BRANCH  45  47
ATOM     47  O   UNL     1       2.615  -9.451  25.296  0.00  0.00    -0.321 OA
ATOM     48  H   UNL     1       2.428 -10.002  24.506  0.00  0.00    +0.220 HD
ENDBRANCH  45  47
BRANCH  45  49
ATOM     49  O   UNL     1       2.997  -7.767  23.492  0.00  0.00    -0.321 OA
ATOM     50  H   UNL     1       3.511  -8.570  23.278  0.00  0.00    +0.220 HD
ENDBRANCH  45  49
ENDBRANCH  36  45
ENDBRANCH  32  33
ENDBRANCH   1  32
TORSDOF 14
ENDMDL
MODEL 9
REMARK VINA RESULT:      -7.5      2.676      5.531
REMARK  Name = 
REMARK  15 active torsions:
REMARK  status: ('A' for Active; 'I' for Inactive)
REMARK    1  A    between atoms: C_1  and  C_2
REMARK    2  A    between atoms: N_4  and  C_5
REMARK    3  A    between atoms: C_5  and  C_7
REMARK    4  A    between atoms: C_5  and  C_22
REMARK    5  A    between atoms: C_7  and  C_8
REMARK    6  A    between atoms: C_11  and  P_18
REMARK    7  A    between atoms: C_12  and  P_14
REMARK    8  A    between atoms: P_14  and  O_15
REMARK    9  A    between atoms: P_14  and  O_16
REMARK   10  A    between atoms: P_18  and  O_19
REMARK   11  A    between atoms: P_18  and  O_20
REMARK   12  A    between atoms: N_24  and  C_25
REMARK   13  A    between atoms: N_31  and  C_32
REMARK   14  A    between atoms: C_32  and  C_33
REMARK   15  A    between atoms: C_36  and  C_39
REMARK                            x       y       z     vdW  Elec       q    Type
REMARK                         _______ _______ _______ _____ _____    ______ ____
ROOT
ATOM      1  C   UNL     1       8.530  -1.837  23.961  0.00  0.00    +0.163 C 
ENDROOT
BRANCH   1   4
ATOM      2  C   UNL     1      11.267   0.768  24.485  0.00  0.00    +0.109 C 
ATOM      3  C   UNL     1      10.271  -0.055  23.731  0.00  0.00    +0.211 C 
ATOM      4  N   UNL     1       9.493  -0.854  24.521  0.00  0.00    -0.304 N 
ATOM      5  H   UNL     1       9.355  -0.630  25.500  0.00  0.00    +0.149 HD
ATOM      6  O   UNL     1      10.164  -0.011  22.504  0.00  0.00    -0.276 OA
ENDBRANCH   1   4
BRANCH   1   7
ATOM      7  C   UNL     1       7.124  -1.219  23.933  0.00  0.00    +0.234 C 
ATOM      8  N   UNL     1       6.449  -0.748  25.004  0.00  0.00    -0.302 N 
ATOM      9  H   UNL     1       5.489  -0.561  24.736  0.00  0.00    +0.150 HD
ATOM     10  O   UNL     1       6.481  -1.233  22.870  0.00  0.00    -0.274 OA
BRANCH   8  11
ATOM     11  C   UNL     1       6.751  -0.232  26.365  0.00  0.00    +0.159 C 
ATOM     12  C   UNL     1       6.162   1.183  26.544  0.00  0.00    +0.236 C 
ATOM     13  O   UNL     1       6.466   1.941  27.460  0.00  0.00    -0.274 OA
ATOM     14  N   UNL     1       5.017   1.345  25.784  0.00  0.00    -0.296 N 
ATOM     15  C   UNL     1       3.721   1.031  26.362  0.00  0.00    +0.108 C 
ATOM     16  C   UNL     1       3.676  -0.144  27.370  0.00  0.00    +0.019 C 
ATOM     17  C   UNL     1       4.601  -1.360  27.185  0.00  0.00    +0.004 C 
ATOM     18  C   UNL     1       6.099  -1.108  27.430  0.00  0.00    +0.032 C 
BRANCH  14  19
ATOM     19  C   UNL     1       5.151   1.999  24.485  0.00  0.00    +0.143 C 
BRANCH  19  20
ATOM     20  C   UNL     1       6.396   2.803  24.234  0.00  0.00    -0.030 A 
ATOM     21  C   UNL     1       6.488   4.072  24.821  0.00  0.00    +0.006 A 
ATOM     22  C   UNL     1       7.652   4.829  24.703  0.00  0.00    +0.009 A 
ATOM     23  C   UNL     1       8.771   4.342  24.009  0.00  0.00    -0.018 A 
ATOM     24  C   UNL     1       8.607   3.145  23.289  0.00  0.00    +0.009 A 
ATOM     25  C   UNL     1       7.430   2.387  23.393  0.00  0.00    +0.006 A 
BRANCH  23  26
ATOM     26  C   UNL     1      10.090   5.002  24.150  0.00  0.00    -0.018 A 
ATOM     27  C   UNL     1      11.203   4.499  23.443  0.00  0.00    +0.008 A 
ATOM     28  C   UNL     1      12.443   5.139  23.465  0.00  0.00    +0.001 A 
ATOM     29  C   UNL     1      12.601   6.310  24.193  0.00  0.00    +0.000 A 
ATOM     30  C   UNL     1      11.523   6.828  24.908  0.00  0.00    +0.001 A 
ATOM     31  C   UNL     1      10.281   6.178  24.892  0.00  0.00    +0.008 A 
ENDBRANCH  23  26
ENDBRANCH  19  20
ENDBRANCH  14  19
ENDBRANCH   8  11
ENDBRANCH   1   7
BRANCH   1  32
ATOM     32  C   UNL     1       8.625  -3.172  24.667  0.00  0.00    +0.067 C 
BRANCH  32  33
ATOM     33  C   UNL     1       7.608  -4.251  24.372  0.00  0.00    -0.044 A 
ATOM     34  C   UNL     1       7.024  -4.790  25.506  0.00  0.00    +0.020 A 
ATOM     35  C   UNL     1       5.833  -5.543  25.459  0.00  0.00    +0.078 A 
ATOM     36  C   UNL     1       5.308  -5.899  24.324  0.00  0.00    +0.078 A 
ATOM     37  C   UNL     1       5.953  -5.491  23.129  0.00  0.00    +0.017 A 
ATOM     38  C   UNL     1       7.079  -4.643  23.151  0.00  0.00    +0.004 A 
BRANCH  35  39
ATOM     39  P   UNL     1       4.795  -5.472  26.964  0.00  0.00    +0.359 P 
ATOM     40  O   UNL     1       3.917  -5.413  28.238  0.00  0.00    -0.253 OA
BRANCH  39  41
ATOM     41  O   UNL     1       5.937  -4.556  27.722  0.00  0.00    -0.321 OA
ATOM     42  H   UNL     1       6.583  -5.192  28.084  0.00  0.00    +0.220 HD
ENDBRANCH  39  41
BRANCH  39  43
ATOM     43  O   UNL     1       5.339  -6.985  27.344  0.00  0.00    -0.321 OA
ATOM     44  H   UNL     1       5.670  -6.973  28.259  0.00  0.00    +0.220 HD
ENDBRANCH  39  43
ENDBRANCH  35  39
BRANCH  36  45
ATOM     45  P   UNL     1       3.536  -6.344  24.235  0.00  0.00    +0.359 P 
ATOM     46  O   UNL     1       2.036  -6.721  24.161  0.00  0.00    -0.253 OA
BRANCH  45  47
ATOM     47  O   UNL     1       3.921  -7.934  24.183  0.00  0.00    -0.321 OA
ATOM     48  H   UNL     1       3.115  -8.418  24.465  0.00  0.00    +0.220 HD
ENDBRANCH  45  47
BRANCH  45  49
ATOM     49  O   UNL     1       3.611  -6.009  22.622  0.00  0.00    -0.321 OA
ATOM     50  H   UNL     1       2.722  -5.914  22.227  0.00  0.00    +0.220 HD
ENDBRANCH  45  49
ENDBRANCH  36  45
ENDBRANCH  32  33
ENDBRANCH   1  32
TORSDOF 14
ENDMDL
