MODEL 1
REMARK VINA RESULT:      -7.0      0.000      0.000
REMARK  Name = 
REMARK  14 active torsions:
REMARK  status: ('A' for Active; 'I' for Inactive)
REMARK    1  A    between atoms: N_8  and  C_9
REMARK    2  A    between atoms: C_12  and  C_14
REMARK    3  A    between atoms: C_14  and  O_15
REMARK    4  A    between atoms: O_15  and  P_16
REMARK    5  A    between atoms: P_16  and  O_17
REMARK    6  A    between atoms: P_16  and  O_19
REMARK    7  A    between atoms: O_19  and  P_20
REMARK    8  A    between atoms: P_20  and  O_21
REMARK    9  A    between atoms: P_20  and  N_23
REMARK   10  A    between atoms: N_23  and  P_24
REMARK   11  A    between atoms: P_24  and  O_25
REMARK   12  A    between atoms: P_24  and  O_26
REMARK   13  A    between atoms: C_28  and  O_30
REMARK   14  A    between atoms: C_31  and  O_33
REMARK                            x       y       z     vdW  Elec       q    Type
REMARK                         _______ _______ _______ _____ _____    ______ ____
ROOT
ATOM      1  C   UNL     1       7.408  -3.413  23.630  0.00  0.00    +0.253 C 
ATOM      2  C   UNL     1       7.940  -4.848  23.480  0.00  0.00    +0.195 C 
ATOM      3  C   UNL     1       8.289  -5.295  24.904  0.00  0.00    +0.178 C 
ATOM      4  C   UNL     1       7.879  -4.117  25.787  0.00  0.00    +0.178 C 
ATOM      5  O   UNL     1       6.945  -3.343  25.009  0.00  0.00    -0.346 OA
ENDROOT
BRANCH   1  17
ATOM      6  N   UNL     1       5.764   1.567  22.849  0.00  0.00    -0.329 N 
ATOM      7  H   UNL     1       5.841   2.556  23.042  0.00  0.00    +0.145 HD
ATOM      8  H   UNL     1       5.002   1.117  23.347  0.00  0.00    +0.145 HD
ATOM      9  C   UNL     1       6.906   0.835  22.869  0.00  0.00    +0.195 A 
ATOM     10  N   UNL     1       8.060   1.509  22.520  0.00  0.00    -0.293 N 
ATOM     11  H   UNL     1       8.015   2.463  22.208  0.00  0.00    +0.172 HD
ATOM     12  C   UNL     1       9.321   0.946  22.508  0.00  0.00    +0.280 A 
ATOM     13  O   UNL     1      10.327   1.597  22.184  0.00  0.00    -0.265 OA
ATOM     14  C   UNL     1       9.308  -0.447  22.887  0.00  0.00    +0.172 A 
ATOM     15  N   UNL     1      10.334  -1.345  23.011  0.00  0.00    -0.229 NA
ATOM     16  C   UNL     1       9.738  -2.470  23.347  0.00  0.00    +0.203 A 
ATOM     17  N   UNL     1       8.368  -2.348  23.383  0.00  0.00    -0.285 N 
ATOM     18  C   UNL     1       8.091  -1.023  23.179  0.00  0.00    +0.171 A 
ATOM     19  N   UNL     1       6.874  -0.427  23.210  0.00  0.00    -0.196 NA
ENDBRANCH   1  17
BRANCH   2  20
ATOM     20  O   UNL     1       6.905  -5.713  22.958  0.00  0.00    -0.385 OA
ATOM     21  H   UNL     1       6.151  -5.163  22.684  0.00  0.00    +0.210 HD
ENDBRANCH   2  20
BRANCH   3  22
ATOM     22  O   UNL     1       9.685  -5.557  25.017  0.00  0.00    -0.386 OA
ATOM     23  H   UNL     1       9.796  -6.516  25.155  0.00  0.00    +0.210 HD
ENDBRANCH   3  22
BRANCH   4  24
ATOM     24  C   UNL     1       7.252  -4.511  27.129  0.00  0.00    +0.206 C 
BRANCH  24  25
ATOM     25  O   UNL     1       6.577  -5.757  27.034  0.00  0.00    -0.284 OA
BRANCH  25  26
ATOM     26  P   UNL     1       5.799  -6.310  28.333  0.00  0.00    +0.483 P 
ATOM     27  O   UNL     1       6.254  -7.609  28.897  0.00  0.00    -0.227 OA
BRANCH  26  28
ATOM     28  O   UNL     1       6.062  -5.132  29.392  0.00  0.00    -0.302 OA
ATOM     29  H   UNL     1       6.913  -5.276  29.848  0.00  0.00    +0.222 HD
ENDBRANCH  26  28
BRANCH  26  30
ATOM     30  O   UNL     1       4.266  -6.082  28.055  0.00  0.00    -0.196 OA
BRANCH  30  31
ATOM     31  P   UNL     1       3.436  -5.918  26.704  0.00  0.00    +0.423 P 
ATOM     32  O   UNL     1       2.081  -5.993  27.371  0.00  0.00    -0.239 OA
BRANCH  31  33
ATOM     33  N   UNL     1       2.908  -6.685  25.396  0.00  0.00    -0.125 NA
ATOM     34  H   UNL     1       1.903  -6.750  25.390  0.00  0.00    +0.146 HD
BRANCH  33  35
ATOM     35  P   UNL     1       3.533  -6.082  23.842  0.00  0.00    +0.412 P 
ATOM     36  O   UNL     1       4.076  -5.557  22.491  0.00  0.00    -0.240 OA
BRANCH  35  37
ATOM     37  O   UNL     1       4.495  -7.399  23.779  0.00  0.00    -0.312 OA
ATOM     38  H   UNL     1       4.990  -7.336  22.935  0.00  0.00    +0.221 HD
ENDBRANCH  35  37
BRANCH  35  39
ATOM     39  O   UNL     1       4.568  -5.175  24.730  0.00  0.00    -0.312 OA
ATOM     40  H   UNL     1       4.135  -5.006  25.587  0.00  0.00    +0.221 HD
ENDBRANCH  35  39
ENDBRANCH  33  35
ENDBRANCH  31  33
BRANCH  31  41
ATOM     41  O   UNL     1       4.320  -7.316  26.576  0.00  0.00    -0.312 OA
ATOM     42  H   UNL     1       4.681  -7.369  25.673  0.00  0.00    +0.221 HD
ENDBRANCH  31  41
ENDBRANCH  30  31
ENDBRANCH  26  30
ENDBRANCH  25  26
ENDBRANCH  24  25
ENDBRANCH   4  24
TORSDOF 14
ENDMDL
MODEL 2
REMARK VINA RESULT:      -7.0      4.034      8.315
REMARK  Name = 
REMARK  14 active torsions:
REMARK  status: ('A' for Active; 'I' for Inactive)
REMARK    1  A    between atoms: N_8  and  C_9
REMARK    2  A    between atoms: C_12  and  C_14
REMARK    3  A    between atoms: C_14  and  O_15
REMARK    4  A    between atoms: O_15  and  P_16
REMARK    5  A    between atoms: P_16  and  O_17
REMARK    6  A    between atoms: P_16  and  O_19
REMARK    7  A    between atoms: O_19  and  P_20
REMARK    8  A    between atoms: P_20  and  O_21
REMARK    9  A    between atoms: P_20  and  N_23
REMARK   10  A    between atoms: N_23  and  P_24
REMARK   11  A    between atoms: P_24  and  O_25
REMARK   12  A    between atoms: P_24  and  O_26
REMARK   13  A    between atoms: C_28  and  O_30
REMARK   14  A    between atoms: C_31  and  O_33
REMARK                            x       y       z     vdW  Elec       q    Type
REMARK                         _______ _______ _______ _____ _____    ______ ____
ROOT
ATOM      1  C   UNL     1       8.183  -5.112  25.821  0.00  0.00    +0.253 C 
ATOM      2  C   UNL     1       9.220  -4.787  24.732  0.00  0.00    +0.195 C 
ATOM      3  C   UNL     1       9.234  -3.257  24.641  0.00  0.00    +0.178 C 
ATOM      4  C   UNL     1       8.255  -2.799  25.722  0.00  0.00    +0.178 C 
ATOM      5  O   UNL     1       8.124  -3.906  26.634  0.00  0.00    -0.346 OA
ENDROOT
BRANCH   1  17
ATOM      6  N   UNL     1       4.667  -7.370  29.085  0.00  0.00    -0.329 N 
ATOM      7  H   UNL     1       3.735  -7.419  29.472  0.00  0.00    +0.145 HD
ATOM      8  H   UNL     1       5.334  -6.913  29.698  0.00  0.00    +0.145 HD
ATOM      9  C   UNL     1       4.790  -6.977  27.792  0.00  0.00    +0.195 A 
ATOM     10  N   UNL     1       3.726  -7.282  26.966  0.00  0.00    -0.293 N 
ATOM     11  H   UNL     1       2.953  -7.824  27.313  0.00  0.00    +0.172 HD
ATOM     12  C   UNL     1       3.651  -6.941  25.630  0.00  0.00    +0.280 A 
ATOM     13  O   UNL     1       2.670  -7.241  24.931  0.00  0.00    -0.265 OA
ATOM     14  C   UNL     1       4.825  -6.236  25.173  0.00  0.00    +0.172 A 
ATOM     15  N   UNL     1       5.131  -5.722  23.941  0.00  0.00    -0.229 NA
ATOM     16  C   UNL     1       6.340  -5.223  24.093  0.00  0.00    +0.203 A 
ATOM     17  N   UNL     1       6.848  -5.450  25.351  0.00  0.00    -0.285 N 
ATOM     18  C   UNL     1       5.839  -6.020  26.080  0.00  0.00    +0.171 A 
ATOM     19  N   UNL     1       5.863  -6.344  27.395  0.00  0.00    -0.196 NA
ENDBRANCH   1  17
BRANCH   2  20
ATOM     20  O   UNL     1      10.530  -5.245  25.137  0.00  0.00    -0.385 OA
ATOM     21  H   UNL     1      11.200  -4.741  24.645  0.00  0.00    +0.210 HD
ENDBRANCH   2  20
BRANCH   3  22
ATOM     22  O   UNL     1       8.807  -2.831  23.350  0.00  0.00    -0.386 OA
ATOM     23  H   UNL     1       9.370  -2.080  23.085  0.00  0.00    +0.210 HD
ENDBRANCH   3  22
BRANCH   4  24
ATOM     24  C   UNL     1       8.683  -1.536  26.478  0.00  0.00    +0.206 C 
BRANCH  24  25
ATOM     25  O   UNL     1       9.366  -0.632  25.622  0.00  0.00    -0.284 OA
BRANCH  25  26
ATOM     26  P   UNL     1       8.537   0.593  24.981  0.00  0.00    +0.483 P 
ATOM     27  O   UNL     1       7.327   1.053  25.715  0.00  0.00    -0.227 OA
BRANCH  26  28
ATOM     28  O   UNL     1       9.643   1.757  24.963  0.00  0.00    -0.302 OA
ATOM     29  H   UNL     1      10.513   1.387  24.721  0.00  0.00    +0.222 HD
ENDBRANCH  26  28
BRANCH  26  30
ATOM     30  O   UNL     1       8.438   0.294  23.438  0.00  0.00    -0.196 OA
BRANCH  30  31
ATOM     31  P   UNL     1       8.516   1.240  22.158  0.00  0.00    +0.423 P 
ATOM     32  O   UNL     1       9.995   1.524  22.292  0.00  0.00    -0.239 OA
BRANCH  31  33
ATOM     33  N   UNL     1       8.215   2.718  21.606  0.00  0.00    -0.125 NA
ATOM     34  H   UNL     1       7.647   2.690  20.776  0.00  0.00    +0.146 HD
BRANCH  33  35
ATOM     35  P   UNL     1       7.572   3.871  22.799  0.00  0.00    +0.412 P 
ATOM     36  O   UNL     1       7.012   4.874  23.837  0.00  0.00    -0.240 OA
BRANCH  35  37
ATOM     37  O   UNL     1       7.471   4.974  21.600  0.00  0.00    -0.312 OA
ATOM     38  H   UNL     1       8.079   4.668  20.895  0.00  0.00    +0.221 HD
ENDBRANCH  35  37
BRANCH  35  39
ATOM     39  O   UNL     1       9.132   4.192  23.176  0.00  0.00    -0.312 OA
ATOM     40  H   UNL     1       9.485   3.404  23.629  0.00  0.00    +0.221 HD
ENDBRANCH  35  39
ENDBRANCH  33  35
ENDBRANCH  31  33
BRANCH  31  41
ATOM     41  O   UNL     1       7.483   1.956  23.241  0.00  0.00    -0.312 OA
ATOM     42  H   UNL     1       6.626   2.099  22.800  0.00  0.00    +0.221 HD
ENDBRANCH  31  41
ENDBRANCH  30  31
ENDBRANCH  26  30
ENDBRANCH  25  26
ENDBRANCH  24  25
ENDBRANCH   4  24
TORSDOF 14
ENDMDL
MODEL 3
REMARK VINA RESULT:      -6.6      1.746      3.691
REMARK  Name = 
REMARK  14 active torsions:
REMARK  status: ('A' for Active; 'I' for Inactive)
REMARK    1  A    between atoms: N_8  and  C_9
REMARK    2  A    between atoms: C_12  and  C_14
REMARK    3  A    between atoms: C_14  and  O_15
REMARK    4  A    between atoms: O_15  and  P_16
REMARK    5  A    between atoms: P_16  and  O_17
REMARK    6  A    between atoms: P_16  and  O_19
REMARK    7  A    between atoms: O_19  and  P_20
REMARK    8  A    between atoms: P_20  and  O_21
REMARK    9  A    between atoms: P_20  and  N_23
REMARK   10  A    between atoms: N_23  and  P_24
REMARK   11  A    between atoms: P_24  and  O_25
REMARK   12  A    between atoms: P_24  and  O_26
REMARK   13  A    between atoms: C_28  and  O_30
REMARK   14  A    between atoms: C_31  and  O_33
REMARK                            x       y       z     vdW  Elec       q    Type
REMARK                         _______ _______ _______ _____ _____    ______ ____
ROOT
ATOM      1  C   UNL     1       9.464  -2.995  24.214  0.00  0.00    +0.253 C 
ATOM      2  C   UNL     1       9.415  -4.205  25.162  0.00  0.00    +0.195 C 
ATOM      3  C   UNL     1       8.083  -4.898  24.853  0.00  0.00    +0.178 C 
ATOM      4  C   UNL     1       7.481  -4.083  23.709  0.00  0.00    +0.178 C 
ATOM      5  O   UNL     1       8.578  -3.359  23.117  0.00  0.00    -0.346 OA
ENDROOT
BRANCH   1  17
ATOM      6  N   UNL     1       9.082   1.323  21.160  0.00  0.00    -0.329 N 
ATOM      7  H   UNL     1       8.569   2.137  20.853  0.00  0.00    +0.145 HD
ATOM      8  H   UNL     1       9.022   0.542  20.514  0.00  0.00    +0.145 HD
ATOM      9  C   UNL     1       8.940   0.943  22.455  0.00  0.00    +0.195 A 
ATOM     10  N   UNL     1       8.672   1.956  23.354  0.00  0.00    -0.293 N 
ATOM     11  H   UNL     1       8.659   2.915  23.049  0.00  0.00    +0.172 HD
ATOM     12  C   UNL     1       8.467   1.768  24.706  0.00  0.00    +0.280 A 
ATOM     13  O   UNL     1       8.231   2.716  25.472  0.00  0.00    -0.265 OA
ATOM     14  C   UNL     1       8.579   0.382  25.094  0.00  0.00    +0.172 A 
ATOM     15  N   UNL     1       8.434  -0.214  26.318  0.00  0.00    -0.229 NA
ATOM     16  C   UNL     1       8.682  -1.486  26.087  0.00  0.00    +0.203 A 
ATOM     17  N   UNL     1       9.041  -1.723  24.781  0.00  0.00    -0.285 N 
ATOM     18  C   UNL     1       8.885  -0.537  24.115  0.00  0.00    +0.171 A 
ATOM     19  N   UNL     1       9.050  -0.317  22.788  0.00  0.00    -0.196 NA
ENDBRANCH   1  17
BRANCH   2  20
ATOM     20  O   UNL     1      10.498  -5.116  24.864  0.00  0.00    -0.385 OA
ATOM     21  H   UNL     1      10.469  -5.850  25.502  0.00  0.00    +0.210 HD
ENDBRANCH   2  20
BRANCH   3  22
ATOM     22  O   UNL     1       7.234  -4.879  25.997  0.00  0.00    -0.386 OA
ATOM     23  H   UNL     1       7.225  -3.967  26.344  0.00  0.00    +0.210 HD
ENDBRANCH   3  22
BRANCH   4  24
ATOM     24  C   UNL     1       6.757  -4.912  22.644  0.00  0.00    +0.206 C 
BRANCH  24  25
ATOM     25  O   UNL     1       6.105  -6.034  23.223  0.00  0.00    -0.284 OA
BRANCH  25  26
ATOM     26  P   UNL     1       4.557  -5.887  23.648  0.00  0.00    +0.483 P 
ATOM     27  O   UNL     1       3.653  -5.188  22.695  0.00  0.00    -0.227 OA
BRANCH  26  28
ATOM     28  O   UNL     1       4.115  -7.424  23.794  0.00  0.00    -0.302 OA
ATOM     29  H   UNL     1       3.146  -7.502  23.708  0.00  0.00    +0.222 HD
ENDBRANCH  26  28
BRANCH  26  30
ATOM     30  O   UNL     1       4.558  -5.463  25.165  0.00  0.00    -0.196 OA
BRANCH  30  31
ATOM     31  P   UNL     1       3.609  -5.850  26.385  0.00  0.00    +0.423 P 
ATOM     32  O   UNL     1       3.504  -4.441  26.923  0.00  0.00    -0.239 OA
BRANCH  31  33
ATOM     33  N   UNL     1       3.571  -6.487  27.859  0.00  0.00    -0.125 NA
ATOM     34  H   UNL     1       2.961  -7.287  27.896  0.00  0.00    +0.146 HD
BRANCH  33  35
ATOM     35  P   UNL     1       5.155  -6.837  28.589  0.00  0.00    +0.412 P 
ATOM     36  O   UNL     1       6.533  -7.142  29.225  0.00  0.00    -0.240 OA
BRANCH  35  37
ATOM     37  O   UNL     1       4.375  -7.207  29.975  0.00  0.00    -0.312 OA
ATOM     38  H   UNL     1       4.659  -6.540  30.635  0.00  0.00    +0.221 HD
ENDBRANCH  35  37
BRANCH  35  39
ATOM     39  O   UNL     1       5.255  -5.231  28.891  0.00  0.00    -0.312 OA
ATOM     40  H   UNL     1       6.192  -4.979  28.789  0.00  0.00    +0.221 HD
ENDBRANCH  35  39
ENDBRANCH  33  35
ENDBRANCH  31  33
BRANCH  31  41
ATOM     41  O   UNL     1       5.041  -6.661  26.595  0.00  0.00    -0.312 OA
ATOM     42  H   UNL     1       5.621  -6.462  25.838  0.00  0.00    +0.221 HD
ENDBRANCH  31  41
ENDBRANCH  30  31
ENDBRANCH  26  30
ENDBRANCH  25  26
ENDBRANCH  24  25
ENDBRANCH   4  24
TORSDOF 14
ENDMDL
MODEL 4
REMARK VINA RESULT:      -6.6      4.004      7.919
REMARK  Name = 
REMARK  14 active torsions:
REMARK  status: ('A' for Active; 'I' for Inactive)
REMARK    1  A    between atoms: N_8  and  C_9
REMARK    2  A    between atoms: C_12  and  C_14
REMARK    3  A    between atoms: C_14  and  O_15
REMARK    4  A    between atoms: O_15  and  P_16
REMARK    5  A    between atoms: P_16  and  O_17
REMARK    6  A    between atoms: P_16  and  O_19
REMARK    7  A    between atoms: O_19  and  P_20
REMARK    8  A    between atoms: P_20  and  O_21
REMARK    9  A    between atoms: P_20  and  N_23
REMARK   10  A    between atoms: N_23  and  P_24
REMARK   11  A    between atoms: P_24  and  O_25
REMARK   12  A    between atoms: P_24  and  O_26
REMARK   13  A    between atoms: C_28  and  O_30
REMARK   14  A    between atoms: C_31  and  O_33
REMARK                            x       y       z     vdW  Elec       q    Type
REMARK                         _______ _______ _______ _____ _____    ______ ____
ROOT
ATOM      1  C   UNL     1       8.146  -5.135  26.095  0.00  0.00    +0.253 C 
ATOM      2  C   UNL     1       9.009  -4.821  24.861  0.00  0.00    +0.195 C 
ATOM      3  C   UNL     1       8.947  -3.297  24.709  0.00  0.00    +0.178 C 
ATOM      4  C   UNL     1       8.106  -2.827  25.895  0.00  0.00    +0.178 C 
ATOM      5  O   UNL     1       8.147  -3.897  26.860  0.00  0.00    -0.346 OA
ENDROOT
BRANCH   1  17
ATOM      6  N   UNL     1       6.438  -5.741  21.111  0.00  0.00    -0.329 N 
ATOM      7  H   UNL     1       5.947  -6.281  20.412  0.00  0.00    +0.145 HD
ATOM      8  H   UNL     1       7.447  -5.828  21.052  0.00  0.00    +0.145 HD
ATOM      9  C   UNL     1       5.981  -5.805  22.387  0.00  0.00    +0.195 A 
ATOM     10  N   UNL     1       4.627  -6.035  22.532  0.00  0.00    -0.293 N 
ATOM     11  H   UNL     1       4.031  -6.078  21.723  0.00  0.00    +0.172 HD
ATOM     12  C   UNL     1       3.980  -6.162  23.745  0.00  0.00    +0.280 A 
ATOM     13  O   UNL     1       2.759  -6.367  23.819  0.00  0.00    -0.265 OA
ATOM     14  C   UNL     1       4.877  -6.011  24.867  0.00  0.00    +0.172 A 
ATOM     15  N   UNL     1       4.636  -6.080  26.213  0.00  0.00    -0.229 NA
ATOM     16  C   UNL     1       5.807  -5.830  26.761  0.00  0.00    +0.203 A 
ATOM     17  N   UNL     1       6.774  -5.541  25.827  0.00  0.00    -0.285 N 
ATOM     18  C   UNL     1       6.202  -5.749  24.600  0.00  0.00    +0.171 A 
ATOM     19  N   UNL     1       6.807  -5.661  23.391  0.00  0.00    -0.196 NA
ENDBRANCH   1  17
BRANCH   2  20
ATOM     20  O   UNL     1      10.381  -5.213  25.099  0.00  0.00    -0.385 OA
ATOM     21  H   UNL     1      10.922  -4.410  25.180  0.00  0.00    +0.210 HD
ENDBRANCH   2  20
BRANCH   3  22
ATOM     22  O   UNL     1       8.330  -2.945  23.474  0.00  0.00    -0.386 OA
ATOM     23  H   UNL     1       8.087  -3.771  23.017  0.00  0.00    +0.210 HD
ENDBRANCH   3  22
BRANCH   4  24
ATOM     24  C   UNL     1       8.579  -1.517  26.536  0.00  0.00    +0.206 C 
BRANCH  24  25
ATOM     25  O   UNL     1       9.317  -0.732  25.611  0.00  0.00    -0.284 OA
BRANCH  25  26
ATOM     26  P   UNL     1       8.603   0.556  24.955  0.00  0.00    +0.483 P 
ATOM     27  O   UNL     1       7.439   1.132  25.682  0.00  0.00    -0.227 OA
BRANCH  26  28
ATOM     28  O   UNL     1       9.809   1.615  24.927  0.00  0.00    -0.302 OA
ATOM     29  H   UNL     1       9.495   2.470  24.576  0.00  0.00    +0.222 HD
ENDBRANCH  26  28
BRANCH  26  30
ATOM     30  O   UNL     1       8.479   0.251  23.415  0.00  0.00    -0.196 OA
BRANCH  30  31
ATOM     31  P   UNL     1       8.504   1.195  22.132  0.00  0.00    +0.423 P 
ATOM     32  O   UNL     1       9.983   1.496  22.217  0.00  0.00    -0.239 OA
BRANCH  31  33
ATOM     33  N   UNL     1       8.169   2.669  21.588  0.00  0.00    -0.125 NA
ATOM     34  H   UNL     1       7.553   2.634  20.792  0.00  0.00    +0.146 HD
BRANCH  33  35
ATOM     35  P   UNL     1       7.594   3.830  22.808  0.00  0.00    +0.412 P 
ATOM     36  O   UNL     1       7.094   4.840  23.870  0.00  0.00    -0.240 OA
BRANCH  35  37
ATOM     37  O   UNL     1       7.507   4.950  21.624  0.00  0.00    -0.312 OA
ATOM     38  H   UNL     1       8.062   4.615  20.889  0.00  0.00    +0.221 HD
ENDBRANCH  35  37
BRANCH  35  39
ATOM     39  O   UNL     1       9.173   4.090  23.153  0.00  0.00    -0.312 OA
ATOM     40  H   UNL     1       9.372   3.596  23.971  0.00  0.00    +0.221 HD
ENDBRANCH  35  39
ENDBRANCH  33  35
ENDBRANCH  31  33
BRANCH  31  41
ATOM     41  O   UNL     1       7.499   1.902  23.247  0.00  0.00    -0.312 OA
ATOM     42  H   UNL     1       7.304   1.248  23.942  0.00  0.00    +0.221 HD
ENDBRANCH  31  41
ENDBRANCH  30  31
ENDBRANCH  26  30
ENDBRANCH  25  26
ENDBRANCH  24  25
ENDBRANCH   4  24
TORSDOF 14
ENDMDL
MODEL 5
REMARK VINA RESULT:      -6.6      2.133      3.039
REMARK  Name = 
REMARK  14 active torsions:
REMARK  status: ('A' for Active; 'I' for Inactive)
REMARK    1  A    between atoms: N_8  and  C_9
REMARK    2  A    between atoms: C_12  and  C_14
REMARK    3  A    between atoms: C_14  and  O_15
REMARK    4  A    between atoms: O_15  and  P_16
REMARK    5  A    between atoms: P_16  and  O_17
REMARK    6  A    between atoms: P_16  and  O_19
REMARK    7  A    between atoms: O_19  and  P_20
REMARK    8  A    between atoms: P_20  and  O_21
REMARK    9  A    between atoms: P_20  and  N_23
REMARK   10  A    between atoms: N_23  and  P_24
REMARK   11  A    between atoms: P_24  and  O_25
REMARK   12  A    between atoms: P_24  and  O_26
REMARK   13  A    between atoms: C_28  and  O_30
REMARK   14  A    between atoms: C_31  and  O_33
REMARK                            x       y       z     vdW  Elec       q    Type
REMARK                         _______ _______ _______ _____ _____    ______ ____
ROOT
ATOM      1  C   UNL     1       8.066  -0.675  24.579  0.00  0.00    +0.253 C 
ATOM      2  C   UNL     1       7.521  -1.239  23.256  0.00  0.00    +0.195 C 
ATOM      3  C   UNL     1       8.261  -2.567  23.056  0.00  0.00    +0.178 C 
ATOM      4  C   UNL     1       9.134  -2.712  24.302  0.00  0.00    +0.178 C 
ATOM      5  O   UNL     1       8.556  -1.843  25.296  0.00  0.00    -0.346 OA
ENDROOT
BRANCH   1  17
ATOM      6  N   UNL     1       7.066   4.176  22.684  0.00  0.00    -0.329 N 
ATOM      7  H   UNL     1       7.160   5.180  22.750  0.00  0.00    +0.145 HD
ATOM      8  H   UNL     1       6.167   3.833  23.007  0.00  0.00    +0.145 HD
ATOM      9  C   UNL     1       8.103   3.419  23.122  0.00  0.00    +0.195 A 
ATOM     10  N   UNL     1       9.355   3.993  23.018  0.00  0.00    -0.293 N 
ATOM     11  H   UNL     1       9.466   4.889  22.575  0.00  0.00    +0.172 HD
ATOM     12  C   UNL     1      10.527   3.395  23.436  0.00  0.00    +0.280 A 
ATOM     13  O   UNL     1      11.628   3.956  23.317  0.00  0.00    -0.265 OA
ATOM     14  C   UNL     1      10.309   2.078  23.987  0.00  0.00    +0.172 A 
ATOM     15  N   UNL     1      11.194   1.178  24.515  0.00  0.00    -0.229 NA
ATOM     16  C   UNL     1      10.448   0.138  24.826  0.00  0.00    +0.203 A 
ATOM     17  N   UNL     1       9.132   0.309  24.462  0.00  0.00    -0.285 N 
ATOM     18  C   UNL     1       9.019   1.595  24.006  0.00  0.00    +0.171 A 
ATOM     19  N   UNL     1       7.887   2.226  23.614  0.00  0.00    -0.196 NA
ENDBRANCH   1  17
BRANCH   2  20
ATOM     20  O   UNL     1       6.104  -1.504  23.372  0.00  0.00    -0.385 OA
ATOM     21  H   UNL     1       5.650  -0.672  23.589  0.00  0.00    +0.210 HD
ENDBRANCH   2  20
BRANCH   3  22
ATOM     22  O   UNL     1       9.057  -2.521  21.876  0.00  0.00    -0.386 OA
ATOM     23  H   UNL     1       9.159  -3.435  21.551  0.00  0.00    +0.210 HD
ENDBRANCH   3  22
BRANCH   4  24
ATOM     24  C   UNL     1       9.242  -4.141  24.845  0.00  0.00    +0.206 C 
BRANCH  24  25
ATOM     25  O   UNL     1       8.877  -4.197  26.216  0.00  0.00    -0.284 OA
BRANCH  25  26
ATOM     26  P   UNL     1       7.505  -4.943  26.615  0.00  0.00    +0.483 P 
ATOM     27  O   UNL     1       7.524  -5.796  27.834  0.00  0.00    -0.227 OA
BRANCH  26  28
ATOM     28  O   UNL     1       6.513  -3.699  26.833  0.00  0.00    -0.302 OA
ATOM     29  H   UNL     1       5.725  -3.984  27.333  0.00  0.00    +0.222 HD
ENDBRANCH  26  28
BRANCH  26  30
ATOM     30  O   UNL     1       6.916  -5.522  25.275  0.00  0.00    -0.196 OA
BRANCH  30  31
ATOM     31  P   UNL     1       5.431  -5.594  24.702  0.00  0.00    +0.423 P 
ATOM     32  O   UNL     1       5.314  -4.109  24.447  0.00  0.00    -0.239 OA
BRANCH  31  33
ATOM     33  N   UNL     1       3.880  -5.714  25.104  0.00  0.00    -0.125 NA
ATOM     34  H   UNL     1       3.375  -4.877  24.865  0.00  0.00    +0.146 HD
BRANCH  33  35
ATOM     35  P   UNL     1       3.042  -7.172  24.522  0.00  0.00    +0.412 P 
ATOM     36  O   UNL     1       2.313  -8.441  24.017  0.00  0.00    -0.240 OA
BRANCH  35  37
ATOM     37  O   UNL     1       3.313  -7.846  25.984  0.00  0.00    -0.312 OA
ATOM     38  H   UNL     1       3.962  -8.566  25.838  0.00  0.00    +0.221 HD
ENDBRANCH  35  37
BRANCH  35  39
ATOM     39  O   UNL     1       4.480  -7.615  23.877  0.00  0.00    -0.312 OA
ATOM     40  H   UNL     1       4.839  -6.834  23.417  0.00  0.00    +0.221 HD
ENDBRANCH  35  39
ENDBRANCH  33  35
ENDBRANCH  31  33
BRANCH  31  41
ATOM     41  O   UNL     1       5.381  -6.122  26.274  0.00  0.00    -0.312 OA
ATOM     42  H   UNL     1       4.449  -6.271  26.518  0.00  0.00    +0.221 HD
ENDBRANCH  31  41
ENDBRANCH  30  31
ENDBRANCH  26  30
ENDBRANCH  25  26
ENDBRANCH  24  25
ENDBRANCH   4  24
TORSDOF 14
ENDMDL
MODEL 6
REMARK VINA RESULT:      -6.5      2.077      2.795
REMARK  Name = 
REMARK  14 active torsions:
REMARK  status: ('A' for Active; 'I' for Inactive)
REMARK    1  A    between atoms: N_8  and  C_9
REMARK    2  A    between atoms: C_12  and  C_14
REMARK    3  A    between atoms: C_14  and  O_15
REMARK    4  A    between atoms: O_15  and  P_16
REMARK    5  A    between atoms: P_16  and  O_17
REMARK    6  A    between atoms: P_16  and  O_19
REMARK    7  A    between atoms: O_19  and  P_20
REMARK    8  A    between atoms: P_20  and  O_21
REMARK    9  A    between atoms: P_20  and  N_23
REMARK   10  A    between atoms: N_23  and  P_24
REMARK   11  A    between atoms: P_24  and  O_25
REMARK   12  A    between atoms: P_24  and  O_26
REMARK   13  A    between atoms: C_28  and  O_30
REMARK   14  A    between atoms: C_31  and  O_33
REMARK                            x       y       z     vdW  Elec       q    Type
REMARK                         _______ _______ _______ _____ _____    ______ ____
ROOT
ATOM      1  C   UNL     1       7.990  -0.849  23.163  0.00  0.00    +0.253 C 
ATOM      2  C   UNL     1       8.616  -2.172  22.693  0.00  0.00    +0.195 C 
ATOM      3  C   UNL     1       8.638  -3.067  23.938  0.00  0.00    +0.178 C 
ATOM      4  C   UNL     1       7.968  -2.228  25.026  0.00  0.00    +0.178 C 
ATOM      5  O   UNL     1       7.208  -1.216  24.335  0.00  0.00    -0.346 OA
ENDROOT
BRANCH   1  17
ATOM      6  N   UNL     1       6.850   4.213  22.072  0.00  0.00    -0.329 N 
ATOM      7  H   UNL     1       6.801   5.182  22.356  0.00  0.00    +0.145 HD
ATOM      8  H   UNL     1       5.951   3.742  22.087  0.00  0.00    +0.145 HD
ATOM      9  C   UNL     1       7.847   3.456  22.597  0.00  0.00    +0.195 A 
ATOM     10  N   UNL     1       9.007   4.130  22.924  0.00  0.00    -0.293 N 
ATOM     11  H   UNL     1       9.104   5.107  22.709  0.00  0.00    +0.172 HD
ATOM     12  C   UNL     1      10.119   3.541  23.494  0.00  0.00    +0.280 A 
ATOM     13  O   UNL     1      11.139   4.194  23.767  0.00  0.00    -0.265 OA
ATOM     14  C   UNL     1       9.947   2.123  23.704  0.00  0.00    +0.172 A 
ATOM     15  N   UNL     1      10.794   1.196  24.248  0.00  0.00    -0.229 NA
ATOM     16  C   UNL     1      10.132   0.061  24.151  0.00  0.00    +0.203 A 
ATOM     17  N   UNL     1       8.923   0.211  23.512  0.00  0.00    -0.285 N 
ATOM     18  C   UNL     1       8.758   1.554  23.305  0.00  0.00    +0.171 A 
ATOM     19  N   UNL     1       7.675   2.172  22.775  0.00  0.00    -0.196 NA
ENDBRANCH   1  17
BRANCH   2  20
ATOM     20  O   UNL     1       7.782  -2.790  21.686  0.00  0.00    -0.385 OA
ATOM     21  H   UNL     1       6.862  -2.510  21.831  0.00  0.00    +0.210 HD
ENDBRANCH   2  20
BRANCH   3  22
ATOM     22  O   UNL     1       9.979  -3.391  24.295  0.00  0.00    -0.386 OA
ATOM     23  H   UNL     1      10.554  -2.672  23.973  0.00  0.00    +0.210 HD
ENDBRANCH   3  22
BRANCH   4  24
ATOM     24  C   UNL     1       7.061  -3.017  25.975  0.00  0.00    +0.206 C 
BRANCH  24  25
ATOM     25  O   UNL     1       7.392  -4.398  25.970  0.00  0.00    -0.284 OA
BRANCH  25  26
ATOM     26  P   UNL     1       6.537  -5.396  26.905  0.00  0.00    +0.483 P 
ATOM     27  O   UNL     1       7.204  -5.923  28.126  0.00  0.00    -0.227 OA
BRANCH  26  28
ATOM     28  O   UNL     1       5.295  -4.466  27.317  0.00  0.00    -0.302 OA
ATOM     29  H   UNL     1       4.896  -4.789  28.148  0.00  0.00    +0.222 HD
ENDBRANCH  26  28
BRANCH  26  30
ATOM     30  O   UNL     1       5.810  -6.395  25.928  0.00  0.00    -0.196 OA
BRANCH  30  31
ATOM     31  P   UNL     1       4.735  -6.171  24.774  0.00  0.00    +0.423 P 
ATOM     32  O   UNL     1       4.172  -7.573  24.842  0.00  0.00    -0.239 OA
BRANCH  31  33
ATOM     33  N   UNL     1       4.524  -6.093  23.184  0.00  0.00    -0.125 NA
ATOM     34  H   UNL     1       3.766  -5.474  22.945  0.00  0.00    +0.146 HD
BRANCH  33  35
ATOM     35  P   UNL     1       5.983  -5.740  22.227  0.00  0.00    +0.412 P 
ATOM     36  O   UNL     1       7.252  -5.433  21.396  0.00  0.00    -0.240 OA
BRANCH  35  37
ATOM     37  O   UNL     1       5.374  -4.252  21.947  0.00  0.00    -0.312 OA
ATOM     38  H   UNL     1       6.117  -3.713  21.602  0.00  0.00    +0.221 HD
ENDBRANCH  35  37
BRANCH  35  39
ATOM     39  O   UNL     1       5.211  -6.462  20.977  0.00  0.00    -0.312 OA
ATOM     40  H   UNL     1       5.546  -7.377  20.925  0.00  0.00    +0.221 HD
ENDBRANCH  35  39
ENDBRANCH  33  35
ENDBRANCH  31  33
BRANCH  31  41
ATOM     41  O   UNL     1       6.236  -5.965  24.099  0.00  0.00    -0.312 OA
ATOM     42  H   UNL     1       6.890  -5.897  24.818  0.00  0.00    +0.221 HD
ENDBRANCH  31  41
ENDBRANCH  30  31
ENDBRANCH  26  30
ENDBRANCH  25  26
ENDBRANCH  24  25
ENDBRANCH   4  24
TORSDOF 14
ENDMDL
MODEL 7
REMARK VINA RESULT:      -6.5      4.118      7.959
REMARK  Name = 
REMARK  14 active torsions:
REMARK  status: ('A' for Active; 'I' for Inactive)
REMARK    1  A    between atoms: N_8  and  C_9
REMARK    2  A    between atoms: C_12  and  C_14
REMARK    3  A    between atoms: C_14  and  O_15
REMARK    4  A    between atoms: O_15  and  P_16
REMARK    5  A    between atoms: P_16  and  O_17
REMARK    6  A    between atoms: P_16  and  O_19
REMARK    7  A    between atoms: O_19  and  P_20
REMARK    8  A    between atoms: P_20  and  O_21
REMARK    9  A    between atoms: P_20  and  N_23
REMARK   10  A    between atoms: N_23  and  P_24
REMARK   11  A    between atoms: P_24  and  O_25
REMARK   12  A    between atoms: P_24  and  O_26
REMARK   13  A    between atoms: C_28  and  O_30
REMARK   14  A    between atoms: C_31  and  O_33
REMARK                            x       y       z     vdW  Elec       q    Type
REMARK                         _______ _______ _______ _____ _____    ______ ____
ROOT
ATOM      1  C   UNL     1       8.421  -4.116  25.400  0.00  0.00    +0.253 C 
ATOM      2  C   UNL     1       8.941  -3.343  24.177  0.00  0.00    +0.195 C 
ATOM      3  C   UNL     1       8.591  -1.876  24.455  0.00  0.00    +0.178 C 
ATOM      4  C   UNL     1       7.950  -1.891  25.842  0.00  0.00    +0.178 C 
ATOM      5  O   UNL     1       8.372  -3.122  26.462  0.00  0.00    -0.346 OA
ENDROOT
BRANCH   1  17
ATOM      6  N   UNL     1       6.388  -7.077  29.301  0.00  0.00    -0.329 N 
ATOM      7  H   UNL     1       5.614  -7.327  29.900  0.00  0.00    +0.145 HD
ATOM      8  H   UNL     1       7.075  -6.485  29.756  0.00  0.00    +0.145 HD
ATOM      9  C   UNL     1       6.099  -6.670  28.039  0.00  0.00    +0.195 A 
ATOM     10  N   UNL     1       4.951  -7.200  27.483  0.00  0.00    -0.293 N 
ATOM     11  H   UNL     1       4.422  -7.897  27.979  0.00  0.00    +0.172 HD
ATOM     12  C   UNL     1       4.475  -6.887  26.225  0.00  0.00    +0.280 A 
ATOM     13  O   UNL     1       3.437  -7.394  25.772  0.00  0.00    -0.265 OA
ATOM     14  C   UNL     1       5.322  -5.944  25.533  0.00  0.00    +0.172 A 
ATOM     15  N   UNL     1       5.195  -5.379  24.293  0.00  0.00    -0.229 NA
ATOM     16  C   UNL     1       6.270  -4.629  24.170  0.00  0.00    +0.203 A 
ATOM     17  N   UNL     1       7.113  -4.737  25.252  0.00  0.00    -0.285 N 
ATOM     18  C   UNL     1       6.461  -5.511  26.175  0.00  0.00    +0.171 A 
ATOM     19  N   UNL     1       6.881  -5.820  27.426  0.00  0.00    -0.196 NA
ENDBRANCH   1  17
BRANCH   2  20
ATOM     20  O   UNL     1      10.378  -3.471  24.080  0.00  0.00    -0.385 OA
ATOM     21  H   UNL     1      10.584  -4.140  23.404  0.00  0.00    +0.210 HD
ENDBRANCH   2  20
BRANCH   3  22
ATOM     22  O   UNL     1       7.679  -1.387  23.476  0.00  0.00    -0.386 OA
ATOM     23  H   UNL     1       6.790  -1.382  23.875  0.00  0.00    +0.210 HD
ENDBRANCH   3  22
BRANCH   4  24
ATOM     24  C   UNL     1       8.317  -0.698  26.730  0.00  0.00    +0.206 C 
BRANCH  24  25
ATOM     25  O   UNL     1       7.182   0.115  26.993  0.00  0.00    -0.284 OA
BRANCH  25  26
ATOM     26  P   UNL     1       6.754   1.213  25.894  0.00  0.00    +0.483 P 
ATOM     27  O   UNL     1       6.030   0.724  24.689  0.00  0.00    -0.227 OA
BRANCH  26  28
ATOM     28  O   UNL     1       5.797   2.174  26.754  0.00  0.00    -0.302 OA
ATOM     29  H   UNL     1       5.925   3.103  26.483  0.00  0.00    +0.222 HD
ENDBRANCH  26  28
BRANCH  26  30
ATOM     30  O   UNL     1       7.997   2.163  25.716  0.00  0.00    -0.196 OA
BRANCH  30  31
ATOM     31  P   UNL     1       8.461   3.107  24.519  0.00  0.00    +0.423 P 
ATOM     32  O   UNL     1       7.087   3.685  24.265  0.00  0.00    -0.239 OA
BRANCH  31  33
ATOM     33  N   UNL     1       8.838   3.145  22.958  0.00  0.00    -0.125 NA
ATOM     34  H   UNL     1       9.548   3.834  22.770  0.00  0.00    +0.146 HD
BRANCH  33  35
ATOM     35  P   UNL     1       9.237   1.576  22.221  0.00  0.00    +0.412 P 
ATOM     36  O   UNL     1       9.585   0.210  21.580  0.00  0.00    -0.240 OA
BRANCH  35  37
ATOM     37  O   UNL     1      10.465   2.315  21.439  0.00  0.00    -0.312 OA
ATOM     38  H   UNL     1      10.063   2.775  20.672  0.00  0.00    +0.221 HD
ENDBRANCH  35  37
BRANCH  35  39
ATOM     39  O   UNL     1       8.100   1.931  21.098  0.00  0.00    -0.312 OA
ATOM     40  H   UNL     1       8.383   2.754  20.657  0.00  0.00    +0.221 HD
ENDBRANCH  35  39
ENDBRANCH  33  35
ENDBRANCH  31  33
BRANCH  31  41
ATOM     41  O   UNL     1       8.746   1.540  24.054  0.00  0.00    -0.312 OA
ATOM     42  H   UNL     1       9.511   1.533  23.451  0.00  0.00    +0.221 HD
ENDBRANCH  31  41
ENDBRANCH  30  31
ENDBRANCH  26  30
ENDBRANCH  25  26
ENDBRANCH  24  25
ENDBRANCH   4  24
TORSDOF 14
ENDMDL
MODEL 8
REMARK VINA RESULT:      -6.4      3.886      8.350
REMARK  Name = 
REMARK  14 active torsions:
REMARK  status: ('A' for Active; 'I' for Inactive)
REMARK    1  A    between atoms: N_8  and  C_9
REMARK    2  A    between atoms: C_12  and  C_14
REMARK    3  A    between atoms: C_14  and  O_15
REMARK    4  A    between atoms: O_15  and  P_16
REMARK    5  A    between atoms: P_16  and  O_17
REMARK    6  A    between atoms: P_16  and  O_19
REMARK    7  A    between atoms: O_19  and  P_20
REMARK    8  A    between atoms: P_20  and  O_21
REMARK    9  A    between atoms: P_20  and  N_23
REMARK   10  A    between atoms: N_23  and  P_24
REMARK   11  A    between atoms: P_24  and  O_25
REMARK   12  A    between atoms: P_24  and  O_26
REMARK   13  A    between atoms: C_28  and  O_30
REMARK   14  A    between atoms: C_31  and  O_33
REMARK                            x       y       z     vdW  Elec       q    Type
REMARK                         _______ _______ _______ _____ _____    ______ ____
ROOT
ATOM      1  C   UNL     1       6.408  -5.605  23.650  0.00  0.00    +0.253 C 
ATOM      2  C   UNL     1       6.593  -4.934  22.279  0.00  0.00    +0.195 C 
ATOM      3  C   UNL     1       7.472  -3.708  22.552  0.00  0.00    +0.178 C 
ATOM      4  C   UNL     1       7.787  -3.786  24.046  0.00  0.00    +0.178 C 
ATOM      5  O   UNL     1       7.551  -5.155  24.430  0.00  0.00    -0.346 OA
ENDROOT
BRANCH   1  17
ATOM      6  N   UNL     1       5.501  -7.542  28.502  0.00  0.00    -0.329 N 
ATOM      7  H   UNL     1       5.210  -7.406  29.460  0.00  0.00    +0.145 HD
ATOM      8  H   UNL     1       6.509  -7.585  28.389  0.00  0.00    +0.145 HD
ATOM      9  C   UNL     1       4.900  -6.784  27.551  0.00  0.00    +0.195 A 
ATOM     10  N   UNL     1       3.602  -6.398  27.819  0.00  0.00    -0.293 N 
ATOM     11  H   UNL     1       3.133  -6.733  28.643  0.00  0.00    +0.172 HD
ATOM     12  C   UNL     1       2.835  -5.604  26.990  0.00  0.00    +0.280 A 
ATOM     13  O   UNL     1       1.670  -5.288  27.279  0.00  0.00    -0.265 OA
ATOM     14  C   UNL     1       3.536  -5.223  25.786  0.00  0.00    +0.172 A 
ATOM     15  N   UNL     1       3.137  -4.443  24.734  0.00  0.00    -0.229 NA
ATOM     16  C   UNL     1       4.163  -4.469  23.909  0.00  0.00    +0.203 A 
ATOM     17  N   UNL     1       5.177  -5.283  24.357  0.00  0.00    -0.285 N 
ATOM     18  C   UNL     1       4.817  -5.698  25.611  0.00  0.00    +0.171 A 
ATOM     19  N   UNL     1       5.549  -6.454  26.464  0.00  0.00    -0.196 NA
ENDBRANCH   1  17
BRANCH   2  20
ATOM     20  O   UNL     1       7.294  -5.822  21.378  0.00  0.00    -0.385 OA
ATOM     21  H   UNL     1       7.850  -5.287  20.786  0.00  0.00    +0.210 HD
ENDBRANCH   2  20
BRANCH   3  22
ATOM     22  O   UNL     1       6.767  -2.509  22.240  0.00  0.00    -0.386 OA
ATOM     23  H   UNL     1       6.272  -2.664  21.414  0.00  0.00    +0.210 HD
ENDBRANCH   3  22
BRANCH   4  24
ATOM     24  C   UNL     1       9.212  -3.367  24.422  0.00  0.00    +0.206 C 
BRANCH  24  25
ATOM     25  O   UNL     1       9.688  -2.340  23.565  0.00  0.00    -0.284 OA
BRANCH  25  26
ATOM     26  P   UNL     1       9.476  -0.806  24.014  0.00  0.00    +0.483 P 
ATOM     27  O   UNL     1       9.376  -0.533  25.473  0.00  0.00    -0.227 OA
BRANCH  26  28
ATOM     28  O   UNL     1      10.795  -0.110  23.417  0.00  0.00    -0.302 OA
ATOM     29  H   UNL     1      11.483  -0.783  23.255  0.00  0.00    +0.222 HD
ENDBRANCH  26  28
BRANCH  26  30
ATOM     30  O   UNL     1       8.394  -0.209  23.039  0.00  0.00    -0.196 OA
BRANCH  30  31
ATOM     31  P   UNL     1       8.401   1.066  22.084  0.00  0.00    +0.423 P 
ATOM     32  O   UNL     1       9.564   0.595  21.241  0.00  0.00    -0.239 OA
BRANCH  31  33
ATOM     33  N   UNL     1       8.850   2.604  21.962  0.00  0.00    -0.125 NA
ATOM     34  H   UNL     1       8.293   3.094  21.282  0.00  0.00    +0.146 HD
BRANCH  33  35
ATOM     35  P   UNL     1       8.952   3.502  23.495  0.00  0.00    +0.412 P 
ATOM     36  O   UNL     1       9.040   4.283  24.829  0.00  0.00    -0.240 OA
BRANCH  35  37
ATOM     37  O   UNL     1       8.346   4.800  22.713  0.00  0.00    -0.312 OA
ATOM     38  H   UNL     1       8.636   4.718  21.780  0.00  0.00    +0.221 HD
ENDBRANCH  35  37
BRANCH  35  39
ATOM     39  O   UNL     1      10.513   3.795  23.099  0.00  0.00    -0.312 OA
ATOM     40  H   UNL     1      10.513   4.548  22.478  0.00  0.00    +0.221 HD
ENDBRANCH  35  39
ENDBRANCH  33  35
ENDBRANCH  31  33
BRANCH  31  41
ATOM     41  O   UNL     1       8.718   1.598  23.623  0.00  0.00    -0.312 OA
ATOM     42  H   UNL     1       8.054   1.214  24.224  0.00  0.00    +0.221 HD
ENDBRANCH  31  41
ENDBRANCH  30  31
ENDBRANCH  26  30
ENDBRANCH  25  26
ENDBRANCH  24  25
ENDBRANCH   4  24
TORSDOF 14
ENDMDL
MODEL 9
REMARK VINA RESULT:      -6.4      2.708      3.816
REMARK  Name = 
REMARK  14 active torsions:
REMARK  status: ('A' for Active; 'I' for Inactive)
REMARK    1  A    between atoms: N_8  and  C_9
REMARK    2  A    between atoms: C_12  and  C_14
REMARK    3  A    between atoms: C_14  and  O_15
REMARK    4  A    between atoms: O_15  and  P_16
REMARK    5  A    between atoms: P_16  and  O_17
REMARK    6  A    between atoms: P_16  and  O_19
REMARK    7  A    between atoms: O_19  and  P_20
REMARK    8  A    between atoms: P_20  and  O_21
REMARK    9  A    between atoms: P_20  and  N_23
REMARK   10  A    between atoms: N_23  and  P_24
REMARK   11  A    between atoms: P_24  and  O_25
REMARK   12  A    between atoms: P_24  and  O_26
REMARK   13  A    between atoms: C_28  and  O_30
REMARK   14  A    between atoms: C_31  and  O_33
REMARK                            x       y       z     vdW  Elec       q    Type
REMARK                         _______ _______ _______ _____ _____    ______ ____
ROOT
ATOM      1  C   UNL     1       7.706   0.552  23.955  0.00  0.00    +0.253 C 
ATOM      2  C   UNL     1       7.628  -0.588  22.926  0.00  0.00    +0.195 C 
ATOM      3  C   UNL     1       8.439  -1.735  23.541  0.00  0.00    +0.178 C 
ATOM      4  C   UNL     1       8.878  -1.206  24.906  0.00  0.00    +0.178 C 
ATOM      5  O   UNL     1       7.984  -0.118  25.217  0.00  0.00    -0.346 OA
ENDROOT
BRANCH   1  17
ATOM      6  N   UNL     1       7.503   5.229  26.446  0.00  0.00    -0.329 N 
ATOM      7  H   UNL     1       7.958   5.965  26.967  0.00  0.00    +0.145 HD
ATOM      8  H   UNL     1       6.958   4.601  27.028  0.00  0.00    +0.145 HD
ATOM      9  C   UNL     1       8.240   4.572  25.515  0.00  0.00    +0.195 A 
ATOM     10  N   UNL     1       9.250   5.303  24.920  0.00  0.00    -0.293 N 
ATOM     11  H   UNL     1       9.361   6.280  25.133  0.00  0.00    +0.172 HD
ATOM     12  C   UNL     1      10.123   4.804  23.974  0.00  0.00    +0.280 A 
ATOM     13  O   UNL     1      11.013   5.507  23.469  0.00  0.00    -0.265 OA
ATOM     14  C   UNL     1       9.859   3.422  23.653  0.00  0.00    +0.172 A 
ATOM     15  N   UNL     1      10.496   2.572  22.790  0.00  0.00    -0.229 NA
ATOM     16  C   UNL     1       9.808   1.452  22.874  0.00  0.00    +0.203 A 
ATOM     17  N   UNL     1       8.720   1.566  23.708  0.00  0.00    -0.285 N 
ATOM     18  C   UNL     1       8.802   2.805  24.285  0.00  0.00    +0.171 A 
ATOM     19  N   UNL     1       7.983   3.321  25.234  0.00  0.00    -0.196 NA
ENDBRANCH   1  17
BRANCH   2  20
ATOM     20  O   UNL     1       6.258  -1.019  22.761  0.00  0.00    -0.385 OA
ATOM     21  H   UNL     1       5.678  -0.241  22.831  0.00  0.00    +0.210 HD
ENDBRANCH   2  20
BRANCH   3  22
ATOM     22  O   UNL     1       9.566  -2.042  22.725  0.00  0.00    -0.386 OA
ATOM     23  H   UNL     1       9.439  -1.599  21.866  0.00  0.00    +0.210 HD
ENDBRANCH   3  22
BRANCH   4  24
ATOM     24  C   UNL     1       8.858  -2.246  26.032  0.00  0.00    +0.206 C 
BRANCH  24  25
ATOM     25  O   UNL     1       7.949  -3.298  25.742  0.00  0.00    -0.284 OA
BRANCH  25  26
ATOM     26  P   UNL     1       8.499  -4.814  25.756  0.00  0.00    +0.483 P 
ATOM     27  O   UNL     1       9.349  -5.239  24.611  0.00  0.00    -0.227 OA
BRANCH  26  28
ATOM     28  O   UNL     1       9.359  -4.832  27.112  0.00  0.00    -0.302 OA
ATOM     29  H   UNL     1       9.795  -3.969  27.242  0.00  0.00    +0.222 HD
ENDBRANCH  26  28
BRANCH  26  30
ATOM     30  O   UNL     1       7.286  -5.716  26.196  0.00  0.00    -0.196 OA
BRANCH  30  31
ATOM     31  P   UNL     1       5.709  -5.523  26.073  0.00  0.00    +0.423 P 
ATOM     32  O   UNL     1       5.368  -6.924  26.527  0.00  0.00    -0.239 OA
BRANCH  31  33
ATOM     33  N   UNL     1       4.475  -5.486  25.045  0.00  0.00    -0.125 NA
ATOM     34  H   UNL     1       3.893  -4.679  25.202  0.00  0.00    +0.146 HD
BRANCH  33  35
ATOM     35  P   UNL     1       4.896  -5.663  23.325  0.00  0.00    +0.412 P 
ATOM     36  O   UNL     1       5.263  -5.817  21.829  0.00  0.00    -0.240 OA
BRANCH  35  37
ATOM     37  O   UNL     1       3.366  -5.227  22.960  0.00  0.00    -0.312 OA
ATOM     38  H   UNL     1       3.053  -5.866  22.286  0.00  0.00    +0.221 HD
ENDBRANCH  35  37
BRANCH  35  39
ATOM     39  O   UNL     1       4.564  -7.255  23.516  0.00  0.00    -0.312 OA
ATOM     40  H   UNL     1       3.611  -7.370  23.339  0.00  0.00    +0.221 HD
ENDBRANCH  35  39
ENDBRANCH  33  35
ENDBRANCH  31  33
BRANCH  31  41
ATOM     41  O   UNL     1       6.352  -5.331  24.555  0.00  0.00    -0.312 OA
ATOM     42  H   UNL     1       6.829  -4.482  24.529  0.00  0.00    +0.221 HD
ENDBRANCH  31  41
ENDBRANCH  30  31
ENDBRANCH  26  30
ENDBRANCH  25  26
ENDBRANCH  24  25
ENDBRANCH   4  24
TORSDOF 14
ENDMDL
