MODEL 1
REMARK VINA RESULT:      -5.5      0.000      0.000
REMARK  Name = 
REMARK  13 active torsions:
REMARK  status: ('A' for Active; 'I' for Inactive)
REMARK    1  A    between atoms: N_1  and  C_2
REMARK    2  A    between atoms: C_2  and  C_4
REMARK    3  A    between atoms: C_2  and  C_20
REMARK    4  A    between atoms: C_4  and  C_5
REMARK    5  A    between atoms: C_5  and  C_6
REMARK    6  A    between atoms: N_8  and  C_9
REMARK    7  A    between atoms: C_9  and  C_11
REMARK    8  A    between atoms: C_9  and  C_13
REMARK    9  A    between atoms: C_11  and  S_12
REMARK   10  A    between atoms: N_15  and  CA_16
REMARK   11  A    between atoms: CA_16  and  C_17
REMARK   12  A    between atoms: C_17  and  O_18
REMARK   13  A    between atoms: C_20  and  O_21
REMARK                            x       y       z     vdW  Elec       q    Type
REMARK                         _______ _______ _______ _____ _____    ______ ____
ROOT
ATOM      1  C   UNK A   1       7.928   2.723  22.079  0.00  0.00    +0.214 C 
ATOM      2  N   UNK A   1       8.870   3.384  22.834  0.00  0.00    -0.303 N 
ATOM      3  H   UNK A   1       9.760   2.928  23.014  0.00  0.00    +0.149 HD
ATOM      4  O   UNK A   1       6.774   3.121  21.953  0.00  0.00    -0.276 OA
ENDROOT
BRANCH   1   5
ATOM      5  C   UNK A   1       8.424   1.466  21.397  0.00  0.00    +0.098 C 
BRANCH   5   6
ATOM      6  C   UNK A   1       9.873   1.192  21.815  0.00  0.00    +0.039 C 
BRANCH   6   7
ATOM      7  C   UNK A   1      10.040   0.084  22.859  0.00  0.00    +0.161 C 
BRANCH   7   8
ATOM      8  N   UNK A   1       8.800  -0.720  23.057  0.00  0.00    -0.318 NA
ATOM      9  H   UNK A   1       9.044  -1.695  23.252  0.00  0.00    +0.119 HD
ATOM     10  H   UNK A   1       8.367  -0.405  23.933  0.00  0.00    +0.119 HD
ENDBRANCH   7   8
BRANCH   7  11
ATOM     11  C   UNK A   1      10.484   0.667  24.211  0.00  0.00    +0.322 C 
ATOM     12  O   UNK A   1      10.435   0.078  25.279  0.00  0.00    -0.249 OA
BRANCH  11  13
ATOM     13  O   UNK A   1      10.980   1.922  24.067  0.00  0.00    -0.480 OA
ATOM     14  H   UNK A   1      11.951   1.808  23.904  0.00  0.00    +0.295 HD
ENDBRANCH  11  13
ENDBRANCH   7  11
ENDBRANCH   6   7
ENDBRANCH   5   6
ENDBRANCH   1   5
BRANCH   2  15
ATOM     15  C   UNK A   1       8.498   4.522  23.682  0.00  0.00    +0.168 C 
BRANCH  15  16
ATOM     16  C   UNK A   1       9.682   5.508  23.734  0.00  0.00    +0.235 C 
ATOM     17  N   GLY A   2      10.924   4.932  23.529  0.00  0.00    -0.303 N 
ATOM     18  H   GLY A   2      10.991   3.923  23.635  0.00  0.00    +0.149 HD
ATOM     19  O   UNK A   1       9.551   6.723  23.820  0.00  0.00    -0.274 OA
BRANCH  17  20
ATOM     20  CA  GLY A   2      12.148   5.722  23.711  0.00  0.00    +0.224 C 
BRANCH  20  21
ATOM     21  C   GLY A   2      13.255   5.413  22.701  0.00  0.00    +0.322 C 
ATOM     22  OXT GLY A   2      13.135   5.566  21.495  0.00  0.00    -0.249 OA
BRANCH  21  23
ATOM     23  O   GLY A   2      14.408   4.995  23.274  0.00  0.00    -0.480 OA
ATOM     24  H   GLY A   2      14.724   4.182  22.835  0.00  0.00    +0.295 HD
ENDBRANCH  21  23
ENDBRANCH  20  21
ENDBRANCH  17  20
ENDBRANCH  15  16
BRANCH  15  25
ATOM     25  C   UNK A   1       8.098   4.140  25.119  0.00  0.00    +0.097 C 
BRANCH  25  26
ATOM     26  S   UNK A   1       6.304   4.046  25.440  0.00  0.00    -0.176 S 
ATOM     27  H   UNK A   1       6.299   2.822  26.002  0.00  0.00    +0.102 HD
ENDBRANCH  25  26
ENDBRANCH  15  25
ENDBRANCH   2  15
TORSDOF 13
ENDMDL
MODEL 2
REMARK VINA RESULT:      -5.4      4.349      7.924
REMARK  Name = 
REMARK  13 active torsions:
REMARK  status: ('A' for Active; 'I' for Inactive)
REMARK    1  A    between atoms: N_1  and  C_2
REMARK    2  A    between atoms: C_2  and  C_4
REMARK    3  A    between atoms: C_2  and  C_20
REMARK    4  A    between atoms: C_4  and  C_5
REMARK    5  A    between atoms: C_5  and  C_6
REMARK    6  A    between atoms: N_8  and  C_9
REMARK    7  A    between atoms: C_9  and  C_11
REMARK    8  A    between atoms: C_9  and  C_13
REMARK    9  A    between atoms: C_11  and  S_12
REMARK   10  A    between atoms: N_15  and  CA_16
REMARK   11  A    between atoms: CA_16  and  C_17
REMARK   12  A    between atoms: C_17  and  O_18
REMARK   13  A    between atoms: C_20  and  O_21
REMARK                            x       y       z     vdW  Elec       q    Type
REMARK                         _______ _______ _______ _____ _____    ______ ____
ROOT
ATOM      1  C   UNK A   1       9.701  -1.352  22.518  0.00  0.00    +0.214 C 
ATOM      2  N   UNK A   1       8.721  -1.675  23.428  0.00  0.00    -0.303 N 
ATOM      3  H   UNK A   1       7.902  -1.077  23.497  0.00  0.00    +0.149 HD
ATOM      4  O   UNK A   1      10.790  -1.915  22.482  0.00  0.00    -0.276 OA
ENDROOT
BRANCH   1   5
ATOM      5  C   UNK A   1       9.334  -0.250  21.547  0.00  0.00    +0.098 C 
BRANCH   5   6
ATOM      6  C   UNK A   1       8.481   0.803  22.264  0.00  0.00    +0.039 C 
BRANCH   6   7
ATOM      7  C   UNK A   1       9.246   2.052  22.709  0.00  0.00    +0.161 C 
BRANCH   7   8
ATOM      8  N   UNK A   1      10.352   2.420  21.778  0.00  0.00    -0.318 NA
ATOM      9  H   UNK A   1      10.404   1.741  21.013  0.00  0.00    +0.119 HD
ATOM     10  H   UNK A   1      10.077   3.288  21.304  0.00  0.00    +0.119 HD
ENDBRANCH   7   8
BRANCH   7  11
ATOM     11  C   UNK A   1       9.819   1.870  24.124  0.00  0.00    +0.322 C 
ATOM     12  O   UNK A   1      10.882   1.330  24.387  0.00  0.00    -0.249 OA
BRANCH  11  13
ATOM     13  O   UNK A   1       9.005   2.422  25.059  0.00  0.00    -0.480 OA
ATOM     14  H   UNK A   1       9.341   3.344  25.195  0.00  0.00    +0.295 HD
ENDBRANCH  11  13
ENDBRANCH   7  11
ENDBRANCH   6   7
ENDBRANCH   5   6
ENDBRANCH   1   5
BRANCH   2  15
ATOM     15  C   UNK A   1       8.987  -2.605  24.531  0.00  0.00    +0.168 C 
BRANCH  15  16
ATOM     16  C   UNK A   1       8.661  -4.036  24.060  0.00  0.00    +0.235 C 
ATOM     17  N   GLY A   2       7.712  -4.114  23.056  0.00  0.00    -0.303 N 
ATOM     18  H   GLY A   2       7.127  -3.295  22.905  0.00  0.00    +0.149 HD
ATOM     19  O   UNK A   1       9.269  -5.031  24.439  0.00  0.00    -0.274 OA
BRANCH  17  20
ATOM     20  CA  GLY A   2       7.189  -5.417  22.627  0.00  0.00    +0.224 C 
BRANCH  20  21
ATOM     21  C   GLY A   2       6.083  -5.337  21.573  0.00  0.00    +0.322 C 
ATOM     22  OXT GLY A   2       5.772  -4.309  20.991  0.00  0.00    -0.249 OA
BRANCH  21  23
ATOM     23  O   GLY A   2       5.504  -6.531  21.306  0.00  0.00    -0.480 OA
ATOM     24  H   GLY A   2       5.980  -7.246  21.770  0.00  0.00    +0.295 HD
ENDBRANCH  21  23
ENDBRANCH  20  21
ENDBRANCH  17  20
ENDBRANCH  15  16
BRANCH  15  25
ATOM     25  C   UNK A   1       8.198  -2.306  25.818  0.00  0.00    +0.097 C 
BRANCH  25  26
ATOM     26  S   UNK A   1       8.695  -0.797  26.716  0.00  0.00    -0.176 S 
ATOM     27  H   UNK A   1       9.113  -0.096  25.644  0.00  0.00    +0.102 HD
ENDBRANCH  25  26
ENDBRANCH  15  25
ENDBRANCH   2  15
TORSDOF 13
ENDMDL
MODEL 3
REMARK VINA RESULT:      -5.3      5.363      7.491
REMARK  Name = 
REMARK  13 active torsions:
REMARK  status: ('A' for Active; 'I' for Inactive)
REMARK    1  A    between atoms: N_1  and  C_2
REMARK    2  A    between atoms: C_2  and  C_4
REMARK    3  A    between atoms: C_2  and  C_20
REMARK    4  A    between atoms: C_4  and  C_5
REMARK    5  A    between atoms: C_5  and  C_6
REMARK    6  A    between atoms: N_8  and  C_9
REMARK    7  A    between atoms: C_9  and  C_11
REMARK    8  A    between atoms: C_9  and  C_13
REMARK    9  A    between atoms: C_11  and  S_12
REMARK   10  A    between atoms: N_15  and  CA_16
REMARK   11  A    between atoms: CA_16  and  C_17
REMARK   12  A    between atoms: C_17  and  O_18
REMARK   13  A    between atoms: C_20  and  O_21
REMARK                            x       y       z     vdW  Elec       q    Type
REMARK                         _______ _______ _______ _____ _____    ______ ____
ROOT
ATOM      1  C   UNK A   1       9.177  -4.119  25.170  0.00  0.00    +0.214 C 
ATOM      2  N   UNK A   1       8.416  -3.145  24.566  0.00  0.00    -0.303 N 
ATOM      3  H   UNK A   1       7.591  -2.800  25.049  0.00  0.00    +0.149 HD
ATOM      4  O   UNK A   1      10.086  -4.709  24.594  0.00  0.00    -0.276 OA
ENDROOT
BRANCH   1   5
ATOM      5  C   UNK A   1       8.822  -4.404  26.613  0.00  0.00    +0.098 C 
BRANCH   5   6
ATOM      6  C   UNK A   1       7.340  -4.089  26.849  0.00  0.00    +0.039 C 
BRANCH   6   7
ATOM      7  C   UNK A   1       6.510  -5.265  27.371  0.00  0.00    +0.161 C 
BRANCH   7   8
ATOM      8  N   UNK A   1       7.325  -6.268  28.115  0.00  0.00    -0.318 NA
ATOM      9  H   UNK A   1       8.015  -5.790  28.702  0.00  0.00    +0.119 HD
ATOM     10  H   UNK A   1       6.706  -6.719  28.798  0.00  0.00    +0.119 HD
ENDBRANCH   7   8
BRANCH   7  11
ATOM     11  C   UNK A   1       5.773  -5.969  26.219  0.00  0.00    +0.322 C 
ATOM     12  O   UNK A   1       5.135  -7.005  26.323  0.00  0.00    -0.249 OA
BRANCH  11  13
ATOM     13  O   UNK A   1       5.886  -5.269  25.062  0.00  0.00    -0.480 OA
ATOM     14  H   UNK A   1       5.766  -4.318  25.312  0.00  0.00    +0.295 HD
ENDBRANCH  11  13
ENDBRANCH   7  11
ENDBRANCH   6   7
ENDBRANCH   5   6
ENDBRANCH   1   5
BRANCH   2  15
ATOM     15  C   UNK A   1       8.533  -2.875  23.129  0.00  0.00    +0.168 C 
BRANCH  15  16
ATOM     16  C   UNK A   1       9.586  -1.769  22.918  0.00  0.00    +0.235 C 
ATOM     17  N   GLY A   2       9.241  -0.534  23.440  0.00  0.00    -0.303 N 
ATOM     18  H   GLY A   2       8.260  -0.381  23.661  0.00  0.00    +0.149 HD
ATOM     19  O   UNK A   1      10.698  -1.971  22.444  0.00  0.00    -0.274 OA
BRANCH  17  20
ATOM     20  CA  GLY A   2      10.074   0.645  23.171  0.00  0.00    +0.224 C 
BRANCH  20  21
ATOM     21  C   GLY A   2       9.666   1.436  21.928  0.00  0.00    +0.322 C 
ATOM     22  OXT GLY A   2       8.681   1.178  21.252  0.00  0.00    -0.249 OA
BRANCH  21  23
ATOM     23  O   GLY A   2      10.476   2.489  21.667  0.00  0.00    -0.480 OA
ATOM     24  H   GLY A   2      10.546   2.626  20.703  0.00  0.00    +0.295 HD
ENDBRANCH  21  23
ENDBRANCH  20  21
ENDBRANCH  17  20
ENDBRANCH  15  16
BRANCH  15  25
ATOM     25  C   UNK A   1       7.216  -2.452  22.453  0.00  0.00    +0.097 C 
BRANCH  25  26
ATOM     26  S   UNK A   1       6.177  -3.816  21.827  0.00  0.00    -0.176 S 
ATOM     27  H   UNK A   1       6.803  -3.974  20.646  0.00  0.00    +0.102 HD
ENDBRANCH  25  26
ENDBRANCH  15  25
ENDBRANCH   2  15
TORSDOF 13
ENDMDL
MODEL 4
REMARK VINA RESULT:      -5.2      4.331      5.845
REMARK  Name = 
REMARK  13 active torsions:
REMARK  status: ('A' for Active; 'I' for Inactive)
REMARK    1  A    between atoms: N_1  and  C_2
REMARK    2  A    between atoms: C_2  and  C_4
REMARK    3  A    between atoms: C_2  and  C_20
REMARK    4  A    between atoms: C_4  and  C_5
REMARK    5  A    between atoms: C_5  and  C_6
REMARK    6  A    between atoms: N_8  and  C_9
REMARK    7  A    between atoms: C_9  and  C_11
REMARK    8  A    between atoms: C_9  and  C_13
REMARK    9  A    between atoms: C_11  and  S_12
REMARK   10  A    between atoms: N_15  and  CA_16
REMARK   11  A    between atoms: CA_16  and  C_17
REMARK   12  A    between atoms: C_17  and  O_18
REMARK   13  A    between atoms: C_20  and  O_21
REMARK                            x       y       z     vdW  Elec       q    Type
REMARK                         _______ _______ _______ _____ _____    ______ ____
ROOT
ATOM      1  C   UNK A   1       6.164  -3.145  23.365  0.00  0.00    +0.214 C 
ATOM      2  N   UNK A   1       6.897  -2.111  23.900  0.00  0.00    -0.303 N 
ATOM      3  H   UNK A   1       7.212  -2.183  24.863  0.00  0.00    +0.149 HD
ATOM      4  O   UNK A   1       5.604  -3.073  22.275  0.00  0.00    -0.276 OA
ENDROOT
BRANCH   1   5
ATOM      5  C   UNK A   1       6.108  -4.395  24.216  0.00  0.00    +0.098 C 
BRANCH   5   6
ATOM      6  C   UNK A   1       6.972  -4.204  25.467  0.00  0.00    +0.039 C 
BRANCH   6   7
ATOM      7  C   UNK A   1       8.071  -5.255  25.654  0.00  0.00    +0.161 C 
BRANCH   7   8
ATOM      8  N   UNK A   1       8.288  -5.622  27.082  0.00  0.00    -0.318 NA
ATOM      9  H   UNK A   1       7.634  -6.361  27.356  0.00  0.00    +0.119 HD
ATOM     10  H   UNK A   1       9.204  -6.083  27.144  0.00  0.00    +0.119 HD
ENDBRANCH   7   8
BRANCH   7  11
ATOM     11  C   UNK A   1       9.399  -4.772  25.049  0.00  0.00    +0.322 C 
ATOM     12  O   UNK A   1       9.526  -3.803  24.317  0.00  0.00    -0.249 OA
BRANCH  11  13
ATOM     13  O   UNK A   1      10.438  -5.542  25.464  0.00  0.00    -0.480 OA
ATOM     14  H   UNK A   1      10.100  -6.473  25.454  0.00  0.00    +0.295 HD
ENDBRANCH  11  13
ENDBRANCH   7  11
ENDBRANCH   6   7
ENDBRANCH   5   6
ENDBRANCH   1   5
BRANCH   2  15
ATOM     15  C   UNK A   1       6.908  -0.786  23.271  0.00  0.00    +0.168 C 
BRANCH  15  16
ATOM     16  C   UNK A   1       8.359  -0.432  22.890  0.00  0.00    +0.235 C 
ATOM     17  N   GLY A   2       9.056   0.274  23.855  0.00  0.00    -0.303 N 
ATOM     18  H   GLY A   2       8.510   0.728  24.584  0.00  0.00    +0.149 HD
ATOM     19  O   UNK A   1       8.915  -0.839  21.876  0.00  0.00    -0.274 OA
BRANCH  17  20
ATOM     20  CA  GLY A   2      10.389   0.816  23.562  0.00  0.00    +0.224 C 
BRANCH  20  21
ATOM     21  C   GLY A   2      10.378   2.184  22.878  0.00  0.00    +0.322 C 
ATOM     22  OXT GLY A   2      10.648   3.230  23.448  0.00  0.00    -0.249 OA
BRANCH  21  23
ATOM     23  O   GLY A   2      10.084   2.126  21.558  0.00  0.00    -0.480 OA
ATOM     24  H   GLY A   2       9.539   1.338  21.371  0.00  0.00    +0.295 HD
ENDBRANCH  21  23
ENDBRANCH  20  21
ENDBRANCH  17  20
ENDBRANCH  15  16
BRANCH  15  25
ATOM     25  C   UNK A   1       6.329   0.339  24.148  0.00  0.00    +0.097 C 
BRANCH  25  26
ATOM     26  S   UNK A   1       5.581  -0.196  25.724  0.00  0.00    -0.176 S 
ATOM     27  H   UNK A   1       4.305  -0.235  25.298  0.00  0.00    +0.102 HD
ENDBRANCH  25  26
ENDBRANCH  15  25
ENDBRANCH   2  15
TORSDOF 13
ENDMDL
MODEL 5
REMARK VINA RESULT:      -5.2      3.392      7.298
REMARK  Name = 
REMARK  13 active torsions:
REMARK  status: ('A' for Active; 'I' for Inactive)
REMARK    1  A    between atoms: N_1  and  C_2
REMARK    2  A    between atoms: C_2  and  C_4
REMARK    3  A    between atoms: C_2  and  C_20
REMARK    4  A    between atoms: C_4  and  C_5
REMARK    5  A    between atoms: C_5  and  C_6
REMARK    6  A    between atoms: N_8  and  C_9
REMARK    7  A    between atoms: C_9  and  C_11
REMARK    8  A    between atoms: C_9  and  C_13
REMARK    9  A    between atoms: C_11  and  S_12
REMARK   10  A    between atoms: N_15  and  CA_16
REMARK   11  A    between atoms: CA_16  and  C_17
REMARK   12  A    between atoms: C_17  and  O_18
REMARK   13  A    between atoms: C_20  and  O_21
REMARK                            x       y       z     vdW  Elec       q    Type
REMARK                         _______ _______ _______ _____ _____    ______ ____
ROOT
ATOM      1  C   UNK A   1      10.072   0.908  23.400  0.00  0.00    +0.214 C 
ATOM      2  N   UNK A   1       9.291  -0.224  23.414  0.00  0.00    -0.303 N 
ATOM      3  H   UNK A   1       8.614  -0.360  22.668  0.00  0.00    +0.149 HD
ATOM      4  O   UNK A   1      10.791   1.235  24.339  0.00  0.00    -0.276 OA
ENDROOT
BRANCH   1   5
ATOM      5  C   UNK A   1       9.993   1.723  22.127  0.00  0.00    +0.098 C 
BRANCH   5   6
ATOM      6  C   UNK A   1       8.648   1.469  21.437  0.00  0.00    +0.039 C 
BRANCH   6   7
ATOM      7  C   UNK A   1       7.557   2.493  21.764  0.00  0.00    +0.161 C 
BRANCH   7   8
ATOM      8  N   UNK A   1       8.105   3.792  22.247  0.00  0.00    -0.318 NA
ATOM      9  H   UNK A   1       7.812   4.548  21.622  0.00  0.00    +0.119 HD
ATOM     10  H   UNK A   1       7.628   4.017  23.128  0.00  0.00    +0.119 HD
ENDBRANCH   7   8
BRANCH   7  11
ATOM     11  C   UNK A   1       6.580   1.936  22.812  0.00  0.00    +0.322 C 
ATOM     12  O   UNK A   1       6.056   2.590  23.701  0.00  0.00    -0.249 OA
BRANCH  11  13
ATOM     13  O   UNK A   1       6.335   0.617  22.606  0.00  0.00    -0.480 OA
ATOM     14  H   UNK A   1       5.686   0.580  21.858  0.00  0.00    +0.295 HD
ENDBRANCH  11  13
ENDBRANCH   7  11
ENDBRANCH   6   7
ENDBRANCH   5   6
ENDBRANCH   1   5
BRANCH   2  15
ATOM     15  C   UNK A   1       9.137  -1.024  24.634  0.00  0.00    +0.168 C 
BRANCH  15  16
ATOM     16  C   UNK A   1       9.301  -2.514  24.273  0.00  0.00    +0.235 C 
ATOM     17  N   GLY A   2       8.142  -3.263  24.367  0.00  0.00    -0.303 N 
ATOM     18  H   GLY A   2       7.375  -2.868  24.905  0.00  0.00    +0.149 HD
ATOM     19  O   UNK A   1      10.333  -2.992  23.816  0.00  0.00    -0.274 OA
BRANCH  17  20
ATOM     20  CA  GLY A   2       8.186  -4.723  24.210  0.00  0.00    +0.224 C 
BRANCH  20  21
ATOM     21  C   GLY A   2       8.756  -5.470  25.416  0.00  0.00    +0.322 C 
ATOM     22  OXT GLY A   2       8.089  -5.808  26.383  0.00  0.00    -0.249 OA
BRANCH  21  23
ATOM     23  O   GLY A   2      10.071  -5.769  25.296  0.00  0.00    -0.480 OA
ATOM     24  H   GLY A   2      10.587  -4.955  25.147  0.00  0.00    +0.295 HD
ENDBRANCH  21  23
ENDBRANCH  20  21
ENDBRANCH  17  20
ENDBRANCH  15  16
BRANCH  15  25
ATOM     25  C   UNK A   1       7.793  -0.826  25.359  0.00  0.00    +0.097 C 
BRANCH  25  26
ATOM     26  S   UNK A   1       7.907  -0.299  27.102  0.00  0.00    -0.176 S 
ATOM     27  H   UNK A   1       7.343   0.914  26.946  0.00  0.00    +0.102 HD
ENDBRANCH  25  26
ENDBRANCH  15  25
ENDBRANCH   2  15
TORSDOF 13
ENDMDL
MODEL 6
REMARK VINA RESULT:      -5.2      2.058      2.624
REMARK  Name = 
REMARK  13 active torsions:
REMARK  status: ('A' for Active; 'I' for Inactive)
REMARK    1  A    between atoms: N_1  and  C_2
REMARK    2  A    between atoms: C_2  and  C_4
REMARK    3  A    between atoms: C_2  and  C_20
REMARK    4  A    between atoms: C_4  and  C_5
REMARK    5  A    between atoms: C_5  and  C_6
REMARK    6  A    between atoms: N_8  and  C_9
REMARK    7  A    between atoms: C_9  and  C_11
REMARK    8  A    between atoms: C_9  and  C_13
REMARK    9  A    between atoms: C_11  and  S_12
REMARK   10  A    between atoms: N_15  and  CA_16
REMARK   11  A    between atoms: CA_16  and  C_17
REMARK   12  A    between atoms: C_17  and  O_18
REMARK   13  A    between atoms: C_20  and  O_21
REMARK                            x       y       z     vdW  Elec       q    Type
REMARK                         _______ _______ _______ _____ _____    ______ ____
ROOT
ATOM      1  C   UNK A   1      10.148   1.431  23.417  0.00  0.00    +0.214 C 
ATOM      2  N   UNK A   1       9.590   2.331  24.296  0.00  0.00    -0.303 N 
ATOM      3  H   UNK A   1       9.442   2.046  25.260  0.00  0.00    +0.149 HD
ATOM      4  O   UNK A   1      10.208   1.628  22.208  0.00  0.00    -0.276 OA
ENDROOT
BRANCH   1   5
ATOM      5  C   UNK A   1      10.699   0.174  24.056  0.00  0.00    +0.098 C 
BRANCH   5   6
ATOM      6  C   UNK A   1       9.587  -0.873  24.174  0.00  0.00    +0.039 C 
BRANCH   6   7
ATOM      7  C   UNK A   1       9.677  -2.021  23.165  0.00  0.00    +0.161 C 
BRANCH   7   8
ATOM      8  N   UNK A   1      10.294  -1.612  21.871  0.00  0.00    -0.318 NA
ATOM      9  H   UNK A   1       9.992  -0.665  21.625  0.00  0.00    +0.119 HD
ATOM     10  H   UNK A   1      11.302  -1.503  22.034  0.00  0.00    +0.119 HD
ENDBRANCH   7   8
BRANCH   7  11
ATOM     11  C   UNK A   1       8.289  -2.623  22.894  0.00  0.00    +0.322 C 
ATOM     12  O   UNK A   1       8.007  -3.808  22.984  0.00  0.00    -0.249 OA
BRANCH  11  13
ATOM     13  O   UNK A   1       7.388  -1.660  22.574  0.00  0.00    -0.480 OA
ATOM     14  H   UNK A   1       6.641  -1.768  23.216  0.00  0.00    +0.295 HD
ENDBRANCH  11  13
ENDBRANCH   7  11
ENDBRANCH   6   7
ENDBRANCH   5   6
ENDBRANCH   1   5
BRANCH   2  15
ATOM     15  C   UNK A   1       8.871   3.516  23.813  0.00  0.00    +0.168 C 
BRANCH  15  16
ATOM     16  C   UNK A   1       9.795   4.742  23.945  0.00  0.00    +0.235 C 
ATOM     17  N   GLY A   2      11.014   4.621  23.301  0.00  0.00    -0.303 N 
ATOM     18  H   GLY A   2      11.312   3.683  23.043  0.00  0.00    +0.149 HD
ATOM     19  O   UNK A   1       9.452   5.799  24.463  0.00  0.00    -0.274 OA
BRANCH  17  20
ATOM     20  CA  GLY A   2      12.053   5.643  23.479  0.00  0.00    +0.224 C 
BRANCH  20  21
ATOM     21  C   GLY A   2      13.297   5.436  22.613  0.00  0.00    +0.322 C 
ATOM     22  OXT GLY A   2      13.341   5.681  21.417  0.00  0.00    -0.249 OA
BRANCH  21  23
ATOM     23  O   GLY A   2      14.372   4.995  23.308  0.00  0.00    -0.480 OA
ATOM     24  H   GLY A   2      14.771   4.228  22.855  0.00  0.00    +0.295 HD
ENDBRANCH  21  23
ENDBRANCH  20  21
ENDBRANCH  17  20
ENDBRANCH  15  16
BRANCH  15  25
ATOM     25  C   UNK A   1       7.548   3.799  24.548  0.00  0.00    +0.097 C 
BRANCH  25  26
ATOM     26  S   UNK A   1       7.318   2.915  26.127  0.00  0.00    -0.176 S 
ATOM     27  H   UNK A   1       7.513   1.671  25.652  0.00  0.00    +0.102 HD
ENDBRANCH  25  26
ENDBRANCH  15  25
ENDBRANCH   2  15
TORSDOF 13
ENDMDL
MODEL 7
REMARK VINA RESULT:      -5.1      4.608      8.208
REMARK  Name = 
REMARK  13 active torsions:
REMARK  status: ('A' for Active; 'I' for Inactive)
REMARK    1  A    between atoms: N_1  and  C_2
REMARK    2  A    between atoms: C_2  and  C_4
REMARK    3  A    between atoms: C_2  and  C_20
REMARK    4  A    between atoms: C_4  and  C_5
REMARK    5  A    between atoms: C_5  and  C_6
REMARK    6  A    between atoms: N_8  and  C_9
REMARK    7  A    between atoms: C_9  and  C_11
REMARK    8  A    between atoms: C_9  and  C_13
REMARK    9  A    between atoms: C_11  and  S_12
REMARK   10  A    between atoms: N_15  and  CA_16
REMARK   11  A    between atoms: CA_16  and  C_17
REMARK   12  A    between atoms: C_17  and  O_18
REMARK   13  A    between atoms: C_20  and  O_21
REMARK                            x       y       z     vdW  Elec       q    Type
REMARK                         _______ _______ _______ _____ _____    ______ ____
ROOT
ATOM      1  C   UNK A   1      10.151  -0.635  23.957  0.00  0.00    +0.214 C 
ATOM      2  N   UNK A   1       9.426  -1.652  24.534  0.00  0.00    -0.303 N 
ATOM      3  H   UNK A   1       9.215  -1.600  25.527  0.00  0.00    +0.149 HD
ATOM      4  O   UNK A   1      10.591  -0.695  22.814  0.00  0.00    -0.276 OA
ENDROOT
BRANCH   1   5
ATOM      5  C   UNK A   1      10.359   0.579  24.836  0.00  0.00    +0.098 C 
BRANCH   5   6
ATOM      6  C   UNK A   1      10.624   1.808  23.960  0.00  0.00    +0.039 C 
BRANCH   6   7
ATOM      7  C   UNK A   1       9.393   2.675  23.681  0.00  0.00    +0.161 C 
BRANCH   7   8
ATOM      8  N   UNK A   1       8.305   2.479  24.681  0.00  0.00    -0.318 NA
ATOM      9  H   UNK A   1       8.262   3.285  25.312  0.00  0.00    +0.119 HD
ATOM     10  H   UNK A   1       7.412   2.527  24.177  0.00  0.00    +0.119 HD
ENDBRANCH   7   8
BRANCH   7  11
ATOM     11  C   UNK A   1       8.838   2.401  22.273  0.00  0.00    +0.322 C 
ATOM     12  O   UNK A   1       7.683   2.590  21.925  0.00  0.00    -0.249 OA
BRANCH  11  13
ATOM     13  O   UNK A   1       9.810   1.953  21.439  0.00  0.00    -0.480 OA
ATOM     14  H   UNK A   1      10.638   1.929  21.982  0.00  0.00    +0.295 HD
ENDBRANCH  11  13
ENDBRANCH   7  11
ENDBRANCH   6   7
ENDBRANCH   5   6
ENDBRANCH   1   5
BRANCH   2  15
ATOM     15  C   UNK A   1       9.282  -2.952  23.869  0.00  0.00    +0.168 C 
BRANCH  15  16
ATOM     16  C   UNK A   1       7.930  -2.982  23.129  0.00  0.00    +0.235 C 
ATOM     17  N   GLY A   2       7.532  -4.236  22.701  0.00  0.00    -0.303 N 
ATOM     18  H   GLY A   2       8.245  -4.960  22.657  0.00  0.00    +0.149 HD
ATOM     19  O   UNK A   1       7.190  -2.010  23.026  0.00  0.00    -0.274 OA
BRANCH  17  20
ATOM     20  CA  GLY A   2       6.349  -4.387  21.844  0.00  0.00    +0.224 C 
BRANCH  20  21
ATOM     21  C   GLY A   2       5.458  -5.577  22.204  0.00  0.00    +0.322 C 
ATOM     22  OXT GLY A   2       4.289  -5.472  22.544  0.00  0.00    -0.249 OA
BRANCH  21  23
ATOM     23  O   GLY A   2       6.073  -6.775  22.064  0.00  0.00    -0.480 OA
ATOM     24  H   GLY A   2       7.041  -6.661  22.105  0.00  0.00    +0.295 HD
ENDBRANCH  21  23
ENDBRANCH  20  21
ENDBRANCH  17  20
ENDBRANCH  15  16
BRANCH  15  25
ATOM     25  C   UNK A   1       9.364  -4.163  24.817  0.00  0.00    +0.097 C 
BRANCH  25  26
ATOM     26  S   UNK A   1       8.451  -3.998  26.388  0.00  0.00    -0.176 S 
ATOM     27  H   UNK A   1       8.358  -2.655  26.387  0.00  0.00    +0.102 HD
ENDBRANCH  25  26
ENDBRANCH  15  25
ENDBRANCH   2  15
TORSDOF 13
ENDMDL
MODEL 8
REMARK VINA RESULT:      -5.0      4.778      8.304
REMARK  Name = 
REMARK  13 active torsions:
REMARK  status: ('A' for Active; 'I' for Inactive)
REMARK    1  A    between atoms: N_1  and  C_2
REMARK    2  A    between atoms: C_2  and  C_4
REMARK    3  A    between atoms: C_2  and  C_20
REMARK    4  A    between atoms: C_4  and  C_5
REMARK    5  A    between atoms: C_5  and  C_6
REMARK    6  A    between atoms: N_8  and  C_9
REMARK    7  A    between atoms: C_9  and  C_11
REMARK    8  A    between atoms: C_9  and  C_13
REMARK    9  A    between atoms: C_11  and  S_12
REMARK   10  A    between atoms: N_15  and  CA_16
REMARK   11  A    between atoms: CA_16  and  C_17
REMARK   12  A    between atoms: C_17  and  O_18
REMARK   13  A    between atoms: C_20  and  O_21
REMARK                            x       y       z     vdW  Elec       q    Type
REMARK                         _______ _______ _______ _____ _____    ______ ____
ROOT
ATOM      1  C   UNK A   1       8.988  -0.958  25.792  0.00  0.00    +0.214 C 
ATOM      2  N   UNK A   1       8.556  -1.920  24.908  0.00  0.00    -0.303 N 
ATOM      3  H   UNK A   1       8.440  -1.668  23.930  0.00  0.00    +0.149 HD
ATOM      4  O   UNK A   1       8.996  -1.124  27.008  0.00  0.00    -0.276 OA
ENDROOT
BRANCH   1   5
ATOM      5  C   UNK A   1       9.468   0.327  25.154  0.00  0.00    +0.098 C 
BRANCH   5   6
ATOM      6  C   UNK A   1       8.870   0.457  23.748  0.00  0.00    +0.039 C 
BRANCH   6   7
ATOM      7  C   UNK A   1       9.899   0.479  22.614  0.00  0.00    +0.161 C 
BRANCH   7   8
ATOM      8  N   UNK A   1       9.574   1.473  21.552  0.00  0.00    -0.318 NA
ATOM      9  H   UNK A   1       9.863   2.409  21.850  0.00  0.00    +0.119 HD
ATOM     10  H   UNK A   1      10.188   1.280  20.753  0.00  0.00    +0.119 HD
ENDBRANCH   7   8
BRANCH   7  11
ATOM     11  C   UNK A   1      10.039  -0.913  21.975  0.00  0.00    +0.322 C 
ATOM     12  O   UNK A   1      10.558  -1.881  22.509  0.00  0.00    -0.249 OA
BRANCH  11  13
ATOM     13  O   UNK A   1       9.474  -0.949  20.742  0.00  0.00    -0.480 OA
ATOM     14  H   UNK A   1       8.542  -0.635  20.866  0.00  0.00    +0.295 HD
ENDBRANCH  11  13
ENDBRANCH   7  11
ENDBRANCH   6   7
ENDBRANCH   5   6
ENDBRANCH   1   5
BRANCH   2  15
ATOM     15  C   UNK A   1       7.912  -3.150  25.381  0.00  0.00    +0.168 C 
BRANCH  15  16
ATOM     16  C   UNK A   1       8.222  -4.285  24.385  0.00  0.00    +0.235 C 
ATOM     17  N   GLY A   2       7.374  -4.344  23.293  0.00  0.00    -0.303 N 
ATOM     18  H   GLY A   2       6.490  -3.845  23.363  0.00  0.00    +0.149 HD
ATOM     19  O   UNK A   1       9.208  -5.009  24.464  0.00  0.00    -0.274 OA
BRANCH  17  20
ATOM     20  CA  GLY A   2       7.452  -5.469  22.352  0.00  0.00    +0.224 C 
BRANCH  20  21
ATOM     21  C   GLY A   2       6.150  -5.753  21.600  0.00  0.00    +0.322 C 
ATOM     22  OXT GLY A   2       5.980  -5.500  20.417  0.00  0.00    -0.249 OA
BRANCH  21  23
ATOM     23  O   GLY A   2       5.209  -6.361  22.360  0.00  0.00    -0.480 OA
ATOM     24  H   GLY A   2       5.498  -6.391  23.291  0.00  0.00    +0.295 HD
ENDBRANCH  21  23
ENDBRANCH  20  21
ENDBRANCH  17  20
ENDBRANCH  15  16
BRANCH  15  25
ATOM     25  C   UNK A   1       6.387  -3.040  25.562  0.00  0.00    +0.097 C 
BRANCH  25  26
ATOM     26  S   UNK A   1       5.611  -1.559  24.832  0.00  0.00    -0.176 S 
ATOM     27  H   UNK A   1       4.434  -2.128  24.512  0.00  0.00    +0.102 HD
ENDBRANCH  25  26
ENDBRANCH  15  25
ENDBRANCH   2  15
TORSDOF 13
ENDMDL
MODEL 9
REMARK VINA RESULT:      -4.9      4.370      7.943
REMARK  Name = 
REMARK  13 active torsions:
REMARK  status: ('A' for Active; 'I' for Inactive)
REMARK    1  A    between atoms: N_1  and  C_2
REMARK    2  A    between atoms: C_2  and  C_4
REMARK    3  A    between atoms: C_2  and  C_20
REMARK    4  A    between atoms: C_4  and  C_5
REMARK    5  A    between atoms: C_5  and  C_6
REMARK    6  A    between atoms: N_8  and  C_9
REMARK    7  A    between atoms: C_9  and  C_11
REMARK    8  A    between atoms: C_9  and  C_13
REMARK    9  A    between atoms: C_11  and  S_12
REMARK   10  A    between atoms: N_15  and  CA_16
REMARK   11  A    between atoms: CA_16  and  C_17
REMARK   12  A    between atoms: C_17  and  O_18
REMARK   13  A    between atoms: C_20  and  O_21
REMARK                            x       y       z     vdW  Elec       q    Type
REMARK                         _______ _______ _______ _____ _____    ______ ____
ROOT
ATOM      1  C   UNK A   1       9.761  -1.764  23.512  0.00  0.00    +0.214 C 
ATOM      2  N   UNK A   1       8.556  -1.510  24.126  0.00  0.00    -0.303 N 
ATOM      3  H   UNK A   1       8.200  -0.558  24.129  0.00  0.00    +0.149 HD
ATOM      4  O   UNK A   1      10.344  -2.839  23.604  0.00  0.00    -0.276 OA
ENDROOT
BRANCH   1   5
ATOM      5  C   UNK A   1      10.316  -0.616  22.695  0.00  0.00    +0.098 C 
BRANCH   5   6
ATOM      6  C   UNK A   1       9.387  -0.332  21.510  0.00  0.00    +0.039 C 
BRANCH   6   7
ATOM      7  C   UNK A   1       9.001   1.140  21.337  0.00  0.00    +0.161 C 
BRANCH   7   8
ATOM      8  N   UNK A   1      10.076   2.078  21.772  0.00  0.00    -0.318 NA
ATOM      9  H   UNK A   1       9.797   2.553  22.634  0.00  0.00    +0.119 HD
ATOM     10  H   UNK A   1      10.879   1.509  22.065  0.00  0.00    +0.119 HD
ENDBRANCH   7   8
BRANCH   7  11
ATOM     11  C   UNK A   1       7.710   1.463  22.107  0.00  0.00    +0.322 C 
ATOM     12  O   UNK A   1       7.089   0.671  22.800  0.00  0.00    -0.249 OA
BRANCH  11  13
ATOM     13  O   UNK A   1       7.356   2.764  21.952  0.00  0.00    -0.480 OA
ATOM     14  H   UNK A   1       6.442   2.839  22.327  0.00  0.00    +0.295 HD
ENDBRANCH  11  13
ENDBRANCH   7  11
ENDBRANCH   6   7
ENDBRANCH   5   6
ENDBRANCH   1   5
BRANCH   2  15
ATOM     15  C   UNK A   1       7.976  -2.462  25.078  0.00  0.00    +0.168 C 
BRANCH  15  16
ATOM     16  C   UNK A   1       6.773  -3.158  24.411  0.00  0.00    +0.235 C 
ATOM     17  N   GLY A   2       6.827  -4.541  24.419  0.00  0.00    -0.303 N 
ATOM     18  H   GLY A   2       7.731  -4.970  24.600  0.00  0.00    +0.149 HD
ATOM     19  O   UNK A   1       5.779  -2.563  24.011  0.00  0.00    -0.274 OA
BRANCH  17  20
ATOM     20  CA  GLY A   2       5.833  -5.328  23.678  0.00  0.00    +0.224 C 
BRANCH  20  21
ATOM     21  C   GLY A   2       6.088  -5.409  22.172  0.00  0.00    +0.322 C 
ATOM     22  OXT GLY A   2       6.710  -6.315  21.637  0.00  0.00    -0.249 OA
BRANCH  21  23
ATOM     23  O   GLY A   2       5.517  -4.402  21.471  0.00  0.00    -0.480 OA
ATOM     24  H   GLY A   2       6.188  -3.955  20.921  0.00  0.00    +0.295 HD
ENDBRANCH  21  23
ENDBRANCH  20  21
ENDBRANCH  17  20
ENDBRANCH  15  16
BRANCH  15  25
ATOM     25  C   UNK A   1       7.520  -1.834  26.408  0.00  0.00    +0.097 C 
BRANCH  25  26
ATOM     26  S   UNK A   1       7.449  -0.011  26.435  0.00  0.00    -0.176 S 
ATOM     27  H   UNK A   1       6.371   0.102  27.235  0.00  0.00    +0.102 HD
ENDBRANCH  25  26
ENDBRANCH  15  25
ENDBRANCH   2  15
TORSDOF 13
ENDMDL
