MODEL 1
REMARK VINA RESULT:      -7.6      0.000      0.000
REMARK  Name = 
REMARK  3 active torsions:
REMARK  status: ('A' for Active; 'I' for Inactive)
REMARK    1  A    between atoms: C_2  and  C_5
REMARK    2  A    between atoms: C_9  and  C_11
REMARK    3  A    between atoms: N_18  and  C_19
REMARK                            x       y       z     vdW  Elec       q    Type
REMARK                         _______ _______ _______ _____ _____    ______ ____
ROOT
ATOM      1  C   UNL     1       8.972  -2.382  23.483  0.00  0.00    +0.185 A 
ATOM      2  N   UNL     1       8.633  -1.106  23.062  0.00  0.00    -0.191 N 
ATOM      3  C   UNL     1       9.691  -0.699  22.274  0.00  0.00    +0.178 A 
ATOM      4  C   UNL     1       9.542   0.499  21.551  0.00  0.00    +0.053 A 
ATOM      5  C   UNL     1       8.406   1.195  21.687  0.00  0.00    +0.049 A 
ATOM      6  C   UNL     1       7.380   0.726  22.671  0.00  0.00    +0.140 A 
ATOM      7  N   UNL     1       6.286   1.529  22.879  0.00  0.00    -0.325 N 
ATOM      8  H   UNL     1       5.770   1.852  22.068  0.00  0.00    +0.148 HD
ATOM      9  N   UNL     1      10.662  -1.577  22.338  0.00  0.00    -0.128 NA
ATOM     10  N   UNL     1       7.493  -0.392  23.336  0.00  0.00    -0.148 NA
ATOM     11  N   UNL     1      10.222  -2.623  23.113  0.00  0.00    -0.127 NA
ENDROOT
BRANCH   1  14
ATOM     12  C   UNL     1       6.436  -5.135  23.984  0.00  0.00    +0.055 A 
ATOM     13  C   UNL     1       7.361  -4.255  23.397  0.00  0.00    +0.024 A 
ATOM     14  C   UNL     1       8.105  -3.347  24.170  0.00  0.00    +0.022 A 
ATOM     15  C   UNL     1       7.907  -3.338  25.556  0.00  0.00    +0.011 A 
ATOM     16  C   UNL     1       6.998  -4.214  26.154  0.00  0.00    +0.001 A 
ATOM     17  C   UNL     1       6.266  -5.109  25.375  0.00  0.00    +0.012 A 
BRANCH  12  19
ATOM     18  F   UNL     1       4.665  -5.428  22.387  0.00  0.00    -0.166 F 
ATOM     19  C   UNL     1       5.631  -6.063  23.110  0.00  0.00    +0.417 C 
ATOM     20  F   UNL     1       6.399  -6.723  22.199  0.00  0.00    -0.166 F 
ATOM     21  F   UNL     1       4.985  -7.025  23.824  0.00  0.00    -0.166 F 
ENDBRANCH  12  19
ENDBRANCH   1  14
BRANCH   7  22
ATOM     22  C   UNL     1       5.698   1.785  24.190  0.00  0.00    +0.072 C 
ATOM     23  C   UNL     1       4.452   2.667  24.104  0.00  0.00    +0.022 C 
ATOM     24  C   UNL     1       4.724   4.164  23.939  0.00  0.00    +0.002 C 
ATOM     25  C   UNL     1       5.832   4.700  24.838  0.00  0.00    +0.000 C 
ATOM     26  C   UNL     1       7.085   3.839  24.791  0.00  0.00    +0.002 C 
ATOM     27  C   UNL     1       6.759   2.386  25.124  0.00  0.00    +0.022 C 
ENDBRANCH   7  22
TORSDOF 3
ENDMDL
MODEL 2
REMARK VINA RESULT:      -7.2      1.428      2.031
REMARK  Name = 
REMARK  3 active torsions:
REMARK  status: ('A' for Active; 'I' for Inactive)
REMARK    1  A    between atoms: C_2  and  C_5
REMARK    2  A    between atoms: C_9  and  C_11
REMARK    3  A    between atoms: N_18  and  C_19
REMARK                            x       y       z     vdW  Elec       q    Type
REMARK                         _______ _______ _______ _____ _____    ______ ____
ROOT
ATOM      1  C   UNL     1       8.518  -2.295  22.863  0.00  0.00    +0.185 A 
ATOM      2  N   UNL     1       8.376  -0.930  22.667  0.00  0.00    -0.191 N 
ATOM      3  C   UNL     1       9.597  -0.512  22.180  0.00  0.00    +0.178 A 
ATOM      4  C   UNL     1       9.693   0.812  21.711  0.00  0.00    +0.053 A 
ATOM      5  C   UNL     1       8.614   1.601  21.791  0.00  0.00    +0.049 A 
ATOM      6  C   UNL     1       7.381   1.080  22.460  0.00  0.00    +0.140 A 
ATOM      7  N   UNL     1       6.338   1.956  22.639  0.00  0.00    -0.325 N 
ATOM      8  H   UNL     1       6.020   2.489  21.836  0.00  0.00    +0.148 HD
ATOM      9  N   UNL     1      10.460  -1.498  22.225  0.00  0.00    -0.128 NA
ATOM     10  N   UNL     1       7.268  -0.149  22.884  0.00  0.00    -0.148 NA
ATOM     11  N   UNL     1       9.791  -2.611  22.674  0.00  0.00    -0.127 NA
ENDROOT
BRANCH   1  14
ATOM     12  C   UNL     1       6.482  -4.833  24.780  0.00  0.00    +0.055 A 
ATOM     13  C   UNL     1       7.408  -3.827  24.454  0.00  0.00    +0.024 A 
ATOM     14  C   UNL     1       7.456  -3.262  23.168  0.00  0.00    +0.022 A 
ATOM     15  C   UNL     1       6.551  -3.724  22.206  0.00  0.00    +0.011 A 
ATOM     16  C   UNL     1       5.619  -4.717  22.519  0.00  0.00    +0.001 A 
ATOM     17  C   UNL     1       5.583  -5.269  23.799  0.00  0.00    +0.012 A 
BRANCH  12  19
ATOM     18  F   UNL     1       5.972  -4.620  27.119  0.00  0.00    -0.166 F 
ATOM     19  C   UNL     1       6.495  -5.438  26.162  0.00  0.00    +0.417 C 
ATOM     20  F   UNL     1       5.778  -6.594  26.234  0.00  0.00    -0.166 F 
ATOM     21  F   UNL     1       7.750  -5.748  26.586  0.00  0.00    -0.166 F 
ENDBRANCH  12  19
ENDBRANCH   1  14
BRANCH   7  22
ATOM     22  C   UNL     1       5.529   2.026  23.851  0.00  0.00    +0.072 C 
ATOM     23  C   UNL     1       4.300   2.920  23.678  0.00  0.00    +0.022 C 
ATOM     24  C   UNL     1       4.570   4.423  23.777  0.00  0.00    +0.002 C 
ATOM     25  C   UNL     1       5.497   4.817  24.921  0.00  0.00    +0.000 C 
ATOM     26  C   UNL     1       6.755   3.962  24.969  0.00  0.00    +0.002 C 
ATOM     27  C   UNL     1       6.402   2.478  25.031  0.00  0.00    +0.022 C 
ENDBRANCH   7  22
TORSDOF 3
ENDMDL
MODEL 3
REMARK VINA RESULT:      -7.1      3.156      4.925
REMARK  Name = 
REMARK  3 active torsions:
REMARK  status: ('A' for Active; 'I' for Inactive)
REMARK    1  A    between atoms: C_2  and  C_5
REMARK    2  A    between atoms: C_9  and  C_11
REMARK    3  A    between atoms: N_18  and  C_19
REMARK                            x       y       z     vdW  Elec       q    Type
REMARK                         _______ _______ _______ _____ _____    ______ ____
ROOT
ATOM      1  C   UNL     1       5.965  -4.884  26.330  0.00  0.00    +0.185 A 
ATOM      2  N   UNL     1       7.138  -4.370  25.800  0.00  0.00    -0.191 N 
ATOM      3  C   UNL     1       8.137  -5.182  26.297  0.00  0.00    +0.178 A 
ATOM      4  C   UNL     1       9.434  -5.012  25.777  0.00  0.00    +0.053 A 
ATOM      5  C   UNL     1       9.639  -4.059  24.860  0.00  0.00    +0.049 A 
ATOM      6  C   UNL     1       8.508  -3.150  24.492  0.00  0.00    +0.140 A 
ATOM      7  N   UNL     1       8.784  -2.105  23.645  0.00  0.00    -0.325 N 
ATOM      8  H   UNL     1       9.274  -2.308  22.780  0.00  0.00    +0.148 HD
ATOM      9  N   UNL     1       7.641  -6.015  27.179  0.00  0.00    -0.128 NA
ATOM     10  N   UNL     1       7.295  -3.304  24.950  0.00  0.00    -0.148 NA
ATOM     11  N   UNL     1       6.283  -5.815  27.217  0.00  0.00    -0.127 NA
ENDROOT
BRANCH   1  14
ATOM     12  C   UNL     1       2.661  -4.942  24.502  0.00  0.00    +0.055 A 
ATOM     13  C   UNL     1       3.935  -5.293  24.980  0.00  0.00    +0.024 A 
ATOM     14  C   UNL     1       4.592  -4.524  25.955  0.00  0.00    +0.022 A 
ATOM     15  C   UNL     1       3.944  -3.385  26.449  0.00  0.00    +0.011 A 
ATOM     16  C   UNL     1       2.674  -3.029  25.990  0.00  0.00    +0.001 A 
ATOM     17  C   UNL     1       2.033  -3.803  25.022  0.00  0.00    +0.012 A 
BRANCH  12  19
ATOM     18  F   UNL     1       1.231  -6.782  23.915  0.00  0.00    -0.166 F 
ATOM     19  C   UNL     1       2.012  -5.777  23.426  0.00  0.00    +0.417 C 
ATOM     20  F   UNL     1       1.203  -5.044  22.611  0.00  0.00    -0.166 F 
ATOM     21  F   UNL     1       2.921  -6.378  22.611  0.00  0.00    -0.166 F 
ENDBRANCH  12  19
ENDBRANCH   1  14
BRANCH   7  22
ATOM     22  C   UNL     1       8.246  -0.759  23.807  0.00  0.00    +0.072 C 
ATOM     23  C   UNL     1       8.420   0.092  22.548  0.00  0.00    +0.022 C 
ATOM     24  C   UNL     1       9.818   0.679  22.347  0.00  0.00    +0.002 C 
ATOM     25  C   UNL     1      10.436   1.267  23.611  0.00  0.00    +0.000 C 
ATOM     26  C   UNL     1      10.330   0.324  24.801  0.00  0.00    +0.002 C 
ATOM     27  C   UNL     1       8.881  -0.092  25.037  0.00  0.00    +0.022 C 
ENDBRANCH   7  22
TORSDOF 3
ENDMDL
MODEL 4
REMARK VINA RESULT:      -7.0      3.985      6.382
REMARK  Name = 
REMARK  3 active torsions:
REMARK  status: ('A' for Active; 'I' for Inactive)
REMARK    1  A    between atoms: C_2  and  C_5
REMARK    2  A    between atoms: C_9  and  C_11
REMARK    3  A    between atoms: N_18  and  C_19
REMARK                            x       y       z     vdW  Elec       q    Type
REMARK                         _______ _______ _______ _____ _____    ______ ____
ROOT
ATOM      1  C   UNL     1       9.313  -2.211  24.470  0.00  0.00    +0.185 A 
ATOM      2  N   UNL     1       8.367  -2.839  25.266  0.00  0.00    -0.191 N 
ATOM      3  C   UNL     1       8.800  -4.145  25.368  0.00  0.00    +0.178 A 
ATOM      4  C   UNL     1       8.129  -4.985  26.277  0.00  0.00    +0.053 A 
ATOM      5  C   UNL     1       7.094  -4.488  26.967  0.00  0.00    +0.049 A 
ATOM      6  C   UNL     1       6.631  -3.095  26.678  0.00  0.00    +0.140 A 
ATOM      7  N   UNL     1       5.491  -2.662  27.310  0.00  0.00    -0.325 N 
ATOM      8  H   UNL     1       5.430  -2.776  28.316  0.00  0.00    +0.148 HD
ATOM      9  N   UNL     1       9.825  -4.342  24.576  0.00  0.00    -0.128 NA
ATOM     10  N   UNL     1       7.251  -2.297  25.852  0.00  0.00    -0.148 NA
ATOM     11  N   UNL     1      10.135  -3.136  23.995  0.00  0.00    -0.127 NA
ENDROOT
BRANCH   1  14
ATOM     12  C   UNL     1       8.765   1.177  22.895  0.00  0.00    +0.055 A 
ATOM     13  C   UNL     1       8.620  -0.174  23.255  0.00  0.00    +0.024 A 
ATOM     14  C   UNL     1       9.446  -0.771  24.222  0.00  0.00    +0.022 A 
ATOM     15  C   UNL     1      10.430   0.017  24.831  0.00  0.00    +0.011 A 
ATOM     16  C   UNL     1      10.580   1.364  24.491  0.00  0.00    +0.001 A 
ATOM     17  C   UNL     1       9.753   1.943  23.529  0.00  0.00    +0.012 A 
BRANCH  12  19
ATOM     18  F   UNL     1       6.573   1.403  21.940  0.00  0.00    -0.166 F 
ATOM     19  C   UNL     1       7.882   1.764  21.823  0.00  0.00    +0.417 C 
ATOM     20  F   UNL     1       7.891   3.126  21.824  0.00  0.00    -0.166 F 
ATOM     21  F   UNL     1       8.259   1.387  20.571  0.00  0.00    -0.166 F 
ENDBRANCH  12  19
ENDBRANCH   1  14
BRANCH   7  22
ATOM     22  C   UNL     1       4.449  -1.871  26.663  0.00  0.00    +0.072 C 
ATOM     23  C   UNL     1       3.668  -1.014  27.661  0.00  0.00    +0.022 C 
ATOM     24  C   UNL     1       2.599  -1.760  28.462  0.00  0.00    +0.002 C 
ATOM     25  C   UNL     1       1.750  -2.716  27.631  0.00  0.00    +0.000 C 
ATOM     26  C   UNL     1       2.594  -3.618  26.744  0.00  0.00    +0.002 C 
ATOM     27  C   UNL     1       3.523  -2.794  25.857  0.00  0.00    +0.022 C 
ENDBRANCH   7  22
TORSDOF 3
ENDMDL
MODEL 5
REMARK VINA RESULT:      -7.0      4.228      7.238
REMARK  Name = 
REMARK  3 active torsions:
REMARK  status: ('A' for Active; 'I' for Inactive)
REMARK    1  A    between atoms: C_2  and  C_5
REMARK    2  A    between atoms: C_9  and  C_11
REMARK    3  A    between atoms: N_18  and  C_19
REMARK                            x       y       z     vdW  Elec       q    Type
REMARK                         _______ _______ _______ _____ _____    ______ ____
ROOT
ATOM      1  C   UNL     1       8.801  -2.406  23.928  0.00  0.00    +0.185 A 
ATOM      2  N   UNL     1       7.935  -3.312  24.520  0.00  0.00    -0.191 N 
ATOM      3  C   UNL     1       8.740  -4.347  24.947  0.00  0.00    +0.178 A 
ATOM      4  C   UNL     1       8.154  -5.338  25.757  0.00  0.00    +0.053 A 
ATOM      5  C   UNL     1       6.849  -5.245  26.043  0.00  0.00    +0.049 A 
ATOM      6  C   UNL     1       6.045  -4.149  25.417  0.00  0.00    +0.140 A 
ATOM      7  N   UNL     1       4.688  -4.157  25.629  0.00  0.00    -0.325 N 
ATOM      8  H   UNL     1       4.355  -4.240  26.584  0.00  0.00    +0.148 HD
ATOM      9  N   UNL     1       9.964  -4.172  24.513  0.00  0.00    -0.128 NA
ATOM     10  N   UNL     1       6.575  -3.212  24.679  0.00  0.00    -0.148 NA
ATOM     11  N   UNL     1      10.000  -2.966  23.855  0.00  0.00    -0.127 NA
ENDROOT
BRANCH   1  14
ATOM     12  C   UNL     1       9.246   1.286  23.275  0.00  0.00    +0.055 A 
ATOM     13  C   UNL     1       9.502  -0.063  23.573  0.00  0.00    +0.024 A 
ATOM     14  C   UNL     1       8.493  -1.037  23.498  0.00  0.00    +0.022 A 
ATOM     15  C   UNL     1       7.209  -0.634  23.112  0.00  0.00    +0.011 A 
ATOM     16  C   UNL     1       6.942   0.702  22.803  0.00  0.00    +0.001 A 
ATOM     17  C   UNL     1       7.954   1.659  22.883  0.00  0.00    +0.012 A 
BRANCH  12  19
ATOM     18  F   UNL     1      10.914   2.655  22.218  0.00  0.00    -0.166 F 
ATOM     19  C   UNL     1      10.352   2.303  23.409  0.00  0.00    +0.417 C 
ATOM     20  F   UNL     1       9.927   3.467  23.975  0.00  0.00    -0.166 F 
ATOM     21  F   UNL     1      11.378   1.861  24.187  0.00  0.00    -0.166 F 
ENDBRANCH  12  19
ENDBRANCH   1  14
BRANCH   7  22
ATOM     22  C   UNL     1       3.699  -3.854  24.601  0.00  0.00    +0.072 C 
ATOM     23  C   UNL     1       2.267  -3.933  25.132  0.00  0.00    +0.022 C 
ATOM     24  C   UNL     1       1.696  -5.347  25.259  0.00  0.00    +0.002 C 
ATOM     25  C   UNL     1       1.990  -6.248  24.065  0.00  0.00    +0.000 C 
ATOM     26  C   UNL     1       3.455  -6.210  23.657  0.00  0.00    +0.002 C 
ATOM     27  C   UNL     1       3.910  -4.778  23.392  0.00  0.00    +0.022 C 
ENDBRANCH   7  22
TORSDOF 3
ENDMDL
MODEL 6
REMARK VINA RESULT:      -7.0      1.769      2.220
REMARK  Name = 
REMARK  3 active torsions:
REMARK  status: ('A' for Active; 'I' for Inactive)
REMARK    1  A    between atoms: C_2  and  C_5
REMARK    2  A    between atoms: C_9  and  C_11
REMARK    3  A    between atoms: N_18  and  C_19
REMARK                            x       y       z     vdW  Elec       q    Type
REMARK                         _______ _______ _______ _____ _____    ______ ____
ROOT
ATOM      1  C   UNL     1       8.652  -1.179  22.499  0.00  0.00    +0.185 A 
ATOM      2  N   UNL     1       7.909  -0.068  22.865  0.00  0.00    -0.191 N 
ATOM      3  C   UNL     1       8.305   0.927  21.995  0.00  0.00    +0.178 A 
ATOM      4  C   UNL     1       7.579   2.132  22.008  0.00  0.00    +0.053 A 
ATOM      5  C   UNL     1       6.570   2.265  22.879  0.00  0.00    +0.049 A 
ATOM      6  C   UNL     1       6.314   1.169  23.865  0.00  0.00    +0.140 A 
ATOM      7  N   UNL     1       5.357   1.391  24.825  0.00  0.00    -0.325 N 
ATOM      8  H   UNL     1       4.444   1.716  24.522  0.00  0.00    +0.148 HD
ATOM      9  N   UNL     1       9.315   0.512  21.269  0.00  0.00    -0.128 NA
ATOM     10  N   UNL     1       6.965   0.038  23.856  0.00  0.00    -0.148 NA
ATOM     11  N   UNL     1       9.548  -0.801  21.599  0.00  0.00    -0.127 NA
ENDROOT
BRANCH   1  14
ATOM     12  C   UNL     1       7.282  -4.692  22.714  0.00  0.00    +0.055 A 
ATOM     13  C   UNL     1       7.581  -3.395  22.264  0.00  0.00    +0.024 A 
ATOM     14  C   UNL     1       8.468  -2.560  22.964  0.00  0.00    +0.022 A 
ATOM     15  C   UNL     1       9.059  -3.052  24.134  0.00  0.00    +0.011 A 
ATOM     16  C   UNL     1       8.778  -4.343  24.589  0.00  0.00    +0.001 A 
ATOM     17  C   UNL     1       7.895  -5.160  23.884  0.00  0.00    +0.012 A 
BRANCH  12  19
ATOM     18  F   UNL     1       5.020  -5.451  22.432  0.00  0.00    -0.166 F 
ATOM     19  C   UNL     1       6.292  -5.537  21.951  0.00  0.00    +0.417 C 
ATOM     20  F   UNL     1       6.214  -5.192  20.636  0.00  0.00    -0.166 F 
ATOM     21  F   UNL     1       6.608  -6.860  21.974  0.00  0.00    -0.166 F 
ENDBRANCH  12  19
ENDBRANCH   1  14
BRANCH   7  22
ATOM     22  C   UNL     1       5.496   1.000  26.224  0.00  0.00    +0.072 C 
ATOM     23  C   UNL     1       4.240   1.308  27.041  0.00  0.00    +0.022 C 
ATOM     24  C   UNL     1       4.084   2.769  27.468  0.00  0.00    +0.002 C 
ATOM     25  C   UNL     1       5.365   3.407  27.993  0.00  0.00    +0.000 C 
ATOM     26  C   UNL     1       6.554   3.159  27.076  0.00  0.00    +0.002 C 
ATOM     27  C   UNL     1       6.744   1.665  26.824  0.00  0.00    +0.022 C 
ENDBRANCH   7  22
TORSDOF 3
ENDMDL
MODEL 7
REMARK VINA RESULT:      -6.9      4.683      7.310
REMARK  Name = 
REMARK  3 active torsions:
REMARK  status: ('A' for Active; 'I' for Inactive)
REMARK    1  A    between atoms: C_2  and  C_5
REMARK    2  A    between atoms: C_9  and  C_11
REMARK    3  A    between atoms: N_18  and  C_19
REMARK                            x       y       z     vdW  Elec       q    Type
REMARK                         _______ _______ _______ _____ _____    ______ ____
ROOT
ATOM      1  C   UNL     1       9.004   0.184  22.514  0.00  0.00    +0.185 A 
ATOM      2  N   UNL     1       8.701  -0.800  23.442  0.00  0.00    -0.191 N 
ATOM      3  C   UNL     1       9.593  -1.821  23.180  0.00  0.00    +0.178 A 
ATOM      4  C   UNL     1       9.645  -2.891  24.094  0.00  0.00    +0.053 A 
ATOM      5  C   UNL     1       8.812  -2.881  25.142  0.00  0.00    +0.049 A 
ATOM      6  C   UNL     1       7.796  -1.788  25.253  0.00  0.00    +0.140 A 
ATOM      7  N   UNL     1       6.876  -1.878  26.268  0.00  0.00    -0.325 N 
ATOM      8  H   UNL     1       7.218  -2.040  27.210  0.00  0.00    +0.148 HD
ATOM      9  N   UNL     1      10.271  -1.556  22.091  0.00  0.00    -0.128 NA
ATOM     10  N   UNL     1       7.745  -0.779  24.426  0.00  0.00    -0.148 NA
ATOM     11  N   UNL     1       9.888  -0.310  21.658  0.00  0.00    -0.127 NA
ENDROOT
BRANCH   1  14
ATOM     12  C   UNL     1       8.797   3.896  23.178  0.00  0.00    +0.055 A 
ATOM     13  C   UNL     1       9.269   2.576  23.078  0.00  0.00    +0.024 A 
ATOM     14  C   UNL     1       8.497   1.561  22.487  0.00  0.00    +0.022 A 
ATOM     15  C   UNL     1       7.232   1.895  21.990  0.00  0.00    +0.011 A 
ATOM     16  C   UNL     1       6.753   3.205  22.074  0.00  0.00    +0.001 A 
ATOM     17  C   UNL     1       7.530   4.201  22.664  0.00  0.00    +0.012 A 
BRANCH  12  19
ATOM     18  F   UNL     1       9.543   6.177  23.289  0.00  0.00    -0.166 F 
ATOM     19  C   UNL     1       9.645   4.942  23.857  0.00  0.00    +0.417 C 
ATOM     20  F   UNL     1       9.318   5.111  25.169  0.00  0.00    -0.166 F 
ATOM     21  F   UNL     1      10.971   4.634  23.838  0.00  0.00    -0.166 F 
ENDBRANCH  12  19
ENDBRANCH   1  14
BRANCH   7  22
ATOM     22  C   UNL     1       5.460  -1.557  26.118  0.00  0.00    +0.072 C 
ATOM     23  C   UNL     1       4.737  -1.481  27.464  0.00  0.00    +0.022 C 
ATOM     24  C   UNL     1       4.362  -2.831  28.078  0.00  0.00    +0.002 C 
ATOM     25  C   UNL     1       3.772  -3.826  27.086  0.00  0.00    +0.000 C 
ATOM     26  C   UNL     1       4.601  -3.939  25.815  0.00  0.00    +0.002 C 
ATOM     27  C   UNL     1       4.798  -2.569  25.172  0.00  0.00    +0.022 C 
ENDBRANCH   7  22
TORSDOF 3
ENDMDL
MODEL 8
REMARK VINA RESULT:      -6.8      1.858      2.498
REMARK  Name = 
REMARK  3 active torsions:
REMARK  status: ('A' for Active; 'I' for Inactive)
REMARK    1  A    between atoms: C_2  and  C_5
REMARK    2  A    between atoms: C_9  and  C_11
REMARK    3  A    between atoms: N_18  and  C_19
REMARK                            x       y       z     vdW  Elec       q    Type
REMARK                         _______ _______ _______ _____ _____    ______ ____
ROOT
ATOM      1  C   UNL     1       7.995  -3.375  23.982  0.00  0.00    +0.185 A 
ATOM      2  N   UNL     1       8.391  -2.130  23.519  0.00  0.00    -0.191 N 
ATOM      3  C   UNL     1       9.765  -2.208  23.422  0.00  0.00    +0.178 A 
ATOM      4  C   UNL     1      10.436  -1.141  22.797  0.00  0.00    +0.053 A 
ATOM      5  C   UNL     1       9.718  -0.098  22.361  0.00  0.00    +0.049 A 
ATOM      6  C   UNL     1       8.248  -0.062  22.638  0.00  0.00    +0.140 A 
ATOM      7  N   UNL     1       7.565   1.078  22.291  0.00  0.00    -0.325 N 
ATOM      8  H   UNL     1       7.682   1.436  21.349  0.00  0.00    +0.148 HD
ATOM      9  N   UNL     1      10.187  -3.339  23.933  0.00  0.00    -0.128 NA
ATOM     10  N   UNL     1       7.606  -1.050  23.200  0.00  0.00    -0.148 NA
ATOM     11  N   UNL     1       9.081  -4.063  24.305  0.00  0.00    -0.127 NA
ENDROOT
BRANCH   1  14
ATOM     12  C   UNL     1       5.009  -5.316  25.240  0.00  0.00    +0.055 A 
ATOM     13  C   UNL     1       6.271  -4.702  25.156  0.00  0.00    +0.024 A 
ATOM     14  C   UNL     1       6.624  -3.896  24.061  0.00  0.00    +0.022 A 
ATOM     15  C   UNL     1       5.683  -3.711  23.042  0.00  0.00    +0.011 A 
ATOM     16  C   UNL     1       4.421  -4.307  23.116  0.00  0.00    +0.001 A 
ATOM     17  C   UNL     1       4.084  -5.105  24.209  0.00  0.00    +0.012 A 
BRANCH  12  19
ATOM     18  F   UNL     1       4.113  -7.389  26.060  0.00  0.00    -0.166 F 
ATOM     19  C   UNL     1       4.689  -6.206  26.415  0.00  0.00    +0.417 C 
ATOM     20  F   UNL     1       5.795  -6.536  27.138  0.00  0.00    -0.166 F 
ATOM     21  F   UNL     1       3.827  -5.623  27.293  0.00  0.00    -0.166 F 
ENDBRANCH  12  19
ENDBRANCH   1  14
BRANCH   7  22
ATOM     22  C   UNL     1       6.530   1.693  23.115  0.00  0.00    +0.072 C 
ATOM     23  C   UNL     1       5.884   2.899  22.431  0.00  0.00    +0.022 C 
ATOM     24  C   UNL     1       6.697   4.194  22.493  0.00  0.00    +0.002 C 
ATOM     25  C   UNL     1       7.312   4.481  23.858  0.00  0.00    +0.000 C 
ATOM     26  C   UNL     1       8.037   3.272  24.432  0.00  0.00    +0.002 C 
ATOM     27  C   UNL     1       7.112   2.060  24.488  0.00  0.00    +0.022 C 
ENDBRANCH   7  22
TORSDOF 3
ENDMDL
MODEL 9
REMARK VINA RESULT:      -6.8      4.316      7.343
REMARK  Name = 
REMARK  3 active torsions:
REMARK  status: ('A' for Active; 'I' for Inactive)
REMARK    1  A    between atoms: C_2  and  C_5
REMARK    2  A    between atoms: C_9  and  C_11
REMARK    3  A    between atoms: N_18  and  C_19
REMARK                            x       y       z     vdW  Elec       q    Type
REMARK                         _______ _______ _______ _____ _____    ______ ____
ROOT
ATOM      1  C   UNL     1       6.793  -3.533  22.807  0.00  0.00    +0.185 A 
ATOM      2  N   UNL     1       6.205  -4.471  23.641  0.00  0.00    -0.191 N 
ATOM      3  C   UNL     1       5.354  -5.188  22.824  0.00  0.00    +0.178 A 
ATOM      4  C   UNL     1       4.751  -6.341  23.362  0.00  0.00    +0.053 A 
ATOM      5  C   UNL     1       5.005  -6.662  24.637  0.00  0.00    +0.049 A 
ATOM      6  C   UNL     1       5.839  -5.738  25.468  0.00  0.00    +0.140 A 
ATOM      7  N   UNL     1       5.973  -6.031  26.802  0.00  0.00    -0.325 N 
ATOM      8  H   UNL     1       6.256  -6.971  27.058  0.00  0.00    +0.148 HD
ATOM      9  N   UNL     1       5.303  -4.638  21.636  0.00  0.00    -0.128 NA
ATOM     10  N   UNL     1       6.420  -4.675  24.981  0.00  0.00    -0.148 NA
ATOM     11  N   UNL     1       6.187  -3.586  21.630  0.00  0.00    -0.127 NA
ENDROOT
BRANCH   1  14
ATOM     12  C   UNL     1       9.112  -0.555  22.678  0.00  0.00    +0.055 A 
ATOM     13  C   UNL     1       8.001  -1.399  22.501  0.00  0.00    +0.024 A 
ATOM     14  C   UNL     1       7.928  -2.657  23.121  0.00  0.00    +0.022 A 
ATOM     15  C   UNL     1       8.996  -3.061  23.932  0.00  0.00    +0.011 A 
ATOM     16  C   UNL     1      10.102  -2.229  24.125  0.00  0.00    +0.001 A 
ATOM     17  C   UNL     1      10.161  -0.982  23.503  0.00  0.00    +0.012 A 
BRANCH  12  19
ATOM     18  F   UNL     1       8.790   0.694  20.651  0.00  0.00    -0.166 F 
ATOM     19  C   UNL     1       9.164   0.770  21.960  0.00  0.00    +0.417 C 
ATOM     20  F   UNL     1       8.347   1.703  22.523  0.00  0.00    -0.166 F 
ATOM     21  F   UNL     1      10.411   1.315  21.958  0.00  0.00    -0.166 F 
ENDBRANCH  12  19
ENDBRANCH   1  14
BRANCH   7  22
ATOM     22  C   UNL     1       5.933  -5.033  27.866  0.00  0.00    +0.072 C 
ATOM     23  C   UNL     1       6.015  -5.664  29.257  0.00  0.00    +0.022 C 
ATOM     24  C   UNL     1       4.707  -6.264  29.777  0.00  0.00    +0.002 C 
ATOM     25  C   UNL     1       3.480  -5.392  29.537  0.00  0.00    +0.000 C 
ATOM     26  C   UNL     1       3.398  -4.889  28.103  0.00  0.00    +0.002 C 
ATOM     27  C   UNL     1       4.679  -4.160  27.709  0.00  0.00    +0.022 C 
ENDBRANCH   7  22
TORSDOF 3
ENDMDL
