MODEL 1
REMARK VINA RESULT:      -6.2      0.000      0.000
REMARK  Name = 
REMARK  11 active torsions:
REMARK  status: ('A' for Active; 'I' for Inactive)
REMARK    1  A    between atoms: C_1  and  C_2
REMARK    2  A    between atoms: C_2  and  O_4
REMARK    3  A    between atoms: O_4  and  C_5
REMARK    4  A    between atoms: C_5  and  C_6
REMARK    5  A    between atoms: N_8  and  C_9
REMARK    6  A    between atoms: C_9  and  C_10
REMARK    7  A    between atoms: C_10  and  C_11
REMARK    8  A    between atoms: C_11  and  O_12
REMARK    9  A    between atoms: O_12  and  C_13
REMARK   10  A    between atoms: C_17  and  C_18
REMARK   11  A    between atoms: C_18  and  N_19
REMARK                            x       y       z     vdW  Elec       q    Type
REMARK                         _______ _______ _______ _____ _____    ______ ____
ROOT
ATOM      1  O   UNL     1       6.626  -4.159  27.397  0.00  0.00    -0.492 OA
ENDROOT
BRANCH   1   2
ATOM      2  C   UNL     1       7.630  -4.057  26.467  0.00  0.00    +0.121 A 
ATOM      3  C   UNL     1       7.643  -2.895  25.691  0.00  0.00    +0.050 A 
ATOM      4  C   UNL     1       8.664  -2.672  24.748  0.00  0.00    -0.030 A 
ATOM      5  C   UNL     1       9.648  -3.652  24.564  0.00  0.00    +0.005 A 
ATOM      6  C   UNL     1       9.610  -4.829  25.306  0.00  0.00    +0.004 A 
ATOM      7  C   UNL     1       8.604  -5.033  26.249  0.00  0.00    +0.045 A 
BRANCH   4   8
ATOM      8  C   UNL     1       8.760  -1.342  24.026  0.00  0.00    +0.119 C 
BRANCH   8   9
ATOM      9  N   UNL     1      10.101  -0.985  23.524  0.00  0.00    -0.298 NA
ATOM     10  C   UNL     1      10.621   0.200  24.228  0.00  0.00    +0.085 C 
ATOM     11  C   UNL     1       9.887   1.495  23.867  0.00  0.00    +0.015 C 
ATOM     12  C   UNL     1       9.933   1.740  22.363  0.00  0.00    +0.002 C 
ATOM     13  C   UNL     1       9.463   0.512  21.589  0.00  0.00    +0.015 C 
ATOM     14  C   UNL     1      10.153  -0.771  22.068  0.00  0.00    +0.085 C 
ENDBRANCH   8   9
ENDBRANCH   4   8
ENDBRANCH   1   2
BRANCH   1  15
ATOM     15  C   UNL     1       6.391  -5.493  27.864  0.00  0.00    +0.230 C 
BRANCH  15  16
ATOM     16  C   UNL     1       4.930  -5.875  27.659  0.00  0.00    +0.060 C 
BRANCH  16  17
ATOM     17  C   UNL     1       4.757  -6.735  26.411  0.00  0.00    +0.107 C 
BRANCH  17  19
ATOM     18  C   UNL     1       4.517  -5.121  24.553  0.00  0.00    +0.251 C 
ATOM     19  N   UNL     1       5.263  -6.064  25.232  0.00  0.00    -0.312 N 
ATOM     20  H   UNL     1       6.145  -6.377  24.848  0.00  0.00    +0.149 HD
ATOM     21  O   UNL     1       3.407  -4.747  24.929  0.00  0.00    -0.272 OA
BRANCH  18  22
ATOM     22  C   UNL     1       5.203  -4.559  23.305  0.00  0.00    +0.327 C 
BRANCH  22  23
ATOM     23  O   UNL     1       4.934  -5.321  22.130  0.00  0.00    -0.455 OA
BRANCH  23  25
ATOM     24  C   UNL     1       7.261  -5.610  22.207  0.00  0.00    +0.136 C 
ATOM     25  C   UNL     1       6.031  -5.540  21.355  0.00  0.00    +0.304 C 
ATOM     26  O   UNL     1       6.020  -5.676  20.139  0.00  0.00    -0.251 OA
ENDBRANCH  23  25
ENDBRANCH  22  23
ENDBRANCH  18  22
ENDBRANCH  17  19
ENDBRANCH  16  17
ENDBRANCH  15  16
ENDBRANCH   1  15
TORSDOF 10
ENDMDL
MODEL 2
REMARK VINA RESULT:      -6.1      2.867      4.826
REMARK  Name = 
REMARK  11 active torsions:
REMARK  status: ('A' for Active; 'I' for Inactive)
REMARK    1  A    between atoms: C_1  and  C_2
REMARK    2  A    between atoms: C_2  and  O_4
REMARK    3  A    between atoms: O_4  and  C_5
REMARK    4  A    between atoms: C_5  and  C_6
REMARK    5  A    between atoms: N_8  and  C_9
REMARK    6  A    between atoms: C_9  and  C_10
REMARK    7  A    between atoms: C_10  and  C_11
REMARK    8  A    between atoms: C_11  and  O_12
REMARK    9  A    between atoms: O_12  and  C_13
REMARK   10  A    between atoms: C_17  and  C_18
REMARK   11  A    between atoms: C_18  and  N_19
REMARK                            x       y       z     vdW  Elec       q    Type
REMARK                         _______ _______ _______ _____ _____    ______ ____
ROOT
ATOM      1  O   UNL     1       9.543  -1.231  25.057  0.00  0.00    -0.492 OA
ENDROOT
BRANCH   1   2
ATOM      2  C   UNL     1       9.603  -0.385  23.979  0.00  0.00    +0.121 A 
ATOM      3  C   UNL     1       9.699   0.979  24.261  0.00  0.00    +0.050 A 
ATOM      4  C   UNL     1       9.821   1.922  23.224  0.00  0.00    -0.030 A 
ATOM      5  C   UNL     1       9.803   1.479  21.895  0.00  0.00    +0.005 A 
ATOM      6  C   UNL     1       9.664   0.124  21.611  0.00  0.00    +0.004 A 
ATOM      7  C   UNL     1       9.559  -0.803  22.647  0.00  0.00    +0.045 A 
BRANCH   4   8
ATOM      8  C   UNL     1      10.083   3.381  23.544  0.00  0.00    +0.119 C 
BRANCH   8   9
ATOM      9  N   UNL     1       9.048   4.052  24.354  0.00  0.00    -0.298 NA
ATOM     10  C   UNL     1       7.730   3.947  23.703  0.00  0.00    +0.085 C 
ATOM     11  C   UNL     1       7.609   4.790  22.430  0.00  0.00    +0.015 C 
ATOM     12  C   UNL     1       7.914   6.254  22.722  0.00  0.00    +0.002 C 
ATOM     13  C   UNL     1       9.243   6.407  23.456  0.00  0.00    +0.015 C 
ATOM     14  C   UNL     1       9.350   5.460  24.658  0.00  0.00    +0.085 C 
ENDBRANCH   8   9
ENDBRANCH   4   8
ENDBRANCH   1   2
BRANCH   1  15
ATOM     15  C   UNL     1       8.807  -0.711  26.171  0.00  0.00    +0.230 C 
BRANCH  15  16
ATOM     16  C   UNL     1       7.740  -1.708  26.610  0.00  0.00    +0.060 C 
BRANCH  16  17
ATOM     17  C   UNL     1       8.261  -3.139  26.533  0.00  0.00    +0.107 C 
BRANCH  17  19
ATOM     18  C   UNL     1       8.492  -4.479  24.468  0.00  0.00    +0.251 C 
ATOM     19  N   UNL     1       7.697  -3.848  25.404  0.00  0.00    -0.312 N 
ATOM     20  H   UNL     1       6.699  -3.785  25.253  0.00  0.00    +0.149 HD
ATOM     21  O   UNL     1       9.718  -4.531  24.555  0.00  0.00    -0.272 OA
BRANCH  18  22
ATOM     22  C   UNL     1       7.712  -5.133  23.322  0.00  0.00    +0.327 C 
BRANCH  22  23
ATOM     23  O   UNL     1       7.463  -4.241  22.238  0.00  0.00    -0.455 OA
BRANCH  23  25
ATOM     24  C   UNL     1       6.126  -2.343  22.575  0.00  0.00    +0.136 C 
ATOM     25  C   UNL     1       6.180  -3.788  22.185  0.00  0.00    +0.304 C 
ATOM     26  O   UNL     1       5.209  -4.454  21.854  0.00  0.00    -0.251 OA
ENDBRANCH  23  25
ENDBRANCH  22  23
ENDBRANCH  18  22
ENDBRANCH  17  19
ENDBRANCH  16  17
ENDBRANCH  15  16
ENDBRANCH   1  15
TORSDOF 10
ENDMDL
MODEL 3
REMARK VINA RESULT:      -6.1      1.564      3.964
REMARK  Name = 
REMARK  11 active torsions:
REMARK  status: ('A' for Active; 'I' for Inactive)
REMARK    1  A    between atoms: C_1  and  C_2
REMARK    2  A    between atoms: C_2  and  O_4
REMARK    3  A    between atoms: O_4  and  C_5
REMARK    4  A    between atoms: C_5  and  C_6
REMARK    5  A    between atoms: N_8  and  C_9
REMARK    6  A    between atoms: C_9  and  C_10
REMARK    7  A    between atoms: C_10  and  C_11
REMARK    8  A    between atoms: C_11  and  O_12
REMARK    9  A    between atoms: O_12  and  C_13
REMARK   10  A    between atoms: C_17  and  C_18
REMARK   11  A    between atoms: C_18  and  N_19
REMARK                            x       y       z     vdW  Elec       q    Type
REMARK                         _______ _______ _______ _____ _____    ______ ____
ROOT
ATOM      1  O   UNL     1       7.922  -5.445  23.267  0.00  0.00    -0.492 OA
ENDROOT
BRANCH   1   2
ATOM      2  C   UNL     1       8.074  -4.494  24.244  0.00  0.00    +0.121 A 
ATOM      3  C   UNL     1       8.813  -3.360  23.900  0.00  0.00    +0.050 A 
ATOM      4  C   UNL     1       8.979  -2.304  24.815  0.00  0.00    -0.030 A 
ATOM      5  C   UNL     1       8.427  -2.421  26.098  0.00  0.00    +0.005 A 
ATOM      6  C   UNL     1       7.728  -3.570  26.456  0.00  0.00    +0.004 A 
ATOM      7  C   UNL     1       7.557  -4.603  25.536  0.00  0.00    +0.045 A 
BRANCH   4   8
ATOM      8  C   UNL     1       9.645  -1.013  24.380  0.00  0.00    +0.119 C 
BRANCH   8   9
ATOM      9  N   UNL     1       8.730   0.104  24.073  0.00  0.00    -0.298 NA
ATOM     10  C   UNL     1       8.342   0.081  22.652  0.00  0.00    +0.085 C 
ATOM     11  C   UNL     1       9.484   0.451  21.701  0.00  0.00    +0.015 C 
ATOM     12  C   UNL     1      10.053   1.822  22.049  0.00  0.00    +0.002 C 
ATOM     13  C   UNL     1      10.410   1.914  23.529  0.00  0.00    +0.015 C 
ATOM     14  C   UNL     1       9.267   1.428  24.429  0.00  0.00    +0.085 C 
ENDBRANCH   8   9
ENDBRANCH   4   8
ENDBRANCH   1   2
BRANCH   1  15
ATOM     15  C   UNL     1       7.276  -4.971  22.079  0.00  0.00    +0.230 C 
BRANCH  15  16
ATOM     16  C   UNL     1       6.189  -5.948  21.644  0.00  0.00    +0.060 C 
BRANCH  16  17
ATOM     17  C   UNL     1       4.902  -5.723  22.430  0.00  0.00    +0.107 C 
BRANCH  17  19
ATOM     18  C   UNL     1       4.300  -6.071  24.803  0.00  0.00    +0.251 C 
ATOM     19  N   UNL     1       4.868  -6.531  23.632  0.00  0.00    -0.312 N 
ATOM     20  H   UNL     1       5.366  -7.412  23.627  0.00  0.00    +0.149 HD
ATOM     21  O   UNL     1       3.741  -4.980  24.894  0.00  0.00    -0.272 OA
BRANCH  18  22
ATOM     22  C   UNL     1       4.404  -7.052  25.976  0.00  0.00    +0.327 C 
BRANCH  22  23
ATOM     23  O   UNL     1       5.517  -6.787  26.827  0.00  0.00    -0.455 OA
BRANCH  23  25
ATOM     24  C   UNL     1       3.977  -6.192  28.494  0.00  0.00    +0.136 C 
ATOM     25  C   UNL     1       5.238  -6.923  28.153  0.00  0.00    +0.304 C 
ATOM     26  O   UNL     1       5.910  -7.561  28.953  0.00  0.00    -0.251 OA
ENDBRANCH  23  25
ENDBRANCH  22  23
ENDBRANCH  18  22
ENDBRANCH  17  19
ENDBRANCH  16  17
ENDBRANCH  15  16
ENDBRANCH   1  15
TORSDOF 10
ENDMDL
MODEL 4
REMARK VINA RESULT:      -6.1      1.802      4.414
REMARK  Name = 
REMARK  11 active torsions:
REMARK  status: ('A' for Active; 'I' for Inactive)
REMARK    1  A    between atoms: C_1  and  C_2
REMARK    2  A    between atoms: C_2  and  O_4
REMARK    3  A    between atoms: O_4  and  C_5
REMARK    4  A    between atoms: C_5  and  C_6
REMARK    5  A    between atoms: N_8  and  C_9
REMARK    6  A    between atoms: C_9  and  C_10
REMARK    7  A    between atoms: C_10  and  C_11
REMARK    8  A    between atoms: C_11  and  O_12
REMARK    9  A    between atoms: O_12  and  C_13
REMARK   10  A    between atoms: C_17  and  C_18
REMARK   11  A    between atoms: C_18  and  N_19
REMARK                            x       y       z     vdW  Elec       q    Type
REMARK                         _______ _______ _______ _____ _____    ______ ____
ROOT
ATOM      1  O   UNL     1       4.984  -4.086  22.067  0.00  0.00    -0.492 OA
ENDROOT
BRANCH   1   2
ATOM      2  C   UNL     1       5.225  -3.216  23.100  0.00  0.00    +0.121 A 
ATOM      3  C   UNL     1       6.191  -2.232  22.873  0.00  0.00    +0.050 A 
ATOM      4  C   UNL     1       6.471  -1.260  23.851  0.00  0.00    -0.030 A 
ATOM      5  C   UNL     1       5.798  -1.314  25.079  0.00  0.00    +0.005 A 
ATOM      6  C   UNL     1       4.867  -2.320  25.322  0.00  0.00    +0.004 A 
ATOM      7  C   UNL     1       4.586  -3.269  24.340  0.00  0.00    +0.045 A 
BRANCH   4   8
ATOM      8  C   UNL     1       7.403  -0.106  23.536  0.00  0.00    +0.119 C 
BRANCH   8   9
ATOM      9  N   UNL     1       8.745  -0.483  23.052  0.00  0.00    -0.298 NA
ATOM     10  C   UNL     1       9.766  -0.193  24.073  0.00  0.00    +0.085 C 
ATOM     11  C   UNL     1      10.011   1.303  24.284  0.00  0.00    +0.015 C 
ATOM     12  C   UNL     1      10.401   1.976  22.973  0.00  0.00    +0.002 C 
ATOM     13  C   UNL     1       9.403   1.650  21.866  0.00  0.00    +0.015 C 
ATOM     14  C   UNL     1       9.115   0.146  21.774  0.00  0.00    +0.085 C 
ENDBRANCH   8   9
ENDBRANCH   4   8
ENDBRANCH   1   2
BRANCH   1  15
ATOM     15  C   UNL     1       5.131  -5.468  22.415  0.00  0.00    +0.230 C 
BRANCH  15  16
ATOM     16  C   UNL     1       6.333  -6.069  21.696  0.00  0.00    +0.060 C 
BRANCH  16  17
ATOM     17  C   UNL     1       7.633  -5.720  22.414  0.00  0.00    +0.107 C 
BRANCH  17  19
ATOM     18  C   UNL     1       8.252  -4.673  24.566  0.00  0.00    +0.251 C 
ATOM     19  N   UNL     1       7.409  -5.476  23.823  0.00  0.00    -0.312 N 
ATOM     20  H   UNL     1       6.673  -5.993  24.285  0.00  0.00    +0.149 HD
ATOM     21  O   UNL     1       9.208  -4.071  24.079  0.00  0.00    -0.272 OA
BRANCH  18  22
ATOM     22  C   UNL     1       7.878  -4.574  26.049  0.00  0.00    +0.327 C 
BRANCH  22  23
ATOM     23  O   UNL     1       6.685  -5.286  26.370  0.00  0.00    -0.455 OA
BRANCH  23  25
ATOM     24  C   UNL     1       5.426  -4.590  28.223  0.00  0.00    +0.136 C 
ATOM     25  C   UNL     1       6.509  -5.486  27.705  0.00  0.00    +0.304 C 
ATOM     26  O   UNL     1       7.131  -6.288  28.388  0.00  0.00    -0.251 OA
ENDBRANCH  23  25
ENDBRANCH  22  23
ENDBRANCH  18  22
ENDBRANCH  17  19
ENDBRANCH  16  17
ENDBRANCH  15  16
ENDBRANCH   1  15
TORSDOF 10
ENDMDL
MODEL 5
REMARK VINA RESULT:      -5.9      1.715      3.708
REMARK  Name = 
REMARK  11 active torsions:
REMARK  status: ('A' for Active; 'I' for Inactive)
REMARK    1  A    between atoms: C_1  and  C_2
REMARK    2  A    between atoms: C_2  and  O_4
REMARK    3  A    between atoms: O_4  and  C_5
REMARK    4  A    between atoms: C_5  and  C_6
REMARK    5  A    between atoms: N_8  and  C_9
REMARK    6  A    between atoms: C_9  and  C_10
REMARK    7  A    between atoms: C_10  and  C_11
REMARK    8  A    between atoms: C_11  and  O_12
REMARK    9  A    between atoms: O_12  and  C_13
REMARK   10  A    between atoms: C_17  and  C_18
REMARK   11  A    between atoms: C_18  and  N_19
REMARK                            x       y       z     vdW  Elec       q    Type
REMARK                         _______ _______ _______ _____ _____    ______ ____
ROOT
ATOM      1  O   UNL     1       3.454  -4.798  23.172  0.00  0.00    -0.492 OA
ENDROOT
BRANCH   1   2
ATOM      2  C   UNL     1       4.770  -4.787  22.786  0.00  0.00    +0.121 A 
ATOM      3  C   UNL     1       5.434  -3.560  22.870  0.00  0.00    +0.050 A 
ATOM      4  C   UNL     1       6.799  -3.457  22.548  0.00  0.00    -0.030 A 
ATOM      5  C   UNL     1       7.482  -4.595  22.098  0.00  0.00    +0.005 A 
ATOM      6  C   UNL     1       6.811  -5.808  21.972  0.00  0.00    +0.004 A 
ATOM      7  C   UNL     1       5.461  -5.902  22.309  0.00  0.00    +0.045 A 
BRANCH   4   8
ATOM      8  C   UNL     1       7.547  -2.160  22.795  0.00  0.00    +0.119 C 
BRANCH   8   9
ATOM      9  N   UNL     1       8.990  -2.188  22.485  0.00  0.00    -0.298 NA
ATOM     10  C   UNL     1       9.787  -2.201  23.724  0.00  0.00    +0.085 C 
ATOM     11  C   UNL     1       9.742  -0.878  24.493  0.00  0.00    +0.015 C 
ATOM     12  C   UNL     1      10.201   0.276  23.608  0.00  0.00    +0.002 C 
ATOM     13  C   UNL     1       9.445   0.290  22.283  0.00  0.00    +0.015 C 
ATOM     14  C   UNL     1       9.432  -1.089  21.612  0.00  0.00    +0.085 C 
ENDBRANCH   8   9
ENDBRANCH   4   8
ENDBRANCH   1   2
BRANCH   1  15
ATOM     15  C   UNL     1       2.823  -6.080  23.070  0.00  0.00    +0.230 C 
BRANCH  15  16
ATOM     16  C   UNL     1       2.166  -6.452  24.395  0.00  0.00    +0.060 C 
BRANCH  16  17
ATOM     17  C   UNL     1       2.987  -7.502  25.138  0.00  0.00    +0.107 C 
BRANCH  17  19
ATOM     18  C   UNL     1       4.540  -6.386  26.705  0.00  0.00    +0.251 C 
ATOM     19  N   UNL     1       4.297  -6.996  25.490  0.00  0.00    -0.312 N 
ATOM     20  H   UNL     1       5.018  -7.006  24.780  0.00  0.00    +0.149 HD
ATOM     21  O   UNL     1       3.687  -6.279  27.584  0.00  0.00    -0.272 OA
BRANCH  18  22
ATOM     22  C   UNL     1       5.975  -5.876  26.873  0.00  0.00    +0.327 C 
BRANCH  22  23
ATOM     23  O   UNL     1       6.649  -5.688  25.630  0.00  0.00    -0.455 OA
BRANCH  23  25
ATOM     24  C   UNL     1       7.605  -3.686  26.394  0.00  0.00    +0.136 C 
ATOM     25  C   UNL     1       7.828  -5.016  25.742  0.00  0.00    +0.304 C 
ATOM     26  O   UNL     1       8.917  -5.436  25.376  0.00  0.00    -0.251 OA
ENDBRANCH  23  25
ENDBRANCH  22  23
ENDBRANCH  18  22
ENDBRANCH  17  19
ENDBRANCH  16  17
ENDBRANCH  15  16
ENDBRANCH   1  15
TORSDOF 10
ENDMDL
MODEL 6
REMARK VINA RESULT:      -5.8      4.551      8.432
REMARK  Name = 
REMARK  11 active torsions:
REMARK  status: ('A' for Active; 'I' for Inactive)
REMARK    1  A    between atoms: C_1  and  C_2
REMARK    2  A    between atoms: C_2  and  O_4
REMARK    3  A    between atoms: O_4  and  C_5
REMARK    4  A    between atoms: C_5  and  C_6
REMARK    5  A    between atoms: N_8  and  C_9
REMARK    6  A    between atoms: C_9  and  C_10
REMARK    7  A    between atoms: C_10  and  C_11
REMARK    8  A    between atoms: C_11  and  O_12
REMARK    9  A    between atoms: O_12  and  C_13
REMARK   10  A    between atoms: C_17  and  C_18
REMARK   11  A    between atoms: C_18  and  N_19
REMARK                            x       y       z     vdW  Elec       q    Type
REMARK                         _______ _______ _______ _____ _____    ______ ____
ROOT
ATOM      1  O   UNL     1       7.162   1.209  22.527  0.00  0.00    -0.492 OA
ENDROOT
BRANCH   1   2
ATOM      2  C   UNL     1       8.132   0.242  22.602  0.00  0.00    +0.121 A 
ATOM      3  C   UNL     1       8.083  -0.605  23.713  0.00  0.00    +0.050 A 
ATOM      4  C   UNL     1       9.001  -1.662  23.853  0.00  0.00    -0.030 A 
ATOM      5  C   UNL     1       9.998  -1.832  22.883  0.00  0.00    +0.005 A 
ATOM      6  C   UNL     1      10.075  -0.962  21.799  0.00  0.00    +0.004 A 
ATOM      7  C   UNL     1       9.150   0.072  21.663  0.00  0.00    +0.045 A 
BRANCH   4   8
ATOM      8  C   UNL     1       8.841  -2.669  24.975  0.00  0.00    +0.119 C 
BRANCH   8   9
ATOM      9  N   UNL     1       8.885  -4.088  24.569  0.00  0.00    -0.298 NA
ATOM     10  C   UNL     1       7.631  -4.477  23.902  0.00  0.00    +0.085 C 
ATOM     11  C   UNL     1       6.431  -4.547  24.851  0.00  0.00    +0.015 C 
ATOM     12  C   UNL     1       6.710  -5.505  26.003  0.00  0.00    +0.002 C 
ATOM     13  C   UNL     1       8.036  -5.179  26.685  0.00  0.00    +0.015 C 
ATOM     14  C   UNL     1       9.178  -5.014  25.675  0.00  0.00    +0.085 C 
ENDBRANCH   8   9
ENDBRANCH   4   8
ENDBRANCH   1   2
BRANCH   1  15
ATOM     15  C   UNL     1       6.376   1.348  23.717  0.00  0.00    +0.230 C 
BRANCH  15  16
ATOM     16  C   UNL     1       6.576   2.733  24.323  0.00  0.00    +0.060 C 
BRANCH  16  17
ATOM     17  C   UNL     1       7.895   2.814  25.084  0.00  0.00    +0.107 C 
BRANCH  17  19
ATOM     18  C   UNL     1      10.161   2.858  24.096  0.00  0.00    +0.251 C 
ATOM     19  N   UNL     1       8.927   3.446  24.288  0.00  0.00    -0.312 N 
ATOM     20  H   UNL     1       8.762   4.387  23.956  0.00  0.00    +0.149 HD
ATOM     21  O   UNL     1      10.450   1.746  24.533  0.00  0.00    -0.272 OA
BRANCH  18  22
ATOM     22  C   UNL     1      11.134   3.702  23.266  0.00  0.00    +0.327 C 
BRANCH  22  23
ATOM     23  O   UNL     1      11.089   5.089  23.595  0.00  0.00    -0.455 OA
BRANCH  23  25
ATOM     24  C   UNL     1      13.145   5.438  22.520  0.00  0.00    +0.136 C 
ATOM     25  C   UNL     1      12.317   5.656  23.749  0.00  0.00    +0.304 C 
ATOM     26  O   UNL     1      12.693   6.268  24.740  0.00  0.00    -0.251 OA
ENDBRANCH  23  25
ENDBRANCH  22  23
ENDBRANCH  18  22
ENDBRANCH  17  19
ENDBRANCH  16  17
ENDBRANCH  15  16
ENDBRANCH   1  15
TORSDOF 10
ENDMDL
MODEL 7
REMARK VINA RESULT:      -5.7      1.781      3.597
REMARK  Name = 
REMARK  11 active torsions:
REMARK  status: ('A' for Active; 'I' for Inactive)
REMARK    1  A    between atoms: C_1  and  C_2
REMARK    2  A    between atoms: C_2  and  O_4
REMARK    3  A    between atoms: O_4  and  C_5
REMARK    4  A    between atoms: C_5  and  C_6
REMARK    5  A    between atoms: N_8  and  C_9
REMARK    6  A    between atoms: C_9  and  C_10
REMARK    7  A    between atoms: C_10  and  C_11
REMARK    8  A    between atoms: C_11  and  O_12
REMARK    9  A    between atoms: O_12  and  C_13
REMARK   10  A    between atoms: C_17  and  C_18
REMARK   11  A    between atoms: C_18  and  N_19
REMARK                            x       y       z     vdW  Elec       q    Type
REMARK                         _______ _______ _______ _____ _____    ______ ____
ROOT
ATOM      1  O   UNL     1       6.155  -4.402  22.877  0.00  0.00    -0.492 OA
ENDROOT
BRANCH   1   2
ATOM      2  C   UNL     1       7.374  -3.881  23.229  0.00  0.00    +0.121 A 
ATOM      3  C   UNL     1       7.792  -2.746  22.530  0.00  0.00    +0.050 A 
ATOM      4  C   UNL     1       9.002  -2.106  22.855  0.00  0.00    -0.030 A 
ATOM      5  C   UNL     1       9.809  -2.646  23.865  0.00  0.00    +0.005 A 
ATOM      6  C   UNL     1       9.415  -3.802  24.532  0.00  0.00    +0.004 A 
ATOM      7  C   UNL     1       8.206  -4.419  24.212  0.00  0.00    +0.045 A 
BRANCH   4   8
ATOM      8  C   UNL     1       9.369  -0.788  22.200  0.00  0.00    +0.119 C 
BRANCH   8   9
ATOM      9  N   UNL     1       8.472   0.345  22.503  0.00  0.00    -0.298 NA
ATOM     10  C   UNL     1       8.895   1.552  21.771  0.00  0.00    +0.085 C 
ATOM     11  C   UNL     1      10.206   2.151  22.288  0.00  0.00    +0.015 C 
ATOM     12  C   UNL     1      10.103   2.471  23.775  0.00  0.00    +0.002 C 
ATOM     13  C   UNL     1       9.605   1.266  24.567  0.00  0.00    +0.015 C 
ATOM     14  C   UNL     1       8.352   0.642  23.939  0.00  0.00    +0.085 C 
ENDBRANCH   8   9
ENDBRANCH   4   8
ENDBRANCH   1   2
BRANCH   1  15
ATOM     15  C   UNL     1       6.114  -5.834  22.846  0.00  0.00    +0.230 C 
BRANCH  15  16
ATOM     16  C   UNL     1       4.773  -6.336  23.369  0.00  0.00    +0.060 C 
BRANCH  16  17
ATOM     17  C   UNL     1       4.807  -6.515  24.883  0.00  0.00    +0.107 C 
BRANCH  17  19
ATOM     18  C   UNL     1       5.783  -5.051  26.621  0.00  0.00    +0.251 C 
ATOM     19  N   UNL     1       4.914  -5.242  25.565  0.00  0.00    -0.312 N 
ATOM     20  H   UNL     1       4.258  -4.513  25.317  0.00  0.00    +0.149 HD
ATOM     21  O   UNL     1       6.558  -5.920  27.017  0.00  0.00    -0.272 OA
BRANCH  18  22
ATOM     22  C   UNL     1       5.718  -3.651  27.240  0.00  0.00    +0.327 C 
BRANCH  22  23
ATOM     23  O   UNL     1       4.946  -2.735  26.467  0.00  0.00    -0.455 OA
BRANCH  23  25
ATOM     24  C   UNL     1       7.040  -1.678  26.528  0.00  0.00    +0.136 C 
ATOM     25  C   UNL     1       5.683  -1.743  25.896  0.00  0.00    +0.304 C 
ATOM     26  O   UNL     1       5.304  -1.014  24.989  0.00  0.00    -0.251 OA
ENDBRANCH  23  25
ENDBRANCH  22  23
ENDBRANCH  18  22
ENDBRANCH  17  19
ENDBRANCH  16  17
ENDBRANCH  15  16
ENDBRANCH   1  15
TORSDOF 10
ENDMDL
MODEL 8
REMARK VINA RESULT:      -5.7      3.703      7.879
REMARK  Name = 
REMARK  11 active torsions:
REMARK  status: ('A' for Active; 'I' for Inactive)
REMARK    1  A    between atoms: C_1  and  C_2
REMARK    2  A    between atoms: C_2  and  O_4
REMARK    3  A    between atoms: O_4  and  C_5
REMARK    4  A    between atoms: C_5  and  C_6
REMARK    5  A    between atoms: N_8  and  C_9
REMARK    6  A    between atoms: C_9  and  C_10
REMARK    7  A    between atoms: C_10  and  C_11
REMARK    8  A    between atoms: C_11  and  O_12
REMARK    9  A    between atoms: O_12  and  C_13
REMARK   10  A    between atoms: C_17  and  C_18
REMARK   11  A    between atoms: C_18  and  N_19
REMARK                            x       y       z     vdW  Elec       q    Type
REMARK                         _______ _______ _______ _____ _____    ______ ____
ROOT
ATOM      1  O   UNL     1      10.615   2.185  23.957  0.00  0.00    -0.492 OA
ENDROOT
BRANCH   1   2
ATOM      2  C   UNL     1      10.215   1.100  23.220  0.00  0.00    +0.121 A 
ATOM      3  C   UNL     1      10.309  -0.147  23.844  0.00  0.00    +0.050 A 
ATOM      4  C   UNL     1       9.873  -1.314  23.190  0.00  0.00    -0.030 A 
ATOM      5  C   UNL     1       9.379  -1.218  21.882  0.00  0.00    +0.005 A 
ATOM      6  C   UNL     1       9.325   0.017  21.244  0.00  0.00    +0.004 A 
ATOM      7  C   UNL     1       9.746   1.169  21.907  0.00  0.00    +0.045 A 
BRANCH   4   8
ATOM      8  C   UNL     1       9.831  -2.636  23.933  0.00  0.00    +0.119 C 
BRANCH   8   9
ATOM      9  N   UNL     1       8.498  -3.259  24.049  0.00  0.00    -0.298 NA
ATOM     10  C   UNL     1       7.781  -2.738  25.225  0.00  0.00    +0.085 C 
ATOM     11  C   UNL     1       8.372  -3.207  26.558  0.00  0.00    +0.015 C 
ATOM     12  C   UNL     1       8.412  -4.730  26.623  0.00  0.00    +0.002 C 
ATOM     13  C   UNL     1       9.090  -5.319  25.389  0.00  0.00    +0.015 C 
ATOM     14  C   UNL     1       8.531  -4.730  24.088  0.00  0.00    +0.085 C 
ENDBRANCH   8   9
ENDBRANCH   4   8
ENDBRANCH   1   2
BRANCH   1  15
ATOM     15  C   UNL     1      11.075   3.292  23.173  0.00  0.00    +0.230 C 
BRANCH  15  16
ATOM     16  C   UNL     1      10.875   4.598  23.934  0.00  0.00    +0.060 C 
BRANCH  16  17
ATOM     17  C   UNL     1       9.445   5.106  23.784  0.00  0.00    +0.107 C 
BRANCH  17  19
ATOM     18  C   UNL     1       8.030   4.240  25.617  0.00  0.00    +0.251 C 
ATOM     19  N   UNL     1       8.488   4.159  24.317  0.00  0.00    -0.312 N 
ATOM     20  H   UNL     1       8.235   3.365  23.744  0.00  0.00    +0.149 HD
ATOM     21  O   UNL     1       8.354   5.142  26.388  0.00  0.00    -0.272 OA
BRANCH  18  22
ATOM     22  C   UNL     1       7.059   3.121  26.009  0.00  0.00    +0.327 C 
BRANCH  22  23
ATOM     23  O   UNL     1       7.659   1.828  25.981  0.00  0.00    -0.455 OA
BRANCH  23  25
ATOM     24  C   UNL     1       6.650   0.729  24.170  0.00  0.00    +0.136 C 
ATOM     25  C   UNL     1       6.793   0.828  25.658  0.00  0.00    +0.304 C 
ATOM     26  O   UNL     1       6.221   0.103  26.461  0.00  0.00    -0.251 OA
ENDBRANCH  23  25
ENDBRANCH  22  23
ENDBRANCH  18  22
ENDBRANCH  17  19
ENDBRANCH  16  17
ENDBRANCH  15  16
ENDBRANCH   1  15
TORSDOF 10
ENDMDL
MODEL 9
REMARK VINA RESULT:      -5.7      2.943      4.937
REMARK  Name = 
REMARK  11 active torsions:
REMARK  status: ('A' for Active; 'I' for Inactive)
REMARK    1  A    between atoms: C_1  and  C_2
REMARK    2  A    between atoms: C_2  and  O_4
REMARK    3  A    between atoms: O_4  and  C_5
REMARK    4  A    between atoms: C_5  and  C_6
REMARK    5  A    between atoms: N_8  and  C_9
REMARK    6  A    between atoms: C_9  and  C_10
REMARK    7  A    between atoms: C_10  and  C_11
REMARK    8  A    between atoms: C_11  and  O_12
REMARK    9  A    between atoms: O_12  and  C_13
REMARK   10  A    between atoms: C_17  and  C_18
REMARK   11  A    between atoms: C_18  and  N_19
REMARK                            x       y       z     vdW  Elec       q    Type
REMARK                         _______ _______ _______ _____ _____    ______ ____
ROOT
ATOM      1  O   UNL     1       9.648  -1.121  24.865  0.00  0.00    -0.492 OA
ENDROOT
BRANCH   1   2
ATOM      2  C   UNL     1       9.655  -0.173  23.874  0.00  0.00    +0.121 A 
ATOM      3  C   UNL     1       9.832   1.152  24.281  0.00  0.00    +0.050 A 
ATOM      4  C   UNL     1       9.907   2.191  23.335  0.00  0.00    -0.030 A 
ATOM      5  C   UNL     1       9.760   1.887  21.975  0.00  0.00    +0.005 A 
ATOM      6  C   UNL     1       9.539   0.573  21.572  0.00  0.00    +0.004 A 
ATOM      7  C   UNL     1       9.482  -0.450  22.517  0.00  0.00    +0.045 A 
BRANCH   4   8
ATOM      8  C   UNL     1      10.258   3.600  23.773  0.00  0.00    +0.119 C 
BRANCH   8   9
ATOM      9  N   UNL     1       9.250   4.633  23.466  0.00  0.00    -0.298 NA
ATOM     10  C   UNL     1       9.829   5.981  23.600  0.00  0.00    +0.085 C 
ATOM     11  C   UNL     1      10.127   6.375  25.050  0.00  0.00    +0.015 C 
ATOM     12  C   UNL     1       8.869   6.276  25.905  0.00  0.00    +0.002 C 
ATOM     13  C   UNL     1       8.198   4.915  25.747  0.00  0.00    +0.015 C 
ATOM     14  C   UNL     1       8.024   4.526  24.273  0.00  0.00    +0.085 C 
ENDBRANCH   8   9
ENDBRANCH   4   8
ENDBRANCH   1   2
BRANCH   1  15
ATOM     15  C   UNL     1       9.070  -0.678  26.099  0.00  0.00    +0.230 C 
BRANCH  15  16
ATOM     16  C   UNL     1       7.857  -1.532  26.450  0.00  0.00    +0.060 C 
BRANCH  16  17
ATOM     17  C   UNL     1       7.931  -2.896  25.772  0.00  0.00    +0.107 C 
BRANCH  17  19
ATOM     18  C   UNL     1       7.646  -3.759  23.472  0.00  0.00    +0.251 C 
ATOM     19  N   UNL     1       7.290  -2.877  24.474  0.00  0.00    -0.312 N 
ATOM     20  H   UNL     1       6.639  -2.129  24.275  0.00  0.00    +0.149 HD
ATOM     21  O   UNL     1       8.482  -4.648  23.627  0.00  0.00    -0.272 OA
BRANCH  18  22
ATOM     22  C   UNL     1       6.888  -3.551  22.157  0.00  0.00    +0.327 C 
BRANCH  22  23
ATOM     23  O   UNL     1       5.541  -4.015  22.211  0.00  0.00    -0.455 OA
BRANCH  23  25
ATOM     24  C   UNL     1       6.162  -5.907  20.970  0.00  0.00    +0.136 C 
ATOM     25  C   UNL     1       5.426  -5.371  22.159  0.00  0.00    +0.304 C 
ATOM     26  O   UNL     1       4.820  -6.059  22.969  0.00  0.00    -0.251 OA
ENDBRANCH  23  25
ENDBRANCH  22  23
ENDBRANCH  18  22
ENDBRANCH  17  19
ENDBRANCH  16  17
ENDBRANCH  15  16
ENDBRANCH   1  15
TORSDOF 10
ENDMDL
