MODEL 1
REMARK VINA RESULT:      -5.4      0.000      0.000
REMARK  Name = 
REMARK  2 active torsions:
REMARK  status: ('A' for Active; 'I' for Inactive)
REMARK    1  A    between atoms: O_1  and  C_2
REMARK    2  A    between atoms: C_2  and  C_3
REMARK                            x       y       z     vdW  Elec       q    Type
REMARK                         _______ _______ _______ _____ _____    ______ ____
ROOT
ATOM      1  C   UNL     1       9.402  -1.280  23.809  0.00  0.00    +0.054 A 
ATOM      2  C   UNL     1       9.997  -0.159  24.397  0.00  0.00    +0.170 A 
ATOM      3  F   UNL     1      10.257  -0.160  25.712  0.00  0.00    -0.202 F 
ATOM      4  C   UNL     1      10.311   0.968  23.641  0.00  0.00    +0.197 A 
ATOM      5  F   UNL     1      10.867   2.036  24.231  0.00  0.00    -0.199 F 
ATOM      6  C   UNL     1      10.039   0.987  22.281  0.00  0.00    +0.199 A 
ATOM      7  F   UNL     1      10.331   2.076  21.554  0.00  0.00    -0.199 F 
ATOM      8  C   UNL     1       9.459  -0.118  21.676  0.00  0.00    +0.197 A 
ATOM      9  F   UNL     1       9.189  -0.100  20.364  0.00  0.00    -0.199 F 
ATOM     10  C   UNL     1       9.146  -1.242  22.435  0.00  0.00    +0.170 A 
ATOM     11  F   UNL     1       8.576  -2.299  21.838  0.00  0.00    -0.202 F 
ENDROOT
BRANCH   1  12
ATOM     12  C   UNL     1       9.097  -2.501  24.612  0.00  0.00    +0.197 C 
BRANCH  12  13
ATOM     13  O   UNL     1      10.024  -3.511  24.251  0.00  0.00    -0.390 OA
ATOM     14  H   UNL     1       9.924  -3.658  23.295  0.00  0.00    +0.210 HD
ENDBRANCH  12  13
ENDBRANCH   1  12
TORSDOF 2
ENDMDL
MODEL 2
REMARK VINA RESULT:      -5.4      0.063      2.942
REMARK  Name = 
REMARK  2 active torsions:
REMARK  status: ('A' for Active; 'I' for Inactive)
REMARK    1  A    between atoms: O_1  and  C_2
REMARK    2  A    between atoms: C_2  and  C_3
REMARK                            x       y       z     vdW  Elec       q    Type
REMARK                         _______ _______ _______ _____ _____    ______ ____
ROOT
ATOM      1  C   UNL     1       9.462  -1.246  23.820  0.00  0.00    +0.054 A 
ATOM      2  C   UNL     1       9.160  -1.200  22.456  0.00  0.00    +0.170 A 
ATOM      3  F   UNL     1       8.609  -2.267  21.862  0.00  0.00    -0.202 F 
ATOM      4  C   UNL     1       9.438  -0.065  21.697  0.00  0.00    +0.197 A 
ATOM      5  F   UNL     1       9.153  -0.050  20.387  0.00  0.00    -0.199 F 
ATOM      6  C   UNL     1      10.017   1.044  22.295  0.00  0.00    +0.199 A 
ATOM      7  F   UNL     1      10.295   2.133  21.563  0.00  0.00    -0.199 F 
ATOM      8  C   UNL     1      10.315   1.022  23.649  0.00  0.00    +0.197 A 
ATOM      9  F   UNL     1      10.881   2.090  24.229  0.00  0.00    -0.199 F 
ATOM     10  C   UNL     1      10.037  -0.114  24.405  0.00  0.00    +0.170 A 
ATOM     11  F   UNL     1      10.341  -0.124  25.711  0.00  0.00    -0.202 F 
ENDROOT
BRANCH   1  12
ATOM     12  C   UNL     1       9.134  -2.449  24.642  0.00  0.00    +0.197 C 
BRANCH  12  13
ATOM     13  O   UNL     1       9.993  -3.504  24.243  0.00  0.00    -0.390 OA
ATOM     14  H   UNL     1       9.529  -3.997  23.544  0.00  0.00    +0.210 HD
ENDBRANCH  12  13
ENDBRANCH   1  12
TORSDOF 2
ENDMDL
MODEL 3
REMARK VINA RESULT:      -5.1      2.141      4.622
REMARK  Name = 
REMARK  2 active torsions:
REMARK  status: ('A' for Active; 'I' for Inactive)
REMARK    1  A    between atoms: O_1  and  C_2
REMARK    2  A    between atoms: C_2  and  C_3
REMARK                            x       y       z     vdW  Elec       q    Type
REMARK                         _______ _______ _______ _____ _____    ______ ____
ROOT
ATOM      1  C   UNL     1       9.800   0.637  22.769  0.00  0.00    +0.054 A 
ATOM      2  C   UNL     1       9.393  -0.537  22.129  0.00  0.00    +0.170 A 
ATOM      3  F   UNL     1       9.294  -0.564  20.793  0.00  0.00    -0.202 F 
ATOM      4  C   UNL     1       9.071  -1.679  22.860  0.00  0.00    +0.197 A 
ATOM      5  F   UNL     1       8.668  -2.788  22.224  0.00  0.00    -0.199 F 
ATOM      6  C   UNL     1       9.158  -1.663  24.244  0.00  0.00    +0.199 A 
ATOM      7  F   UNL     1       8.838  -2.758  24.949  0.00  0.00    -0.199 F 
ATOM      8  C   UNL     1       9.570  -0.511  24.897  0.00  0.00    +0.197 A 
ATOM      9  F   UNL     1       9.649  -0.491  26.235  0.00  0.00    -0.199 F 
ATOM     10  C   UNL     1       9.890   0.628  24.164  0.00  0.00    +0.170 A 
ATOM     11  F   UNL     1      10.276   1.737  24.811  0.00  0.00    -0.202 F 
ENDROOT
BRANCH   1  12
ATOM     12  C   UNL     1      10.177   1.851  21.986  0.00  0.00    +0.197 C 
BRANCH  12  13
ATOM     13  O   UNL     1       8.986   2.495  21.567  0.00  0.00    -0.390 OA
ATOM     14  H   UNL     1       8.274   1.834  21.618  0.00  0.00    +0.210 HD
ENDBRANCH  12  13
ENDBRANCH   1  12
TORSDOF 2
ENDMDL
MODEL 4
REMARK VINA RESULT:      -5.1      2.139      3.575
REMARK  Name = 
REMARK  2 active torsions:
REMARK  status: ('A' for Active; 'I' for Inactive)
REMARK    1  A    between atoms: O_1  and  C_2
REMARK    2  A    between atoms: C_2  and  C_3
REMARK                            x       y       z     vdW  Elec       q    Type
REMARK                         _______ _______ _______ _____ _____    ______ ____
ROOT
ATOM      1  C   UNL     1       9.827   0.624  22.755  0.00  0.00    +0.054 A 
ATOM      2  C   UNL     1       9.894   0.604  24.152  0.00  0.00    +0.170 A 
ATOM      3  F   UNL     1      10.325   1.689  24.810  0.00  0.00    -0.202 F 
ATOM      4  C   UNL     1       9.533  -0.533  24.871  0.00  0.00    +0.197 A 
ATOM      5  F   UNL     1       9.620  -0.532  26.210  0.00  0.00    -0.199 F 
ATOM      6  C   UNL     1       9.094  -1.666  24.203  0.00  0.00    +0.199 A 
ATOM      7  F   UNL     1       8.757  -2.764  24.895  0.00  0.00    -0.199 F 
ATOM      8  C   UNL     1       9.012  -1.663  22.819  0.00  0.00    +0.197 A 
ATOM      9  F   UNL     1       8.594  -2.758  22.170  0.00  0.00    -0.199 F 
ATOM     10  C   UNL     1       9.374  -0.526  22.102  0.00  0.00    +0.170 A 
ATOM     11  F   UNL     1       9.298  -0.542  20.764  0.00  0.00    -0.202 F 
ENDROOT
BRANCH   1  12
ATOM     12  C   UNL     1      10.181   1.853  21.984  0.00  0.00    +0.197 C 
BRANCH  12  13
ATOM     13  O   UNL     1       8.978   2.486  21.585  0.00  0.00    -0.390 OA
ATOM     14  H   UNL     1       8.335   2.350  22.302  0.00  0.00    +0.210 HD
ENDBRANCH  12  13
ENDBRANCH   1  12
TORSDOF 2
ENDMDL
MODEL 5
REMARK VINA RESULT:      -5.0      1.332      2.197
REMARK  Name = 
REMARK  2 active torsions:
REMARK  status: ('A' for Active; 'I' for Inactive)
REMARK    1  A    between atoms: O_1  and  C_2
REMARK    2  A    between atoms: C_2  and  C_3
REMARK                            x       y       z     vdW  Elec       q    Type
REMARK                         _______ _______ _______ _____ _____    ______ ____
ROOT
ATOM      1  C   UNL     1       9.079  -1.192  22.750  0.00  0.00    +0.054 A 
ATOM      2  C   UNL     1       9.424  -1.075  24.100  0.00  0.00    +0.170 A 
ATOM      3  F   UNL     1       9.101  -2.056  24.954  0.00  0.00    -0.202 F 
ATOM      4  C   UNL     1      10.085   0.054  24.577  0.00  0.00    +0.197 A 
ATOM      5  F   UNL     1      10.391   0.150  25.879  0.00  0.00    -0.199 F 
ATOM      6  C   UNL     1      10.417   1.082  23.708  0.00  0.00    +0.199 A 
ATOM      7  F   UNL     1      11.044   2.174  24.168  0.00  0.00    -0.199 F 
ATOM      8  C   UNL     1      10.093   0.981  22.363  0.00  0.00    +0.197 A 
ATOM      9  F   UNL     1      10.408   1.975  21.521  0.00  0.00    -0.199 F 
ATOM     10  C   UNL     1       9.432  -0.149  21.889  0.00  0.00    +0.170 A 
ATOM     11  F   UNL     1       9.117  -0.227  20.588  0.00  0.00    -0.202 F 
ENDROOT
BRANCH   1  12
ATOM     12  C   UNL     1       8.401  -2.417  22.231  0.00  0.00    +0.197 C 
BRANCH  12  13
ATOM     13  O   UNL     1       7.008  -2.279  22.456  0.00  0.00    -0.390 OA
ATOM     14  H   UNL     1       6.590  -3.102  22.150  0.00  0.00    +0.210 HD
ENDBRANCH  12  13
ENDBRANCH   1  12
TORSDOF 2
ENDMDL
MODEL 6
REMARK VINA RESULT:      -5.0      3.344      4.872
REMARK  Name = 
REMARK  2 active torsions:
REMARK  status: ('A' for Active; 'I' for Inactive)
REMARK    1  A    between atoms: O_1  and  C_2
REMARK    2  A    between atoms: C_2  and  C_3
REMARK                            x       y       z     vdW  Elec       q    Type
REMARK                         _______ _______ _______ _____ _____    ______ ____
ROOT
ATOM      1  C   UNL     1       8.363  -4.339  24.724  0.00  0.00    +0.054 A 
ATOM      2  C   UNL     1       8.806  -3.397  23.791  0.00  0.00    +0.170 A 
ATOM      3  F   UNL     1      10.032  -2.869  23.912  0.00  0.00    -0.202 F 
ATOM      4  C   UNL     1       7.986  -2.984  22.743  0.00  0.00    +0.197 A 
ATOM      5  F   UNL     1       8.428  -2.068  21.869  0.00  0.00    -0.199 F 
ATOM      6  C   UNL     1       6.711  -3.513  22.611  0.00  0.00    +0.199 A 
ATOM      7  F   UNL     1       5.917  -3.108  21.608  0.00  0.00    -0.199 F 
ATOM      8  C   UNL     1       6.257  -4.457  23.520  0.00  0.00    +0.197 A 
ATOM      9  F   UNL     1       5.023  -4.966  23.399  0.00  0.00    -0.199 F 
ATOM     10  C   UNL     1       7.078  -4.867  24.567  0.00  0.00    +0.170 A 
ATOM     11  F   UNL     1       6.621  -5.771  25.444  0.00  0.00    -0.202 F 
ENDROOT
BRANCH   1  12
ATOM     12  C   UNL     1       9.253  -4.807  25.828  0.00  0.00    +0.197 C 
BRANCH  12  13
ATOM     13  O   UNL     1      10.188  -5.723  25.283  0.00  0.00    -0.390 OA
ATOM     14  H   UNL     1      10.515  -5.334  24.455  0.00  0.00    +0.210 HD
ENDBRANCH  12  13
ENDBRANCH   1  12
TORSDOF 2
ENDMDL
MODEL 7
REMARK VINA RESULT:      -5.0      3.364      5.108
REMARK  Name = 
REMARK  2 active torsions:
REMARK  status: ('A' for Active; 'I' for Inactive)
REMARK    1  A    between atoms: O_1  and  C_2
REMARK    2  A    between atoms: C_2  and  C_3
REMARK                            x       y       z     vdW  Elec       q    Type
REMARK                         _______ _______ _______ _____ _____    ______ ____
ROOT
ATOM      1  C   UNL     1       8.348  -4.367  24.683  0.00  0.00    +0.054 A 
ATOM      2  C   UNL     1       7.047  -4.862  24.552  0.00  0.00    +0.170 A 
ATOM      3  F   UNL     1       6.597  -5.781  25.418  0.00  0.00    -0.202 F 
ATOM      4  C   UNL     1       6.214  -4.429  23.523  0.00  0.00    +0.197 A 
ATOM      5  F   UNL     1       4.976  -4.930  23.410  0.00  0.00    -0.199 F 
ATOM      6  C   UNL     1       6.669  -3.486  22.614  0.00  0.00    +0.199 A 
ATOM      7  F   UNL     1       5.871  -3.076  21.617  0.00  0.00    -0.199 F 
ATOM      8  C   UNL     1       7.953  -2.975  22.732  0.00  0.00    +0.197 A 
ATOM      9  F   UNL     1       8.398  -2.069  21.851  0.00  0.00    -0.199 F 
ATOM     10  C   UNL     1       8.784  -3.412  23.761  0.00  0.00    +0.170 A 
ATOM     11  F   UNL     1      10.026  -2.916  23.856  0.00  0.00    -0.202 F 
ENDROOT
BRANCH   1  12
ATOM     12  C   UNL     1       9.231  -4.807  25.804  0.00  0.00    +0.197 C 
BRANCH  12  13
ATOM     13  O   UNL     1      10.178  -5.726  25.288  0.00  0.00    -0.390 OA
ATOM     14  H   UNL     1       9.684  -6.519  25.017  0.00  0.00    +0.210 HD
ENDBRANCH  12  13
ENDBRANCH   1  12
TORSDOF 2
ENDMDL
MODEL 8
REMARK VINA RESULT:      -4.9      2.612      4.395
REMARK  Name = 
REMARK  2 active torsions:
REMARK  status: ('A' for Active; 'I' for Inactive)
REMARK    1  A    between atoms: O_1  and  C_2
REMARK    2  A    between atoms: C_2  and  C_3
REMARK                            x       y       z     vdW  Elec       q    Type
REMARK                         _______ _______ _______ _____ _____    ______ ____
ROOT
ATOM      1  C   UNL     1       8.952   0.427  22.946  0.00  0.00    +0.054 A 
ATOM      2  C   UNL     1       7.656  -0.037  22.704  0.00  0.00    +0.170 A 
ATOM      3  F   UNL     1       6.688   0.834  22.384  0.00  0.00    -0.202 F 
ATOM      4  C   UNL     1       7.348  -1.392  22.805  0.00  0.00    +0.197 A 
ATOM      5  F   UNL     1       6.094  -1.811  22.583  0.00  0.00    -0.199 F 
ATOM      6  C   UNL     1       8.336  -2.304  23.144  0.00  0.00    +0.199 A 
ATOM      7  F   UNL     1       8.038  -3.607  23.252  0.00  0.00    -0.199 F 
ATOM      8  C   UNL     1       9.630  -1.864  23.379  0.00  0.00    +0.197 A 
ATOM      9  F   UNL     1      10.586  -2.742  23.713  0.00  0.00    -0.199 F 
ATOM     10  C   UNL     1       9.935  -0.510  23.278  0.00  0.00    +0.170 A 
ATOM     11  F   UNL     1      11.188  -0.099  23.518  0.00  0.00    -0.202 F 
ENDROOT
BRANCH   1  12
ATOM     12  C   UNL     1       9.291   1.875  22.805  0.00  0.00    +0.197 C 
BRANCH  12  13
ATOM     13  O   UNL     1       9.811   2.082  21.503  0.00  0.00    -0.390 OA
ATOM     14  H   UNL     1      10.676   2.515  21.610  0.00  0.00    +0.210 HD
ENDBRANCH  12  13
ENDBRANCH   1  12
TORSDOF 2
ENDMDL
MODEL 9
REMARK VINA RESULT:      -4.9      3.052      3.863
REMARK  Name = 
REMARK  2 active torsions:
REMARK  status: ('A' for Active; 'I' for Inactive)
REMARK    1  A    between atoms: O_1  and  C_2
REMARK    2  A    between atoms: C_2  and  C_3
REMARK                            x       y       z     vdW  Elec       q    Type
REMARK                         _______ _______ _______ _____ _____    ______ ____
ROOT
ATOM      1  C   UNL     1       8.438   2.441  22.876  0.00  0.00    +0.054 A 
ATOM      2  C   UNL     1       9.214   2.152  24.002  0.00  0.00    +0.170 A 
ATOM      3  F   UNL     1       9.176   2.972  25.062  0.00  0.00    -0.202 F 
ATOM      4  C   UNL     1      10.042   1.032  24.037  0.00  0.00    +0.197 A 
ATOM      5  F   UNL     1      10.788   0.785  25.123  0.00  0.00    -0.199 F 
ATOM      6  C   UNL     1      10.100   0.180  22.944  0.00  0.00    +0.199 A 
ATOM      7  F   UNL     1      10.904  -0.893  22.972  0.00  0.00    -0.199 F 
ATOM      8  C   UNL     1       9.330   0.443  21.821  0.00  0.00    +0.197 A 
ATOM      9  F   UNL     1       9.388  -0.375  20.761  0.00  0.00    -0.199 F 
ATOM     10  C   UNL     1       8.504   1.564  21.790  0.00  0.00    +0.170 A 
ATOM     11  F   UNL     1       7.774   1.810  20.693  0.00  0.00    -0.202 F 
ENDROOT
BRANCH   1  12
ATOM     12  C   UNL     1       7.525   3.622  22.851  0.00  0.00    +0.197 C 
BRANCH  12  13
ATOM     13  O   UNL     1       8.241   4.723  22.316  0.00  0.00    -0.390 OA
ATOM     14  H   UNL     1       8.684   4.407  21.510  0.00  0.00    +0.210 HD
ENDBRANCH  12  13
ENDBRANCH   1  12
TORSDOF 2
ENDMDL
