MODEL 1
REMARK VINA RESULT:      -5.4      0.000      0.000
REMARK  Name = 
REMARK  21 active torsions:
REMARK  status: ('A' for Active; 'I' for Inactive)
REMARK    1  A    between atoms: C_1  and  C_2
REMARK    2  A    between atoms: C_2  and  C_3
REMARK    3  A    between atoms: C_3  and  C_4
REMARK    4  A    between atoms: C_4  and  C_5
REMARK    5  A    between atoms: C_5  and  C_6
REMARK    6  A    between atoms: C_6  and  C_7
REMARK    7  A    between atoms: C_7  and  C_8
REMARK    8  A    between atoms: C_8  and  S_9
REMARK    9  A    between atoms: S_9  and  C_10
REMARK   10  A    between atoms: C_10  and  C_11
REMARK   11  A    between atoms: C_11  and  N_13
REMARK   12  A    between atoms: C_11  and  C_24
REMARK   13  A    between atoms: C_14  and  C_16
REMARK   14  A    between atoms: C_16  and  C_17
REMARK   15  A    between atoms: C_17  and  C_18
REMARK   16  A    between atoms: C_18  and  N_20
REMARK   17  A    between atoms: C_18  and  C_21
REMARK   18  A    between atoms: C_21  and  O_22
REMARK   19  A    between atoms: N_26  and  CA_27
REMARK   20  A    between atoms: CA_27  and  C_28
REMARK   21  A    between atoms: C_28  and  O_29
REMARK                            x       y       z     vdW  Elec       q    Type
REMARK                         _______ _______ _______ _____ _____    ______ ____
ROOT
ATOM      1  C   UNK A   1       7.111  -4.650  25.766  0.00  0.00    +0.169 C 
ENDROOT
BRANCH   1   2
ATOM      2  N   UNK A   1       5.876  -5.440  25.805  0.00  0.00    -0.303 N 
ATOM      3  H   UNK A   1       5.188  -5.260  25.081  0.00  0.00    +0.149 HD
ATOM      4  C   UNK A   1       5.528  -6.222  26.879  0.00  0.00    +0.214 C 
ATOM      5  O   UNK A   1       6.283  -6.399  27.830  0.00  0.00    -0.276 OA
BRANCH   4   6
ATOM      6  C   UNK A   1       4.216  -6.956  26.692  0.00  0.00    +0.098 C 
BRANCH   6   7
ATOM      7  C   UNK A   1       3.180  -6.125  25.933  0.00  0.00    +0.039 C 
BRANCH   7   8
ATOM      8  C   UNK A   1       2.935  -6.608  24.496  0.00  0.00    +0.161 C 
BRANCH   8   9
ATOM      9  N   UNK A   1       3.944  -7.626  24.084  0.00  0.00    -0.318 NA
ATOM     10  H   UNK A   1       3.730  -7.905  23.120  0.00  0.00    +0.119 HD
ATOM     11  H   UNK A   1       4.851  -7.153  24.002  0.00  0.00    +0.119 HD
ENDBRANCH   8   9
BRANCH   8  12
ATOM     12  C   UNK A   1       2.999  -5.428  23.514  0.00  0.00    +0.322 C 
ATOM     13  O   UNK A   1       3.937  -4.659  23.396  0.00  0.00    -0.249 OA
BRANCH  12  14
ATOM     14  O   UNK A   1       1.883  -5.378  22.737  0.00  0.00    -0.480 OA
ATOM     15  H   UNK A   1       1.948  -6.137  22.105  0.00  0.00    +0.295 HD
ENDBRANCH  12  14
ENDBRANCH   8  12
ENDBRANCH   7   8
ENDBRANCH   6   7
ENDBRANCH   4   6
ENDBRANCH   1   2
BRANCH   1  16
ATOM     16  C   UNK A   1       7.759  -4.799  24.377  0.00  0.00    +0.235 C 
ATOM     17  N   GLY A   2       6.921  -4.482  23.318  0.00  0.00    -0.303 N 
ATOM     18  H   GLY A   2       5.928  -4.359  23.536  0.00  0.00    +0.149 HD
ATOM     19  O   UNK A   1       8.905  -5.194  24.197  0.00  0.00    -0.274 OA
BRANCH  17  20
ATOM     20  CA  GLY A   2       7.291  -4.797  21.938  0.00  0.00    +0.224 C 
BRANCH  20  21
ATOM     21  C   GLY A   2       6.307  -5.746  21.254  0.00  0.00    +0.322 C 
ATOM     22  OXT GLY A   2       5.949  -5.640  20.092  0.00  0.00    -0.249 OA
BRANCH  21  23
ATOM     23  O   GLY A   2       5.894  -6.759  22.056  0.00  0.00    -0.480 OA
ATOM     24  H   GLY A   2       5.353  -7.376  21.523  0.00  0.00    +0.295 HD
ENDBRANCH  21  23
ENDBRANCH  20  21
ENDBRANCH  17  20
ENDBRANCH   1  16
BRANCH   1  25
ATOM     25  C   UNK A   1       6.844  -3.169  26.068  0.00  0.00    +0.100 C 
BRANCH  25  26
ATOM     26  S   UNK A   1       8.378  -2.186  26.315  0.00  0.00    -0.158 S 
BRANCH  26  27
ATOM     27  C   UNK A   1       8.326  -1.073  24.862  0.00  0.00    +0.069 C 
BRANCH  27  28
ATOM     28  C   UNK A   1       9.332  -1.484  23.792  0.00  0.00    +0.011 C 
BRANCH  28  29
ATOM     29  C   UNK A   1       8.733  -1.411  22.388  0.00  0.00    +0.001 C 
BRANCH  29  30
ATOM     30  C   UNK A   1       9.597  -0.522  21.492  0.00  0.00    +0.000 C 
BRANCH  30  31
ATOM     31  C   UNK A   1       9.093   0.917  21.483  0.00  0.00    -0.000 C 
BRANCH  31  32
ATOM     32  C   UNK A   1      10.099   1.860  22.145  0.00  0.00    -0.000 C 
BRANCH  32  34
ATOM     33  C   UNK A   1       7.986   2.352  23.426  0.00  0.00    +0.004 C 
ATOM     34  C   UNK A   1       9.497   2.509  23.389  0.00  0.00    -0.003 C 
ENDBRANCH  32  34
ENDBRANCH  31  32
ENDBRANCH  30  31
ENDBRANCH  29  30
ENDBRANCH  28  29
ENDBRANCH  27  28
ENDBRANCH  26  27
ENDBRANCH  25  26
ENDBRANCH   1  25
TORSDOF 20
ENDMDL
MODEL 2
REMARK VINA RESULT:      -5.2      1.455      1.837
REMARK  Name = 
REMARK  21 active torsions:
REMARK  status: ('A' for Active; 'I' for Inactive)
REMARK    1  A    between atoms: C_1  and  C_2
REMARK    2  A    between atoms: C_2  and  C_3
REMARK    3  A    between atoms: C_3  and  C_4
REMARK    4  A    between atoms: C_4  and  C_5
REMARK    5  A    between atoms: C_5  and  C_6
REMARK    6  A    between atoms: C_6  and  C_7
REMARK    7  A    between atoms: C_7  and  C_8
REMARK    8  A    between atoms: C_8  and  S_9
REMARK    9  A    between atoms: S_9  and  C_10
REMARK   10  A    between atoms: C_10  and  C_11
REMARK   11  A    between atoms: C_11  and  N_13
REMARK   12  A    between atoms: C_11  and  C_24
REMARK   13  A    between atoms: C_14  and  C_16
REMARK   14  A    between atoms: C_16  and  C_17
REMARK   15  A    between atoms: C_17  and  C_18
REMARK   16  A    between atoms: C_18  and  N_20
REMARK   17  A    between atoms: C_18  and  C_21
REMARK   18  A    between atoms: C_21  and  O_22
REMARK   19  A    between atoms: N_26  and  CA_27
REMARK   20  A    between atoms: CA_27  and  C_28
REMARK   21  A    between atoms: C_28  and  O_29
REMARK                            x       y       z     vdW  Elec       q    Type
REMARK                         _______ _______ _______ _____ _____    ______ ____
ROOT
ATOM      1  C   UNK A   1       8.056  -3.791  25.492  0.00  0.00    +0.169 C 
ENDROOT
BRANCH   1   2
ATOM      2  N   UNK A   1       6.856  -4.223  26.218  0.00  0.00    -0.303 N 
ATOM      3  H   UNK A   1       6.005  -3.692  26.064  0.00  0.00    +0.149 HD
ATOM      4  C   UNK A   1       6.896  -5.143  27.236  0.00  0.00    +0.214 C 
ATOM      5  O   UNK A   1       7.922  -5.748  27.532  0.00  0.00    -0.276 OA
BRANCH   4   6
ATOM      6  C   UNK A   1       5.536  -5.444  27.832  0.00  0.00    +0.098 C 
BRANCH   6   7
ATOM      7  C   UNK A   1       4.922  -6.731  27.275  0.00  0.00    +0.039 C 
BRANCH   7   8
ATOM      8  C   UNK A   1       3.817  -6.487  26.237  0.00  0.00    +0.161 C 
BRANCH   8   9
ATOM      9  N   UNK A   1       2.748  -7.521  26.325  0.00  0.00    -0.318 NA
ATOM     10  H   UNK A   1       2.381  -7.510  27.283  0.00  0.00    +0.119 HD
ATOM     11  H   UNK A   1       1.953  -7.200  25.759  0.00  0.00    +0.119 HD
ENDBRANCH   8   9
BRANCH   8  12
ATOM     12  C   UNK A   1       4.403  -6.505  24.816  0.00  0.00    +0.322 C 
ATOM     13  O   UNK A   1       4.557  -7.502  24.130  0.00  0.00    -0.249 OA
BRANCH  12  14
ATOM     14  O   UNK A   1       4.682  -5.245  24.386  0.00  0.00    -0.480 OA
ATOM     15  H   UNK A   1       4.091  -4.638  24.899  0.00  0.00    +0.295 HD
ENDBRANCH  12  14
ENDBRANCH   8  12
ENDBRANCH   7   8
ENDBRANCH   6   7
ENDBRANCH   4   6
ENDBRANCH   1   2
BRANCH   1  16
ATOM     16  C   UNK A   1       8.277  -4.725  24.288  0.00  0.00    +0.235 C 
ATOM     17  N   GLY A   2       7.466  -4.451  23.195  0.00  0.00    -0.303 N 
ATOM     18  H   GLY A   2       6.695  -3.796  23.346  0.00  0.00    +0.149 HD
ATOM     19  O   UNK A   1       9.073  -5.657  24.284  0.00  0.00    -0.274 OA
BRANCH  17  20
ATOM     20  CA  GLY A   2       7.374  -5.380  22.069  0.00  0.00    +0.224 C 
BRANCH  20  21
ATOM     21  C   GLY A   2       6.058  -5.265  21.302  0.00  0.00    +0.322 C 
ATOM     22  OXT GLY A   2       5.740  -4.297  20.629  0.00  0.00    -0.249 OA
BRANCH  21  23
ATOM     23  O   GLY A   2       5.279  -6.372  21.402  0.00  0.00    -0.480 OA
ATOM     24  H   GLY A   2       4.794  -6.488  20.560  0.00  0.00    +0.295 HD
ENDBRANCH  21  23
ENDBRANCH  20  21
ENDBRANCH  17  20
ENDBRANCH   1  16
BRANCH   1  25
ATOM     25  C   UNK A   1       7.936  -2.336  25.017  0.00  0.00    +0.100 C 
BRANCH  25  26
ATOM     26  S   UNK A   1       8.124  -1.108  26.372  0.00  0.00    -0.158 S 
BRANCH  26  27
ATOM     27  C   UNK A   1       8.804   0.326  25.460  0.00  0.00    +0.069 C 
BRANCH  27  28
ATOM     28  C   UNK A   1      10.279   0.140  25.122  0.00  0.00    +0.011 C 
BRANCH  28  29
ATOM     29  C   UNK A   1      10.615   0.661  23.726  0.00  0.00    +0.001 C 
BRANCH  29  30
ATOM     30  C   UNK A   1      10.164  -0.344  22.666  0.00  0.00    +0.000 C 
BRANCH  30  31
ATOM     31  C   UNK A   1       9.461   0.349  21.503  0.00  0.00    -0.000 C 
BRANCH  31  32
ATOM     32  C   UNK A   1       9.104   1.793  21.854  0.00  0.00    -0.000 C 
BRANCH  32  34
ATOM     33  C   UNK A   1       6.774   1.883  22.809  0.00  0.00    +0.004 C 
ATOM     34  C   UNK A   1       7.630   2.074  21.568  0.00  0.00    -0.003 C 
ENDBRANCH  32  34
ENDBRANCH  31  32
ENDBRANCH  30  31
ENDBRANCH  29  30
ENDBRANCH  28  29
ENDBRANCH  27  28
ENDBRANCH  26  27
ENDBRANCH  25  26
ENDBRANCH   1  25
TORSDOF 20
ENDMDL
MODEL 3
REMARK VINA RESULT:      -5.2      2.066      3.089
REMARK  Name = 
REMARK  21 active torsions:
REMARK  status: ('A' for Active; 'I' for Inactive)
REMARK    1  A    between atoms: C_1  and  C_2
REMARK    2  A    between atoms: C_2  and  C_3
REMARK    3  A    between atoms: C_3  and  C_4
REMARK    4  A    between atoms: C_4  and  C_5
REMARK    5  A    between atoms: C_5  and  C_6
REMARK    6  A    between atoms: C_6  and  C_7
REMARK    7  A    between atoms: C_7  and  C_8
REMARK    8  A    between atoms: C_8  and  S_9
REMARK    9  A    between atoms: S_9  and  C_10
REMARK   10  A    between atoms: C_10  and  C_11
REMARK   11  A    between atoms: C_11  and  N_13
REMARK   12  A    between atoms: C_11  and  C_24
REMARK   13  A    between atoms: C_14  and  C_16
REMARK   14  A    between atoms: C_16  and  C_17
REMARK   15  A    between atoms: C_17  and  C_18
REMARK   16  A    between atoms: C_18  and  N_20
REMARK   17  A    between atoms: C_18  and  C_21
REMARK   18  A    between atoms: C_21  and  O_22
REMARK   19  A    between atoms: N_26  and  CA_27
REMARK   20  A    between atoms: CA_27  and  C_28
REMARK   21  A    between atoms: C_28  and  O_29
REMARK                            x       y       z     vdW  Elec       q    Type
REMARK                         _______ _______ _______ _____ _____    ______ ____
ROOT
ATOM      1  C   UNK A   1       8.229  -3.315  26.200  0.00  0.00    +0.169 C 
ENDROOT
BRANCH   1   2
ATOM      2  N   UNK A   1       7.069  -4.177  25.946  0.00  0.00    -0.303 N 
ATOM      3  H   UNK A   1       6.353  -3.818  25.322  0.00  0.00    +0.149 HD
ATOM      4  C   UNK A   1       6.814  -5.313  26.674  0.00  0.00    +0.214 C 
ATOM      5  O   UNK A   1       7.601  -5.742  27.512  0.00  0.00    -0.276 OA
BRANCH   4   6
ATOM      6  C   UNK A   1       5.569  -6.050  26.228  0.00  0.00    +0.098 C 
BRANCH   6   7
ATOM      7  C   UNK A   1       4.760  -5.266  25.192  0.00  0.00    +0.039 C 
BRANCH   7   8
ATOM      8  C   UNK A   1       4.594  -6.002  23.854  0.00  0.00    +0.161 C 
BRANCH   8   9
ATOM      9  N   UNK A   1       4.382  -7.463  24.059  0.00  0.00    -0.318 NA
ATOM     10  H   UNK A   1       4.067  -7.601  25.025  0.00  0.00    +0.119 HD
ATOM     11  H   UNK A   1       3.569  -7.744  23.497  0.00  0.00    +0.119 HD
ENDBRANCH   8   9
BRANCH   8  12
ATOM     12  C   UNK A   1       5.839  -5.804  22.975  0.00  0.00    +0.322 C 
ATOM     13  O   UNK A   1       6.610  -4.862  23.046  0.00  0.00    -0.249 OA
BRANCH  12  14
ATOM     14  O   UNK A   1       6.013  -6.857  22.130  0.00  0.00    -0.480 OA
ATOM     15  H   UNK A   1       6.875  -7.275  22.379  0.00  0.00    +0.295 HD
ENDBRANCH  12  14
ENDBRANCH   8  12
ENDBRANCH   7   8
ENDBRANCH   6   7
ENDBRANCH   4   6
ENDBRANCH   1   2
BRANCH   1  16
ATOM     16  C   UNK A   1       9.187  -3.396  24.997  0.00  0.00    +0.235 C 
ATOM     17  N   GLY A   2       9.557  -2.164  24.476  0.00  0.00    -0.303 N 
ATOM     18  H   GLY A   2       9.035  -1.348  24.808  0.00  0.00    +0.149 HD
ATOM     19  O   UNK A   1       9.577  -4.449  24.504  0.00  0.00    -0.274 OA
BRANCH  17  20
ATOM     20  CA  GLY A   2      10.259  -2.062  23.197  0.00  0.00    +0.224 C 
BRANCH  20  21
ATOM     21  C   GLY A   2       9.337  -1.703  22.033  0.00  0.00    +0.322 C 
ATOM     22  OXT GLY A   2       8.257  -2.233  21.826  0.00  0.00    -0.249 OA
BRANCH  21  23
ATOM     23  O   GLY A   2       9.815  -0.695  21.261  0.00  0.00    -0.480 OA
ATOM     24  H   GLY A   2      10.334  -0.089  21.827  0.00  0.00    +0.295 HD
ENDBRANCH  21  23
ENDBRANCH  20  21
ENDBRANCH  17  20
ENDBRANCH   1  16
BRANCH   1  25
ATOM     25  C   UNK A   1       7.809  -1.859  26.443  0.00  0.00    +0.100 C 
BRANCH  25  26
ATOM     26  S   UNK A   1       6.042  -1.533  26.052  0.00  0.00    -0.158 S 
BRANCH  26  27
ATOM     27  C   UNK A   1       6.158  -0.994  24.307  0.00  0.00    +0.069 C 
BRANCH  27  28
ATOM     28  C   UNK A   1       6.903   0.329  24.167  0.00  0.00    +0.011 C 
BRANCH  28  29
ATOM     29  C   UNK A   1       6.815   0.886  22.747  0.00  0.00    +0.001 C 
BRANCH  29  30
ATOM     30  C   UNK A   1       7.520   2.241  22.667  0.00  0.00    +0.000 C 
BRANCH  30  31
ATOM     31  C   UNK A   1       7.793   2.810  24.056  0.00  0.00    -0.000 C 
BRANCH  31  32
ATOM     32  C   UNK A   1       9.237   3.297  24.180  0.00  0.00    -0.000 C 
BRANCH  32  34
ATOM     33  C   UNK A   1      10.786   1.312  24.255  0.00  0.00    +0.004 C 
ATOM     34  C   UNK A   1      10.183   2.401  23.384  0.00  0.00    -0.003 C 
ENDBRANCH  32  34
ENDBRANCH  31  32
ENDBRANCH  30  31
ENDBRANCH  29  30
ENDBRANCH  28  29
ENDBRANCH  27  28
ENDBRANCH  26  27
ENDBRANCH  25  26
ENDBRANCH   1  25
TORSDOF 20
ENDMDL
MODEL 4
REMARK VINA RESULT:      -5.1      2.139      3.936
REMARK  Name = 
REMARK  21 active torsions:
REMARK  status: ('A' for Active; 'I' for Inactive)
REMARK    1  A    between atoms: C_1  and  C_2
REMARK    2  A    between atoms: C_2  and  C_3
REMARK    3  A    between atoms: C_3  and  C_4
REMARK    4  A    between atoms: C_4  and  C_5
REMARK    5  A    between atoms: C_5  and  C_6
REMARK    6  A    between atoms: C_6  and  C_7
REMARK    7  A    between atoms: C_7  and  C_8
REMARK    8  A    between atoms: C_8  and  S_9
REMARK    9  A    between atoms: S_9  and  C_10
REMARK   10  A    between atoms: C_10  and  C_11
REMARK   11  A    between atoms: C_11  and  N_13
REMARK   12  A    between atoms: C_11  and  C_24
REMARK   13  A    between atoms: C_14  and  C_16
REMARK   14  A    between atoms: C_16  and  C_17
REMARK   15  A    between atoms: C_17  and  C_18
REMARK   16  A    between atoms: C_18  and  N_20
REMARK   17  A    between atoms: C_18  and  C_21
REMARK   18  A    between atoms: C_21  and  O_22
REMARK   19  A    between atoms: N_26  and  CA_27
REMARK   20  A    between atoms: CA_27  and  C_28
REMARK   21  A    between atoms: C_28  and  O_29
REMARK                            x       y       z     vdW  Elec       q    Type
REMARK                         _______ _______ _______ _____ _____    ______ ____
ROOT
ATOM      1  C   UNK A   1       7.756  -3.075  22.925  0.00  0.00    +0.169 C 
ENDROOT
BRANCH   1   2
ATOM      2  N   UNK A   1       7.837  -3.375  24.358  0.00  0.00    -0.303 N 
ATOM      3  H   UNK A   1       7.016  -3.175  24.920  0.00  0.00    +0.149 HD
ATOM      4  C   UNK A   1       9.016  -3.691  24.986  0.00  0.00    +0.214 C 
ATOM      5  O   UNK A   1      10.063  -3.852  24.366  0.00  0.00    -0.276 OA
BRANCH   4   6
ATOM      6  C   UNK A   1       8.857  -3.973  26.465  0.00  0.00    +0.098 C 
BRANCH   6   7
ATOM      7  C   UNK A   1       8.270  -5.360  26.740  0.00  0.00    +0.039 C 
BRANCH   7   8
ATOM      8  C   UNK A   1       6.882  -5.322  27.394  0.00  0.00    +0.161 C 
BRANCH   8   9
ATOM      9  N   UNK A   1       6.797  -6.262  28.549  0.00  0.00    -0.318 NA
ATOM     10  H   UNK A   1       7.596  -6.073  29.164  0.00  0.00    +0.119 HD
ATOM     11  H   UNK A   1       5.985  -5.990  29.116  0.00  0.00    +0.119 HD
ENDBRANCH   8   9
BRANCH   8  12
ATOM     12  C   UNK A   1       5.797  -5.700  26.373  0.00  0.00    +0.322 C 
ATOM     13  O   UNK A   1       5.311  -6.810  26.239  0.00  0.00    -0.249 OA
BRANCH  12  14
ATOM     14  O   UNK A   1       5.395  -4.611  25.663  0.00  0.00    -0.480 OA
ATOM     15  H   UNK A   1       4.766  -4.114  26.244  0.00  0.00    +0.295 HD
ENDBRANCH  12  14
ENDBRANCH   8  12
ENDBRANCH   7   8
ENDBRANCH   6   7
ENDBRANCH   4   6
ENDBRANCH   1   2
BRANCH   1  16
ATOM     16  C   UNK A   1       6.522  -3.781  22.333  0.00  0.00    +0.235 C 
ATOM     17  N   GLY A   2       6.355  -5.092  22.756  0.00  0.00    -0.303 N 
ATOM     18  H   GLY A   2       7.138  -5.517  23.260  0.00  0.00    +0.149 HD
ATOM     19  O   UNK A   1       5.757  -3.260  21.530  0.00  0.00    -0.274 OA
BRANCH  17  20
ATOM     20  CA  GLY A   2       5.385  -5.979  22.113  0.00  0.00    +0.224 C 
BRANCH  20  21
ATOM     21  C   GLY A   2       4.098  -6.145  22.918  0.00  0.00    +0.322 C 
ATOM     22  OXT GLY A   2       3.175  -5.346  22.907  0.00  0.00    -0.249 OA
BRANCH  21  23
ATOM     23  O   GLY A   2       4.053  -7.302  23.626  0.00  0.00    -0.480 OA
ATOM     24  H   GLY A   2       4.658  -7.946  23.206  0.00  0.00    +0.295 HD
ENDBRANCH  21  23
ENDBRANCH  20  21
ENDBRANCH  17  20
ENDBRANCH   1  16
BRANCH   1  25
ATOM     25  C   UNK A   1       7.674  -1.564  22.667  0.00  0.00    +0.100 C 
BRANCH  25  26
ATOM     26  S   UNK A   1       9.174  -0.880  21.854  0.00  0.00    -0.158 S 
BRANCH  26  27
ATOM     27  C   UNK A   1      10.238  -0.534  23.302  0.00  0.00    +0.069 C 
BRANCH  27  28
ATOM     28  C   UNK A   1       9.447   0.059  24.463  0.00  0.00    +0.011 C 
BRANCH  28  29
ATOM     29  C   UNK A   1       9.394   1.585  24.396  0.00  0.00    +0.001 C 
BRANCH  29  30
ATOM     30  C   UNK A   1       8.043   2.088  24.904  0.00  0.00    +0.000 C 
BRANCH  30  31
ATOM     31  C   UNK A   1       6.911   1.698  23.959  0.00  0.00    -0.000 C 
BRANCH  31  32
ATOM     32  C   UNK A   1       6.132   2.927  23.491  0.00  0.00    -0.000 C 
BRANCH  32  34
ATOM     33  C   UNK A   1       7.265   4.844  22.313  0.00  0.00    +0.004 C 
ATOM     34  C   UNK A   1       6.684   3.448  22.166  0.00  0.00    -0.003 C 
ENDBRANCH  32  34
ENDBRANCH  31  32
ENDBRANCH  30  31
ENDBRANCH  29  30
ENDBRANCH  28  29
ENDBRANCH  27  28
ENDBRANCH  26  27
ENDBRANCH  25  26
ENDBRANCH   1  25
TORSDOF 20
ENDMDL
MODEL 5
REMARK VINA RESULT:      -5.0      1.953      3.818
REMARK  Name = 
REMARK  21 active torsions:
REMARK  status: ('A' for Active; 'I' for Inactive)
REMARK    1  A    between atoms: C_1  and  C_2
REMARK    2  A    between atoms: C_2  and  C_3
REMARK    3  A    between atoms: C_3  and  C_4
REMARK    4  A    between atoms: C_4  and  C_5
REMARK    5  A    between atoms: C_5  and  C_6
REMARK    6  A    between atoms: C_6  and  C_7
REMARK    7  A    between atoms: C_7  and  C_8
REMARK    8  A    between atoms: C_8  and  S_9
REMARK    9  A    between atoms: S_9  and  C_10
REMARK   10  A    between atoms: C_10  and  C_11
REMARK   11  A    between atoms: C_11  and  N_13
REMARK   12  A    between atoms: C_11  and  C_24
REMARK   13  A    between atoms: C_14  and  C_16
REMARK   14  A    between atoms: C_16  and  C_17
REMARK   15  A    between atoms: C_17  and  C_18
REMARK   16  A    between atoms: C_18  and  N_20
REMARK   17  A    between atoms: C_18  and  C_21
REMARK   18  A    between atoms: C_21  and  O_22
REMARK   19  A    between atoms: N_26  and  CA_27
REMARK   20  A    between atoms: CA_27  and  C_28
REMARK   21  A    between atoms: C_28  and  O_29
REMARK                            x       y       z     vdW  Elec       q    Type
REMARK                         _______ _______ _______ _____ _____    ______ ____
ROOT
ATOM      1  C   UNK A   1       7.207  -4.255  23.047  0.00  0.00    +0.169 C 
ENDROOT
BRANCH   1   2
ATOM      2  N   UNK A   1       7.328  -4.338  24.507  0.00  0.00    -0.303 N 
ATOM      3  H   UNK A   1       6.676  -3.788  25.057  0.00  0.00    +0.149 HD
ATOM      4  C   UNK A   1       8.397  -4.930  25.131  0.00  0.00    +0.214 C 
ATOM      5  O   UNK A   1       9.269  -5.529  24.508  0.00  0.00    -0.276 OA
BRANCH   4   6
ATOM      6  C   UNK A   1       8.302  -4.909  26.643  0.00  0.00    +0.098 C 
BRANCH   6   7
ATOM      7  C   UNK A   1       6.912  -4.508  27.140  0.00  0.00    +0.039 C 
BRANCH   7   8
ATOM      8  C   UNK A   1       6.202  -5.609  27.941  0.00  0.00    +0.161 C 
BRANCH   8   9
ATOM      9  N   UNK A   1       7.179  -6.554  28.552  0.00  0.00    -0.318 NA
ATOM     10  H   UNK A   1       7.851  -6.000  29.095  0.00  0.00    +0.119 HD
ATOM     11  H   UNK A   1       6.683  -7.100  29.267  0.00  0.00    +0.119 HD
ENDBRANCH   8   9
BRANCH   8  12
ATOM     12  C   UNK A   1       5.251  -6.405  27.033  0.00  0.00    +0.322 C 
ATOM     13  O   UNK A   1       5.353  -6.507  25.822  0.00  0.00    -0.249 OA
BRANCH  12  14
ATOM     14  O   UNK A   1       4.296  -7.041  27.765  0.00  0.00    -0.480 OA
ATOM     15  H   UNK A   1       3.686  -7.470  27.114  0.00  0.00    +0.295 HD
ENDBRANCH  12  14
ENDBRANCH   8  12
ENDBRANCH   7   8
ENDBRANCH   6   7
ENDBRANCH   4   6
ENDBRANCH   1   2
BRANCH   1  16
ATOM     16  C   UNK A   1       5.715  -4.217  22.668  0.00  0.00    +0.235 C 
ATOM     17  N   GLY A   2       4.854  -4.580  23.694  0.00  0.00    -0.303 N 
ATOM     18  H   GLY A   2       5.279  -5.002  24.524  0.00  0.00    +0.149 HD
ATOM     19  O   UNK A   1       5.302  -3.926  21.552  0.00  0.00    -0.274 OA
BRANCH  17  20
ATOM     20  CA  GLY A   2       3.436  -4.832  23.441  0.00  0.00    +0.224 C 
BRANCH  20  21
ATOM     21  C   GLY A   2       3.130  -6.298  23.141  0.00  0.00    +0.322 C 
ATOM     22  OXT GLY A   2       2.099  -6.690  22.617  0.00  0.00    -0.249 OA
BRANCH  21  23
ATOM     23  O   GLY A   2       4.142  -7.137  23.477  0.00  0.00    -0.480 OA
ATOM     24  H   GLY A   2       3.986  -8.001  23.045  0.00  0.00    +0.295 HD
ENDBRANCH  21  23
ENDBRANCH  20  21
ENDBRANCH  17  20
ENDBRANCH   1  16
BRANCH   1  25
ATOM     25  C   UNK A   1       7.925  -3.019  22.490  0.00  0.00    +0.100 C 
BRANCH  25  26
ATOM     26  S   UNK A   1       7.576  -1.482  23.437  0.00  0.00    -0.158 S 
BRANCH  26  27
ATOM     27  C   UNK A   1       9.254  -1.033  24.017  0.00  0.00    +0.069 C 
BRANCH  27  28
ATOM     28  C   UNK A   1       9.888   0.046  23.146  0.00  0.00    +0.011 C 
BRANCH  28  29
ATOM     29  C   UNK A   1      10.426   1.208  23.979  0.00  0.00    +0.001 C 
BRANCH  29  30
ATOM     30  C   UNK A   1       9.365   2.301  24.105  0.00  0.00    +0.000 C 
BRANCH  30  31
ATOM     31  C   UNK A   1       9.934   3.674  23.759  0.00  0.00    -0.000 C 
BRANCH  31  32
ATOM     32  C   UNK A   1      11.426   3.589  23.437  0.00  0.00    -0.000 C 
BRANCH  32  34
ATOM     33  C   UNK A   1      11.272   6.020  24.078  0.00  0.00    +0.004 C 
ATOM     34  C   UNK A   1      12.024   4.983  23.261  0.00  0.00    -0.003 C 
ENDBRANCH  32  34
ENDBRANCH  31  32
ENDBRANCH  30  31
ENDBRANCH  29  30
ENDBRANCH  28  29
ENDBRANCH  27  28
ENDBRANCH  26  27
ENDBRANCH  25  26
ENDBRANCH   1  25
TORSDOF 20
ENDMDL
MODEL 6
REMARK VINA RESULT:      -5.0      2.293      4.630
REMARK  Name = 
REMARK  21 active torsions:
REMARK  status: ('A' for Active; 'I' for Inactive)
REMARK    1  A    between atoms: C_1  and  C_2
REMARK    2  A    between atoms: C_2  and  C_3
REMARK    3  A    between atoms: C_3  and  C_4
REMARK    4  A    between atoms: C_4  and  C_5
REMARK    5  A    between atoms: C_5  and  C_6
REMARK    6  A    between atoms: C_6  and  C_7
REMARK    7  A    between atoms: C_7  and  C_8
REMARK    8  A    between atoms: C_8  and  S_9
REMARK    9  A    between atoms: S_9  and  C_10
REMARK   10  A    between atoms: C_10  and  C_11
REMARK   11  A    between atoms: C_11  and  N_13
REMARK   12  A    between atoms: C_11  and  C_24
REMARK   13  A    between atoms: C_14  and  C_16
REMARK   14  A    between atoms: C_16  and  C_17
REMARK   15  A    between atoms: C_17  and  C_18
REMARK   16  A    between atoms: C_18  and  N_20
REMARK   17  A    between atoms: C_18  and  C_21
REMARK   18  A    between atoms: C_21  and  O_22
REMARK   19  A    between atoms: N_26  and  CA_27
REMARK   20  A    between atoms: CA_27  and  C_28
REMARK   21  A    between atoms: C_28  and  O_29
REMARK                            x       y       z     vdW  Elec       q    Type
REMARK                         _______ _______ _______ _____ _____    ______ ____
ROOT
ATOM      1  C   UNK A   1       5.633  -1.940  24.318  0.00  0.00    +0.169 C 
ENDROOT
BRANCH   1   2
ATOM      2  N   UNK A   1       6.959  -2.499  24.606  0.00  0.00    -0.303 N 
ATOM      3  H   UNK A   1       7.253  -2.517  25.578  0.00  0.00    +0.149 HD
ATOM      4  C   UNK A   1       7.876  -2.779  23.624  0.00  0.00    +0.214 C 
ATOM      5  O   UNK A   1       7.606  -2.683  22.431  0.00  0.00    -0.276 OA
BRANCH   4   6
ATOM      6  C   UNK A   1       9.170  -3.360  24.155  0.00  0.00    +0.098 C 
BRANCH   6   7
ATOM      7  C   UNK A   1       9.202  -3.430  25.683  0.00  0.00    +0.039 C 
BRANCH   7   8
ATOM      8  C   UNK A   1       9.265  -4.862  26.233  0.00  0.00    +0.161 C 
BRANCH   8   9
ATOM      9  N   UNK A   1       9.925  -5.788  25.270  0.00  0.00    -0.318 NA
ATOM     10  H   UNK A   1      10.397  -6.519  25.813  0.00  0.00    +0.119 HD
ATOM     11  H   UNK A   1       9.188  -6.298  24.768  0.00  0.00    +0.119 HD
ENDBRANCH   8   9
BRANCH   8  12
ATOM     12  C   UNK A   1       7.850  -5.387  26.528  0.00  0.00    +0.322 C 
ATOM     13  O   UNK A   1       6.890  -5.278  25.785  0.00  0.00    -0.249 OA
BRANCH  12  14
ATOM     14  O   UNK A   1       7.813  -6.049  27.715  0.00  0.00    -0.480 OA
ATOM     15  H   UNK A   1       7.141  -6.769  27.612  0.00  0.00    +0.295 HD
ENDBRANCH  12  14
ENDBRANCH   8  12
ENDBRANCH   7   8
ENDBRANCH   6   7
ENDBRANCH   4   6
ENDBRANCH   1   2
BRANCH   1  16
ATOM     16  C   UNK A   1       4.585  -3.064  24.404  0.00  0.00    +0.235 C 
ATOM     17  N   GLY A   2       4.933  -4.225  23.728  0.00  0.00    -0.303 N 
ATOM     18  H   GLY A   2       5.742  -4.170  23.103  0.00  0.00    +0.149 HD
ATOM     19  O   UNK A   1       3.512  -2.954  24.987  0.00  0.00    -0.274 OA
BRANCH  17  20
ATOM     20  CA  GLY A   2       3.959  -5.294  23.505  0.00  0.00    +0.224 C 
BRANCH  20  21
ATOM     21  C   GLY A   2       3.993  -6.373  24.585  0.00  0.00    +0.322 C 
ATOM     22  OXT GLY A   2       4.026  -7.571  24.355  0.00  0.00    -0.249 OA
BRANCH  21  23
ATOM     23  O   GLY A   2       4.029  -5.870  25.845  0.00  0.00    -0.480 OA
ATOM     24  H   GLY A   2       4.325  -6.577  26.453  0.00  0.00    +0.295 HD
ENDBRANCH  21  23
ENDBRANCH  20  21
ENDBRANCH  17  20
ENDBRANCH   1  16
BRANCH   1  25
ATOM     25  C   UNK A   1       5.274  -0.807  25.290  0.00  0.00    +0.100 C 
BRANCH  25  26
ATOM     26  S   UNK A   1       5.911  -1.076  26.993  0.00  0.00    -0.158 S 
BRANCH  26  27
ATOM     27  C   UNK A   1       7.283   0.134  27.055  0.00  0.00    +0.069 C 
BRANCH  27  28
ATOM     28  C   UNK A   1       7.100   1.256  26.039  0.00  0.00    +0.011 C 
BRANCH  28  29
ATOM     29  C   UNK A   1       8.376   1.514  25.239  0.00  0.00    +0.001 C 
BRANCH  29  30
ATOM     30  C   UNK A   1       9.259   0.266  25.238  0.00  0.00    +0.000 C 
BRANCH  30  31
ATOM     31  C   UNK A   1      10.238   0.277  24.068  0.00  0.00    -0.000 C 
BRANCH  31  32
ATOM     32  C   UNK A   1      10.356   1.674  23.457  0.00  0.00    -0.000 C 
BRANCH  32  34
ATOM     33  C   UNK A   1       9.415   0.309  21.560  0.00  0.00    +0.004 C 
ATOM     34  C   UNK A   1      10.001   1.649  21.972  0.00  0.00    -0.003 C 
ENDBRANCH  32  34
ENDBRANCH  31  32
ENDBRANCH  30  31
ENDBRANCH  29  30
ENDBRANCH  28  29
ENDBRANCH  27  28
ENDBRANCH  26  27
ENDBRANCH  25  26
ENDBRANCH   1  25
TORSDOF 20
ENDMDL
MODEL 7
REMARK VINA RESULT:      -4.9      2.103      4.222
REMARK  Name = 
REMARK  21 active torsions:
REMARK  status: ('A' for Active; 'I' for Inactive)
REMARK    1  A    between atoms: C_1  and  C_2
REMARK    2  A    between atoms: C_2  and  C_3
REMARK    3  A    between atoms: C_3  and  C_4
REMARK    4  A    between atoms: C_4  and  C_5
REMARK    5  A    between atoms: C_5  and  C_6
REMARK    6  A    between atoms: C_6  and  C_7
REMARK    7  A    between atoms: C_7  and  C_8
REMARK    8  A    between atoms: C_8  and  S_9
REMARK    9  A    between atoms: S_9  and  C_10
REMARK   10  A    between atoms: C_10  and  C_11
REMARK   11  A    between atoms: C_11  and  N_13
REMARK   12  A    between atoms: C_11  and  C_24
REMARK   13  A    between atoms: C_14  and  C_16
REMARK   14  A    between atoms: C_16  and  C_17
REMARK   15  A    between atoms: C_17  and  C_18
REMARK   16  A    between atoms: C_18  and  N_20
REMARK   17  A    between atoms: C_18  and  C_21
REMARK   18  A    between atoms: C_21  and  O_22
REMARK   19  A    between atoms: N_26  and  CA_27
REMARK   20  A    between atoms: CA_27  and  C_28
REMARK   21  A    between atoms: C_28  and  O_29
REMARK                            x       y       z     vdW  Elec       q    Type
REMARK                         _______ _______ _______ _____ _____    ______ ____
ROOT
ATOM      1  C   UNK A   1       7.874  -3.280  22.784  0.00  0.00    +0.169 C 
ENDROOT
BRANCH   1   2
ATOM      2  N   UNK A   1       7.884  -3.441  24.242  0.00  0.00    -0.303 N 
ATOM      3  H   UNK A   1       7.039  -3.183  24.742  0.00  0.00    +0.149 HD
ATOM      4  C   UNK A   1       9.030  -3.699  24.953  0.00  0.00    +0.214 C 
ATOM      5  O   UNK A   1      10.104  -3.923  24.404  0.00  0.00    -0.276 OA
BRANCH   4   6
ATOM      6  C   UNK A   1       8.798  -3.836  26.444  0.00  0.00    +0.098 C 
BRANCH   6   7
ATOM      7  C   UNK A   1       8.303  -5.230  26.837  0.00  0.00    +0.039 C 
BRANCH   7   8
ATOM      8  C   UNK A   1       6.886  -5.238  27.426  0.00  0.00    +0.161 C 
BRANCH   8   9
ATOM      9  N   UNK A   1       6.772  -6.198  28.561  0.00  0.00    -0.318 NA
ATOM     10  H   UNK A   1       7.536  -6.000  29.216  0.00  0.00    +0.119 HD
ATOM     11  H   UNK A   1       5.928  -5.956  29.094  0.00  0.00    +0.119 HD
ENDBRANCH   8   9
BRANCH   8  12
ATOM     12  C   UNK A   1       5.858  -5.624  26.350  0.00  0.00    +0.322 C 
ATOM     13  O   UNK A   1       5.405  -6.743  26.178  0.00  0.00    -0.249 OA
BRANCH  12  14
ATOM     14  O   UNK A   1       5.466  -4.534  25.637  0.00  0.00    -0.480 OA
ATOM     15  H   UNK A   1       4.799  -4.061  26.194  0.00  0.00    +0.295 HD
ENDBRANCH  12  14
ENDBRANCH   8  12
ENDBRANCH   7   8
ENDBRANCH   6   7
ENDBRANCH   4   6
ENDBRANCH   1   2
BRANCH   1  16
ATOM     16  C   UNK A   1       6.596  -3.924  22.217  0.00  0.00    +0.235 C 
ATOM     17  N   GLY A   2       6.326  -5.193  22.712  0.00  0.00    -0.303 N 
ATOM     18  H   GLY A   2       7.069  -5.645  23.249  0.00  0.00    +0.149 HD
ATOM     19  O   UNK A   1       5.880  -3.394  21.376  0.00  0.00    -0.274 OA
BRANCH  17  20
ATOM     20  CA  GLY A   2       5.297  -6.039  22.107  0.00  0.00    +0.224 C 
BRANCH  20  21
ATOM     21  C   GLY A   2       4.044  -6.170  22.971  0.00  0.00    +0.322 C 
ATOM     22  OXT GLY A   2       3.140  -5.351  22.995  0.00  0.00    -0.249 OA
BRANCH  21  23
ATOM     23  O   GLY A   2       4.005  -7.321  23.688  0.00  0.00    -0.480 OA
ATOM     24  H   GLY A   2       4.576  -7.982  23.246  0.00  0.00    +0.295 HD
ENDBRANCH  21  23
ENDBRANCH  20  21
ENDBRANCH  17  20
ENDBRANCH   1  16
BRANCH   1  25
ATOM     25  C   UNK A   1       7.946  -1.802  22.378  0.00  0.00    +0.100 C 
BRANCH  25  26
ATOM     26  S   UNK A   1       9.642  -1.249  21.932  0.00  0.00    -0.158 S 
BRANCH  26  27
ATOM     27  C   UNK A   1       9.313   0.441  21.310  0.00  0.00    +0.069 C 
BRANCH  27  28
ATOM     28  C   UNK A   1       9.820   1.511  22.271  0.00  0.00    +0.011 C 
BRANCH  28  29
ATOM     29  C   UNK A   1       8.818   1.795  23.389  0.00  0.00    +0.001 C 
BRANCH  29  30
ATOM     30  C   UNK A   1       9.348   1.260  24.720  0.00  0.00    +0.000 C 
BRANCH  30  31
ATOM     31  C   UNK A   1       8.345   0.320  25.382  0.00  0.00    -0.000 C 
BRANCH  31  32
ATOM     32  C   UNK A   1       7.411   1.082  26.323  0.00  0.00    -0.000 C 
BRANCH  32  34
ATOM     33  C   UNK A   1       5.764  -0.286  27.650  0.00  0.00    +0.004 C 
ATOM     34  C   UNK A   1       7.169   0.290  27.606  0.00  0.00    -0.003 C 
ENDBRANCH  32  34
ENDBRANCH  31  32
ENDBRANCH  30  31
ENDBRANCH  29  30
ENDBRANCH  28  29
ENDBRANCH  27  28
ENDBRANCH  26  27
ENDBRANCH  25  26
ENDBRANCH   1  25
TORSDOF 20
ENDMDL
MODEL 8
REMARK VINA RESULT:      -4.9      1.792      3.532
REMARK  Name = 
REMARK  21 active torsions:
REMARK  status: ('A' for Active; 'I' for Inactive)
REMARK    1  A    between atoms: C_1  and  C_2
REMARK    2  A    between atoms: C_2  and  C_3
REMARK    3  A    between atoms: C_3  and  C_4
REMARK    4  A    between atoms: C_4  and  C_5
REMARK    5  A    between atoms: C_5  and  C_6
REMARK    6  A    between atoms: C_6  and  C_7
REMARK    7  A    between atoms: C_7  and  C_8
REMARK    8  A    between atoms: C_8  and  S_9
REMARK    9  A    between atoms: S_9  and  C_10
REMARK   10  A    between atoms: C_10  and  C_11
REMARK   11  A    between atoms: C_11  and  N_13
REMARK   12  A    between atoms: C_11  and  C_24
REMARK   13  A    between atoms: C_14  and  C_16
REMARK   14  A    between atoms: C_16  and  C_17
REMARK   15  A    between atoms: C_17  and  C_18
REMARK   16  A    between atoms: C_18  and  N_20
REMARK   17  A    between atoms: C_18  and  C_21
REMARK   18  A    between atoms: C_21  and  O_22
REMARK   19  A    between atoms: N_26  and  CA_27
REMARK   20  A    between atoms: CA_27  and  C_28
REMARK   21  A    between atoms: C_28  and  O_29
REMARK                            x       y       z     vdW  Elec       q    Type
REMARK                         _______ _______ _______ _____ _____    ______ ____
ROOT
ATOM      1  C   UNK A   1       7.296  -4.627  22.892  0.00  0.00    +0.169 C 
ENDROOT
BRANCH   1   2
ATOM      2  N   UNK A   1       7.325  -4.776  24.351  0.00  0.00    -0.303 N 
ATOM      3  H   UNK A   1       6.499  -4.485  24.864  0.00  0.00    +0.149 HD
ATOM      4  C   UNK A   1       8.473  -5.069  25.045  0.00  0.00    +0.214 C 
ATOM      5  O   UNK A   1       9.529  -5.336  24.479  0.00  0.00    -0.276 OA
BRANCH   4   6
ATOM      6  C   UNK A   1       8.262  -5.187  26.540  0.00  0.00    +0.098 C 
BRANCH   6   7
ATOM      7  C   UNK A   1       7.170  -4.248  27.056  0.00  0.00    +0.039 C 
BRANCH   7   8
ATOM      8  C   UNK A   1       5.904  -4.977  27.528  0.00  0.00    +0.161 C 
BRANCH   8   9
ATOM      9  N   UNK A   1       5.791  -6.330  26.912  0.00  0.00    -0.318 NA
ATOM     10  H   UNK A   1       6.463  -6.377  26.137  0.00  0.00    +0.119 HD
ATOM     11  H   UNK A   1       6.153  -7.014  27.587  0.00  0.00    +0.119 HD
ENDBRANCH   8   9
BRANCH   8  12
ATOM     12  C   UNK A   1       4.650  -4.166  27.165  0.00  0.00    +0.322 C 
ATOM     13  O   UNK A   1       3.830  -3.742  27.962  0.00  0.00    -0.249 OA
BRANCH  12  14
ATOM     14  O   UNK A   1       4.595  -3.925  25.827  0.00  0.00    -0.480 OA
ATOM     15  H   UNK A   1       3.735  -4.301  25.511  0.00  0.00    +0.295 HD
ENDBRANCH  12  14
ENDBRANCH   8  12
ENDBRANCH   7   8
ENDBRANCH   6   7
ENDBRANCH   4   6
ENDBRANCH   1   2
BRANCH   1  16
ATOM     16  C   UNK A   1       5.936  -5.120  22.365  0.00  0.00    +0.235 C 
ATOM     17  N   GLY A   2       4.964  -5.273  23.343  0.00  0.00    -0.303 N 
ATOM     18  H   GLY A   2       5.277  -5.224  24.316  0.00  0.00    +0.149 HD
ATOM     19  O   UNK A   1       5.717  -5.391  21.190  0.00  0.00    -0.274 OA
BRANCH  17  20
ATOM     20  CA  GLY A   2       3.702  -5.956  23.058  0.00  0.00    +0.224 C 
BRANCH  20  21
ATOM     21  C   GLY A   2       3.268  -6.906  24.173  0.00  0.00    +0.322 C 
ATOM     22  OXT GLY A   2       3.208  -6.596  25.352  0.00  0.00    -0.249 OA
BRANCH  21  23
ATOM     23  O   GLY A   2       2.908  -8.134  23.722  0.00  0.00    -0.480 OA
ATOM     24  H   GLY A   2       3.533  -8.795  24.086  0.00  0.00    +0.295 HD
ENDBRANCH  21  23
ENDBRANCH  20  21
ENDBRANCH  17  20
ENDBRANCH   1  16
BRANCH   1  25
ATOM     25  C   UNK A   1       7.530  -3.170  22.468  0.00  0.00    +0.100 C 
BRANCH  25  26
ATOM     26  S   UNK A   1       6.837  -1.944  23.649  0.00  0.00    -0.158 S 
BRANCH  26  27
ATOM     27  C   UNK A   1       8.359  -1.334  24.463  0.00  0.00    +0.069 C 
BRANCH  27  28
ATOM     28  C   UNK A   1       9.615  -1.741  23.701  0.00  0.00    +0.011 C 
BRANCH  28  29
ATOM     29  C   UNK A   1      10.388  -0.528  23.185  0.00  0.00    +0.001 C 
BRANCH  29  30
ATOM     30  C   UNK A   1      10.640   0.461  24.324  0.00  0.00    +0.000 C 
BRANCH  30  31
ATOM     31  C   UNK A   1      10.129   1.855  23.975  0.00  0.00    -0.000 C 
BRANCH  31  32
ATOM     32  C   UNK A   1       9.428   1.864  22.616  0.00  0.00    -0.000 C 
BRANCH  32  34
ATOM     33  C   UNK A   1       7.501   3.428  22.183  0.00  0.00    +0.004 C 
ATOM     34  C   UNK A   1       7.928   2.098  22.780  0.00  0.00    -0.003 C 
ENDBRANCH  32  34
ENDBRANCH  31  32
ENDBRANCH  30  31
ENDBRANCH  29  30
ENDBRANCH  28  29
ENDBRANCH  27  28
ENDBRANCH  26  27
ENDBRANCH  25  26
ENDBRANCH   1  25
TORSDOF 20
ENDMDL
MODEL 9
REMARK VINA RESULT:      -4.9      1.175      1.956
REMARK  Name = 
REMARK  21 active torsions:
REMARK  status: ('A' for Active; 'I' for Inactive)
REMARK    1  A    between atoms: C_1  and  C_2
REMARK    2  A    between atoms: C_2  and  C_3
REMARK    3  A    between atoms: C_3  and  C_4
REMARK    4  A    between atoms: C_4  and  C_5
REMARK    5  A    between atoms: C_5  and  C_6
REMARK    6  A    between atoms: C_6  and  C_7
REMARK    7  A    between atoms: C_7  and  C_8
REMARK    8  A    between atoms: C_8  and  S_9
REMARK    9  A    between atoms: S_9  and  C_10
REMARK   10  A    between atoms: C_10  and  C_11
REMARK   11  A    between atoms: C_11  and  N_13
REMARK   12  A    between atoms: C_11  and  C_24
REMARK   13  A    between atoms: C_14  and  C_16
REMARK   14  A    between atoms: C_16  and  C_17
REMARK   15  A    between atoms: C_17  and  C_18
REMARK   16  A    between atoms: C_18  and  N_20
REMARK   17  A    between atoms: C_18  and  C_21
REMARK   18  A    between atoms: C_21  and  O_22
REMARK   19  A    between atoms: N_26  and  CA_27
REMARK   20  A    between atoms: CA_27  and  C_28
REMARK   21  A    between atoms: C_28  and  O_29
REMARK                            x       y       z     vdW  Elec       q    Type
REMARK                         _______ _______ _______ _____ _____    ______ ____
ROOT
ATOM      1  C   UNK A   1       7.515  -4.353  26.086  0.00  0.00    +0.169 C 
ENDROOT
BRANCH   1   2
ATOM      2  N   UNK A   1       6.316  -5.154  26.355  0.00  0.00    -0.303 N 
ATOM      3  H   UNK A   1       5.497  -4.967  25.786  0.00  0.00    +0.149 HD
ATOM      4  C   UNK A   1       6.193  -5.958  27.461  0.00  0.00    +0.214 C 
ATOM      5  O   UNK A   1       7.123  -6.146  28.239  0.00  0.00    -0.276 OA
BRANCH   4   6
ATOM      6  C   UNK A   1       4.874  -6.700  27.525  0.00  0.00    +0.098 C 
BRANCH   6   7
ATOM      7  C   UNK A   1       3.715  -5.891  26.940  0.00  0.00    +0.039 C 
BRANCH   7   8
ATOM      8  C   UNK A   1       3.009  -6.587  25.767  0.00  0.00    +0.161 C 
BRANCH   8   9
ATOM      9  N   UNK A   1       2.857  -8.049  26.012  0.00  0.00    -0.318 NA
ATOM     10  H   UNK A   1       1.853  -8.264  26.010  0.00  0.00    +0.119 HD
ATOM     11  H   UNK A   1       3.211  -8.545  25.186  0.00  0.00    +0.119 HD
ENDBRANCH   8   9
BRANCH   8  12
ATOM     12  C   UNK A   1       3.803  -6.387  24.466  0.00  0.00    +0.322 C 
ATOM     13  O   UNK A   1       4.178  -5.313  24.028  0.00  0.00    -0.249 OA
BRANCH  12  14
ATOM     14  O   UNK A   1       4.091  -7.581  23.882  0.00  0.00    -0.480 OA
ATOM     15  H   UNK A   1       5.051  -7.550  23.643  0.00  0.00    +0.295 HD
ENDBRANCH  12  14
ENDBRANCH   8  12
ENDBRANCH   7   8
ENDBRANCH   6   7
ENDBRANCH   4   6
ENDBRANCH   1   2
BRANCH   1  16
ATOM     16  C   UNK A   1       8.052  -4.709  24.687  0.00  0.00    +0.235 C 
ATOM     17  N   GLY A   2       7.092  -4.700  23.686  0.00  0.00    -0.303 N 
ATOM     18  H   GLY A   2       6.115  -4.640  23.985  0.00  0.00    +0.149 HD
ATOM     19  O   UNK A   1       9.219  -5.009  24.460  0.00  0.00    -0.274 OA
BRANCH  17  20
ATOM     20  CA  GLY A   2       7.377  -5.244  22.358  0.00  0.00    +0.224 C 
BRANCH  20  21
ATOM     21  C   GLY A   2       6.156  -5.255  21.439  0.00  0.00    +0.322 C 
ATOM     22  OXT GLY A   2       5.811  -4.311  20.747  0.00  0.00    -0.249 OA
BRANCH  21  23
ATOM     23  O   GLY A   2       5.503  -6.445  21.429  0.00  0.00    -0.480 OA
ATOM     24  H   GLY A   2       6.154  -7.158  21.592  0.00  0.00    +0.295 HD
ENDBRANCH  21  23
ENDBRANCH  20  21
ENDBRANCH  17  20
ENDBRANCH   1  16
BRANCH   1  25
ATOM     25  C   UNK A   1       7.221  -2.849  26.172  0.00  0.00    +0.100 C 
BRANCH  25  26
ATOM     26  S   UNK A   1       8.524  -1.805  25.402  0.00  0.00    -0.158 S 
BRANCH  26  27
ATOM     27  C   UNK A   1       7.573  -0.296  24.990  0.00  0.00    +0.069 C 
BRANCH  27  28
ATOM     28  C   UNK A   1       8.034   0.909  25.803  0.00  0.00    +0.011 C 
BRANCH  28  29
ATOM     29  C   UNK A   1       7.864   2.217  25.031  0.00  0.00    +0.001 C 
BRANCH  29  30
ATOM     30  C   UNK A   1       9.155   2.561  24.287  0.00  0.00    +0.000 C 
BRANCH  30  31
ATOM     31  C   UNK A   1       8.946   2.555  22.776  0.00  0.00    -0.000 C 
BRANCH  31  32
ATOM     32  C   UNK A   1      10.069   1.801  22.064  0.00  0.00    -0.000 C 
BRANCH  32  34
ATOM     33  C   UNK A   1       9.369  -0.557  21.520  0.00  0.00    +0.004 C 
ATOM     34  C   UNK A   1      10.105   0.339  22.502  0.00  0.00    -0.003 C 
ENDBRANCH  32  34
ENDBRANCH  31  32
ENDBRANCH  30  31
ENDBRANCH  29  30
ENDBRANCH  28  29
ENDBRANCH  27  28
ENDBRANCH  26  27
ENDBRANCH  25  26
ENDBRANCH   1  25
TORSDOF 20
ENDMDL
