MODEL 1
REMARK VINA RESULT:      -8.1      0.000      0.000
REMARK  Name = 
REMARK  5 active torsions:
REMARK  status: ('A' for Active; 'I' for Inactive)
REMARK    1  A    between atoms: O_1  and  C_2
REMARK    2  A    between atoms: C_2  and  C_4
REMARK    3  A    between atoms: C_4  and  N_5
REMARK    4  A    between atoms: C_7  and  C_8
REMARK    5  A    between atoms: C_8  and  C_9
REMARK                            x       y       z     vdW  Elec       q    Type
REMARK                         _______ _______ _______ _____ _____    ______ ____
ROOT
ATOM      1  N   UNL     1       6.101  -5.027  26.641  0.00  0.00    -0.336 N 
ATOM      2  C   UNL     1       5.557  -5.442  25.443  0.00  0.00    +0.050 A 
ATOM      3  C   UNL     1       4.358  -6.118  25.156  0.00  0.00    +0.026 A 
ATOM      4  C   UNL     1       4.038  -6.353  23.817  0.00  0.00    +0.002 A 
ATOM      5  C   UNL     1       4.875  -5.914  22.797  0.00  0.00    +0.001 A 
ATOM      6  C   UNL     1       6.081  -5.269  23.093  0.00  0.00    +0.010 A 
ATOM      7  C   UNL     1       6.446  -5.044  24.439  0.00  0.00    +0.003 A 
ATOM      8  C   UNL     1       7.618  -4.517  25.080  0.00  0.00    -0.016 A 
ATOM      9  C   UNL     1       7.354  -4.512  26.437  0.00  0.00    +0.091 A 
ENDROOT
BRANCH   1  10
ATOM     10  C   UNL     1       5.453  -5.108  27.942  0.00  0.00    +0.242 C 
BRANCH  10  11
ATOM     11  C   UNL     1       5.856  -6.315  28.754  0.00  0.00    +0.325 C 
ATOM     12  O   UNL     1       6.543  -6.220  29.765  0.00  0.00    -0.249 OA
BRANCH  11  13
ATOM     13  O   UNL     1       5.505  -7.528  28.270  0.00  0.00    -0.479 OA
ATOM     14  H   UNL     1       4.948  -7.527  27.466  0.00  0.00    +0.295 HD
ENDBRANCH  11  13
ENDBRANCH  10  11
ENDBRANCH   1  10
BRANCH   8  15
ATOM     15  C   UNL     1       8.920  -4.167  24.420  0.00  0.00    +0.100 C 
BRANCH  15  16
ATOM     16  C   UNL     1       9.054  -2.741  23.963  0.00  0.00    +0.084 A 
ATOM     17  S   UNL     1       8.535  -2.270  22.394  0.00  0.00    -0.069 S 
ATOM     18  C   UNL     1       9.266  -0.723  22.609  0.00  0.00    +0.077 A 
ATOM     19  C   UNL     1       9.370   0.355  21.714  0.00  0.00    +0.142 A 
ATOM     20  C   UNL     1      10.040   1.512  22.099  0.00  0.00    +0.081 A 
ATOM     21  C   UNL     1      10.588   1.594  23.369  0.00  0.00    +0.163 A 
ATOM     22  C   UNL     1      10.480   0.536  24.272  0.00  0.00    +0.185 A 
ATOM     23  F   UNL     1      11.030   0.649  25.491  0.00  0.00    -0.200 F 
ATOM     24  F   UNL     1      11.246   2.707  23.722  0.00  0.00    -0.202 F 
ATOM     25  F   UNL     1       8.855   0.279  20.480  0.00  0.00    -0.204 F 
ATOM     26  C   UNL     1       9.816  -0.650  23.893  0.00  0.00    +0.119 A 
ATOM     27  N   UNL     1       9.665  -1.801  24.656  0.00  0.00    -0.241 NA
ENDBRANCH  15  16
ENDBRANCH   8  15
TORSDOF 5
ENDMDL
MODEL 2
REMARK VINA RESULT:      -7.7      2.963      4.331
REMARK  Name = 
REMARK  5 active torsions:
REMARK  status: ('A' for Active; 'I' for Inactive)
REMARK    1  A    between atoms: O_1  and  C_2
REMARK    2  A    between atoms: C_2  and  C_4
REMARK    3  A    between atoms: C_4  and  N_5
REMARK    4  A    between atoms: C_7  and  C_8
REMARK    5  A    between atoms: C_8  and  C_9
REMARK                            x       y       z     vdW  Elec       q    Type
REMARK                         _______ _______ _______ _____ _____    ______ ____
ROOT
ATOM      1  N   UNL     1       6.914  -4.019  22.957  0.00  0.00    -0.336 N 
ATOM      2  C   UNL     1       7.081  -4.468  24.251  0.00  0.00    +0.050 A 
ATOM      3  C   UNL     1       6.246  -5.240  25.078  0.00  0.00    +0.026 A 
ATOM      4  C   UNL     1       6.718  -5.597  26.343  0.00  0.00    +0.002 A 
ATOM      5  C   UNL     1       7.986  -5.212  26.765  0.00  0.00    +0.001 A 
ATOM      6  C   UNL     1       8.797  -4.418  25.948  0.00  0.00    +0.010 A 
ATOM      7  C   UNL     1       8.335  -4.017  24.675  0.00  0.00    +0.003 A 
ATOM      8  C   UNL     1       8.852  -3.150  23.654  0.00  0.00    -0.016 A 
ATOM      9  C   UNL     1       7.949  -3.193  22.608  0.00  0.00    +0.091 A 
ENDROOT
BRANCH   1  10
ATOM     10  C   UNL     1       5.811  -4.366  22.073  0.00  0.00    +0.242 C 
BRANCH  10  11
ATOM     11  C   UNL     1       6.067  -5.584  21.219  0.00  0.00    +0.325 C 
ATOM     12  O   UNL     1       6.068  -5.532  19.995  0.00  0.00    -0.249 OA
BRANCH  11  13
ATOM     13  O   UNL     1       6.207  -6.767  21.860  0.00  0.00    -0.479 OA
ATOM     14  H   UNL     1       6.852  -7.393  21.475  0.00  0.00    +0.295 HD
ENDBRANCH  11  13
ENDBRANCH  10  11
ENDBRANCH   1  10
BRANCH   8  15
ATOM     15  C   UNL     1      10.062  -2.267  23.755  0.00  0.00    +0.100 C 
BRANCH  15  16
ATOM     16  C   UNL     1       9.792  -0.831  24.107  0.00  0.00    +0.084 A 
ATOM     17  S   UNL     1       8.606  -0.425  25.282  0.00  0.00    -0.069 S 
ATOM     18  C   UNL     1       8.751   1.241  24.862  0.00  0.00    +0.077 A 
ATOM     19  C   UNL     1       8.041   2.355  25.341  0.00  0.00    +0.142 A 
ATOM     20  C   UNL     1       8.310   3.621  24.829  0.00  0.00    +0.081 A 
ATOM     21  C   UNL     1       9.288   3.771  23.859  0.00  0.00    +0.163 A 
ATOM     22  C   UNL     1      10.009   2.676  23.384  0.00  0.00    +0.185 A 
ATOM     23  F   UNL     1      10.943   2.859  22.438  0.00  0.00    -0.200 F 
ATOM     24  F   UNL     1       9.524   4.993  23.360  0.00  0.00    -0.202 F 
ATOM     25  F   UNL     1       7.084   2.216  26.269  0.00  0.00    -0.204 F 
ATOM     26  C   UNL     1       9.739   1.383  23.883  0.00  0.00    +0.119 A 
ATOM     27  N   UNL     1      10.336   0.195  23.483  0.00  0.00    -0.241 NA
ENDBRANCH  15  16
ENDBRANCH   8  15
TORSDOF 5
ENDMDL
MODEL 3
REMARK VINA RESULT:      -7.6      2.774      3.881
REMARK  Name = 
REMARK  5 active torsions:
REMARK  status: ('A' for Active; 'I' for Inactive)
REMARK    1  A    between atoms: O_1  and  C_2
REMARK    2  A    between atoms: C_2  and  C_4
REMARK    3  A    between atoms: C_4  and  N_5
REMARK    4  A    between atoms: C_7  and  C_8
REMARK    5  A    between atoms: C_8  and  C_9
REMARK                            x       y       z     vdW  Elec       q    Type
REMARK                         _______ _______ _______ _____ _____    ______ ____
ROOT
ATOM      1  N   UNL     1       6.555  -4.509  23.375  0.00  0.00    -0.336 N 
ATOM      2  C   UNL     1       6.585  -4.867  24.707  0.00  0.00    +0.050 A 
ATOM      3  C   UNL     1       5.651  -5.553  25.502  0.00  0.00    +0.026 A 
ATOM      4  C   UNL     1       5.990  -5.830  26.828  0.00  0.00    +0.002 A 
ATOM      5  C   UNL     1       7.225  -5.451  27.341  0.00  0.00    +0.001 A 
ATOM      6  C   UNL     1       8.136  -4.741  26.551  0.00  0.00    +0.010 A 
ATOM      7  C   UNL     1       7.809  -4.421  25.215  0.00  0.00    +0.003 A 
ATOM      8  C   UNL     1       8.449  -3.645  24.191  0.00  0.00    -0.016 A 
ATOM      9  C   UNL     1       7.646  -3.739  23.069  0.00  0.00    +0.091 A 
ENDROOT
BRANCH   1  10
ATOM     10  C   UNL     1       5.528  -4.888  22.415  0.00  0.00    +0.242 C 
BRANCH  10  11
ATOM     11  C   UNL     1       6.004  -5.849  21.353  0.00  0.00    +0.325 C 
ATOM     12  O   UNL     1       5.950  -5.578  20.159  0.00  0.00    -0.249 OA
BRANCH  11  13
ATOM     13  O   UNL     1       6.410  -7.071  21.766  0.00  0.00    -0.479 OA
ATOM     14  H   UNL     1       6.787  -7.656  21.079  0.00  0.00    +0.295 HD
ENDBRANCH  11  13
ENDBRANCH  10  11
ENDBRANCH   1  10
BRANCH   8  15
ATOM     15  C   UNL     1       9.674  -2.791  24.345  0.00  0.00    +0.100 C 
BRANCH  15  16
ATOM     16  C   UNL     1       9.481  -1.324  24.082  0.00  0.00    +0.084 A 
ATOM     17  S   UNL     1      10.256  -0.562  22.750  0.00  0.00    -0.069 S 
ATOM     18  C   UNL     1       9.766   0.982  23.340  0.00  0.00    +0.077 A 
ATOM     19  C   UNL     1      10.047   2.265  22.843  0.00  0.00    +0.142 A 
ATOM     20  C   UNL     1       9.564   3.388  23.510  0.00  0.00    +0.081 A 
ATOM     21  C   UNL     1       8.798   3.226  24.653  0.00  0.00    +0.163 A 
ATOM     22  C   UNL     1       8.501   1.958  25.149  0.00  0.00    +0.185 A 
ATOM     23  F   UNL     1       7.763   1.840  26.264  0.00  0.00    -0.200 F 
ATOM     24  F   UNL     1       8.355   4.315  25.296  0.00  0.00    -0.202 F 
ATOM     25  F   UNL     1      10.799   2.431  21.746  0.00  0.00    -0.204 F 
ATOM     26  C   UNL     1       8.994   0.809  24.493  0.00  0.00    +0.119 A 
ATOM     27  N   UNL     1       8.824  -0.512  24.887  0.00  0.00    -0.241 NA
ENDBRANCH  15  16
ENDBRANCH   8  15
TORSDOF 5
ENDMDL
MODEL 4
REMARK VINA RESULT:      -7.6      1.418      2.087
REMARK  Name = 
REMARK  5 active torsions:
REMARK  status: ('A' for Active; 'I' for Inactive)
REMARK    1  A    between atoms: O_1  and  C_2
REMARK    2  A    between atoms: C_2  and  C_4
REMARK    3  A    between atoms: C_4  and  N_5
REMARK    4  A    between atoms: C_7  and  C_8
REMARK    5  A    between atoms: C_8  and  C_9
REMARK                            x       y       z     vdW  Elec       q    Type
REMARK                         _______ _______ _______ _____ _____    ______ ____
ROOT
ATOM      1  N   UNL     1       6.084  -5.820  26.623  0.00  0.00    -0.336 N 
ATOM      2  C   UNL     1       5.655  -5.812  25.312  0.00  0.00    +0.050 A 
ATOM      3  C   UNL     1       4.478  -6.301  24.720  0.00  0.00    +0.026 A 
ATOM      4  C   UNL     1       4.290  -6.090  23.352  0.00  0.00    +0.002 A 
ATOM      5  C   UNL     1       5.234  -5.398  22.602  0.00  0.00    +0.001 A 
ATOM      6  C   UNL     1       6.417  -4.942  23.193  0.00  0.00    +0.010 A 
ATOM      7  C   UNL     1       6.649  -5.166  24.568  0.00  0.00    +0.003 A 
ATOM      8  C   UNL     1       7.761  -4.927  25.444  0.00  0.00    -0.016 A 
ATOM      9  C   UNL     1       7.361  -5.333  26.704  0.00  0.00    +0.091 A 
ENDROOT
BRANCH   1  10
ATOM     10  C   UNL     1       5.306  -6.270  27.769  0.00  0.00    +0.242 C 
BRANCH  10  11
ATOM     11  C   UNL     1       6.124  -6.486  29.019  0.00  0.00    +0.325 C 
ATOM     12  O   UNL     1       6.697  -7.544  29.247  0.00  0.00    -0.249 OA
BRANCH  11  13
ATOM     13  O   UNL     1       6.124  -5.489  29.933  0.00  0.00    -0.479 OA
ATOM     14  H   UNL     1       5.652  -5.671  30.770  0.00  0.00    +0.295 HD
ENDBRANCH  11  13
ENDBRANCH  10  11
ENDBRANCH   1  10
BRANCH   8  15
ATOM     15  C   UNL     1       9.130  -4.456  25.048  0.00  0.00    +0.100 C 
BRANCH  15  16
ATOM     16  C   UNL     1       9.261  -2.982  24.790  0.00  0.00    +0.084 A 
ATOM     17  S   UNL     1       8.665  -1.836  25.924  0.00  0.00    -0.069 S 
ATOM     18  C   UNL     1       8.942  -0.563  24.794  0.00  0.00    +0.077 A 
ATOM     19  C   UNL     1       8.658   0.808  24.898  0.00  0.00    +0.142 A 
ATOM     20  C   UNL     1       8.944   1.657  23.833  0.00  0.00    +0.081 A 
ATOM     21  C   UNL     1       9.521   1.141  22.683  0.00  0.00    +0.163 A 
ATOM     22  C   UNL     1       9.819  -0.217  22.573  0.00  0.00    +0.185 A 
ATOM     23  F   UNL     1      10.370  -0.683  21.441  0.00  0.00    -0.200 F 
ATOM     24  F   UNL     1       9.775   1.965  21.658  0.00  0.00    -0.202 F 
ATOM     25  F   UNL     1       8.088   1.314  26.000  0.00  0.00    -0.204 F 
ATOM     26  C   UNL     1       9.523  -1.094  23.639  0.00  0.00    +0.119 A 
ATOM     27  N   UNL     1       9.717  -2.469  23.664  0.00  0.00    -0.241 NA
ENDBRANCH  15  16
ENDBRANCH   8  15
TORSDOF 5
ENDMDL
MODEL 5
REMARK VINA RESULT:      -7.6      1.745      2.014
REMARK  Name = 
REMARK  5 active torsions:
REMARK  status: ('A' for Active; 'I' for Inactive)
REMARK    1  A    between atoms: O_1  and  C_2
REMARK    2  A    between atoms: C_2  and  C_4
REMARK    3  A    between atoms: C_4  and  N_5
REMARK    4  A    between atoms: C_7  and  C_8
REMARK    5  A    between atoms: C_8  and  C_9
REMARK                            x       y       z     vdW  Elec       q    Type
REMARK                         _______ _______ _______ _____ _____    ______ ____
ROOT
ATOM      1  N   UNL     1       6.751  -5.327  25.487  0.00  0.00    -0.336 N 
ATOM      2  C   UNL     1       6.486  -5.356  24.133  0.00  0.00    +0.050 A 
ATOM      3  C   UNL     1       5.534  -6.076  23.391  0.00  0.00    +0.026 A 
ATOM      4  C   UNL     1       5.460  -5.849  22.015  0.00  0.00    +0.002 A 
ATOM      5  C   UNL     1       6.294  -4.922  21.401  0.00  0.00    +0.001 A 
ATOM      6  C   UNL     1       7.259  -4.232  22.142  0.00  0.00    +0.010 A 
ATOM      7  C   UNL     1       7.378  -4.462  23.530  0.00  0.00    +0.003 A 
ATOM      8  C   UNL     1       8.293  -4.013  24.541  0.00  0.00    -0.016 A 
ATOM      9  C   UNL     1       7.859  -4.561  25.734  0.00  0.00    +0.091 A 
ENDROOT
BRANCH   1  10
ATOM     10  C   UNL     1       5.975  -6.000  26.519  0.00  0.00    +0.242 C 
BRANCH  10  11
ATOM     11  C   UNL     1       6.421  -5.684  27.926  0.00  0.00    +0.325 C 
ATOM     12  O   UNL     1       7.072  -6.478  28.596  0.00  0.00    -0.249 OA
BRANCH  11  13
ATOM     13  O   UNL     1       5.992  -4.519  28.461  0.00  0.00    -0.479 OA
ATOM     14  H   UNL     1       5.924  -3.761  27.846  0.00  0.00    +0.295 HD
ENDBRANCH  11  13
ENDBRANCH  10  11
ENDBRANCH   1  10
BRANCH   8  15
ATOM     15  C   UNL     1       9.548  -3.219  24.326  0.00  0.00    +0.100 C 
BRANCH  15  16
ATOM     16  C   UNL     1       9.353  -1.751  24.071  0.00  0.00    +0.084 A 
ATOM     17  S   UNL     1      10.033  -1.004  22.680  0.00  0.00    -0.069 S 
ATOM     18  C   UNL     1       9.607   0.548  23.298  0.00  0.00    +0.077 A 
ATOM     19  C   UNL     1       9.864   1.826  22.774  0.00  0.00    +0.142 A 
ATOM     20  C   UNL     1       9.446   2.957  23.469  0.00  0.00    +0.081 A 
ATOM     21  C   UNL     1       8.767   2.810  24.668  0.00  0.00    +0.163 A 
ATOM     22  C   UNL     1       8.494   1.547  25.192  0.00  0.00    +0.185 A 
ATOM     23  F   UNL     1       7.841   1.443  26.360  0.00  0.00    -0.200 F 
ATOM     24  F   UNL     1       8.386   3.907  25.337  0.00  0.00    -0.202 F 
ATOM     25  F   UNL     1      10.532   1.978  21.622  0.00  0.00    -0.204 F 
ATOM     26  C   UNL     1       8.923   0.389  24.507  0.00  0.00    +0.119 A 
ATOM     27  N   UNL     1       8.769  -0.928  24.919  0.00  0.00    -0.241 NA
ENDBRANCH  15  16
ENDBRANCH   8  15
TORSDOF 5
ENDMDL
MODEL 6
REMARK VINA RESULT:      -7.5      2.417      3.374
REMARK  Name = 
REMARK  5 active torsions:
REMARK  status: ('A' for Active; 'I' for Inactive)
REMARK    1  A    between atoms: O_1  and  C_2
REMARK    2  A    between atoms: C_2  and  C_4
REMARK    3  A    between atoms: C_4  and  N_5
REMARK    4  A    between atoms: C_7  and  C_8
REMARK    5  A    between atoms: C_8  and  C_9
REMARK                            x       y       z     vdW  Elec       q    Type
REMARK                         _______ _______ _______ _____ _____    ______ ____
ROOT
ATOM      1  N   UNL     1       8.850  -4.050  24.472  0.00  0.00    -0.336 N 
ATOM      2  C   UNL     1       7.741  -4.249  23.675  0.00  0.00    +0.050 A 
ATOM      3  C   UNL     1       6.782  -5.277  23.663  0.00  0.00    +0.026 A 
ATOM      4  C   UNL     1       5.717  -5.176  22.765  0.00  0.00    +0.002 A 
ATOM      5  C   UNL     1       5.601  -4.078  21.919  0.00  0.00    +0.001 A 
ATOM      6  C   UNL     1       6.577  -3.076  21.916  0.00  0.00    +0.010 A 
ATOM      7  C   UNL     1       7.681  -3.166  22.793  0.00  0.00    +0.003 A 
ATOM      8  C   UNL     1       8.875  -2.389  22.976  0.00  0.00    -0.016 A 
ATOM      9  C   UNL     1       9.558  -2.964  24.032  0.00  0.00    +0.091 A 
ENDROOT
BRANCH   1  10
ATOM     10  C   UNL     1       9.226  -4.860  25.622  0.00  0.00    +0.242 C 
BRANCH  10  11
ATOM     11  C   UNL     1       8.248  -4.792  26.769  0.00  0.00    +0.325 C 
ATOM     12  O   UNL     1       7.747  -3.734  27.135  0.00  0.00    -0.249 OA
BRANCH  11  13
ATOM     13  O   UNL     1       8.010  -5.939  27.445  0.00  0.00    -0.479 OA
ATOM     14  H   UNL     1       8.591  -6.695  27.229  0.00  0.00    +0.295 HD
ENDBRANCH  11  13
ENDBRANCH  10  11
ENDBRANCH   1  10
BRANCH   8  15
ATOM     15  C   UNL     1       9.353  -1.261  22.109  0.00  0.00    +0.100 C 
BRANCH  15  16
ATOM     16  C   UNL     1       9.153   0.119  22.670  0.00  0.00    +0.084 A 
ATOM     17  S   UNL     1       7.577   0.789  22.812  0.00  0.00    -0.069 S 
ATOM     18  C   UNL     1       8.257   2.321  23.214  0.00  0.00    +0.077 A 
ATOM     19  C   UNL     1       7.622   3.551  23.455  0.00  0.00    +0.142 A 
ATOM     20  C   UNL     1       8.385   4.681  23.737  0.00  0.00    +0.081 A 
ATOM     21  C   UNL     1       9.766   4.577  23.790  0.00  0.00    +0.163 A 
ATOM     22  C   UNL     1      10.407   3.359  23.565  0.00  0.00    +0.185 A 
ATOM     23  F   UNL     1      11.747   3.298  23.617  0.00  0.00    -0.200 F 
ATOM     24  F   UNL     1      10.490   5.675  24.044  0.00  0.00    -0.202 F 
ATOM     25  F   UNL     1       6.288   3.663  23.393  0.00  0.00    -0.204 F 
ATOM     26  C   UNL     1       9.649   2.206  23.265  0.00  0.00    +0.119 A 
ATOM     27  N   UNL     1      10.139   0.940  22.974  0.00  0.00    -0.241 NA
ENDBRANCH  15  16
ENDBRANCH   8  15
TORSDOF 5
ENDMDL
MODEL 7
REMARK VINA RESULT:      -7.3      1.929      2.759
REMARK  Name = 
REMARK  5 active torsions:
REMARK  status: ('A' for Active; 'I' for Inactive)
REMARK    1  A    between atoms: O_1  and  C_2
REMARK    2  A    between atoms: C_2  and  C_4
REMARK    3  A    between atoms: C_4  and  N_5
REMARK    4  A    between atoms: C_7  and  C_8
REMARK    5  A    between atoms: C_8  and  C_9
REMARK                            x       y       z     vdW  Elec       q    Type
REMARK                         _______ _______ _______ _____ _____    ______ ____
ROOT
ATOM      1  N   UNL     1       5.023  -5.286  25.116  0.00  0.00    -0.336 N 
ATOM      2  C   UNL     1       5.607  -5.442  23.876  0.00  0.00    +0.050 A 
ATOM      3  C   UNL     1       5.147  -6.077  22.710  0.00  0.00    +0.026 A 
ATOM      4  C   UNL     1       5.948  -6.020  21.567  0.00  0.00    +0.002 A 
ATOM      5  C   UNL     1       7.159  -5.337  21.580  0.00  0.00    +0.001 A 
ATOM      6  C   UNL     1       7.623  -4.734  22.754  0.00  0.00    +0.010 A 
ATOM      7  C   UNL     1       6.849  -4.801  23.933  0.00  0.00    +0.003 A 
ATOM      8  C   UNL     1       7.064  -4.391  25.292  0.00  0.00    -0.016 A 
ATOM      9  C   UNL     1       5.906  -4.697  25.982  0.00  0.00    +0.091 A 
ENDROOT
BRANCH   1  10
ATOM     10  C   UNL     1       3.666  -5.676  25.472  0.00  0.00    +0.242 C 
BRANCH  10  11
ATOM     11  C   UNL     1       3.544  -7.102  25.953  0.00  0.00    +0.325 C 
ATOM     12  O   UNL     1       3.230  -8.018  25.201  0.00  0.00    -0.249 OA
BRANCH  11  13
ATOM     13  O   UNL     1       3.706  -7.321  27.277  0.00  0.00    -0.479 OA
ATOM     14  H   UNL     1       4.564  -7.701  27.551  0.00  0.00    +0.295 HD
ENDBRANCH  11  13
ENDBRANCH  10  11
ENDBRANCH   1  10
BRANCH   8  15
ATOM     15  C   UNL     1       8.340  -3.859  25.877  0.00  0.00    +0.100 C 
BRANCH  15  16
ATOM     16  C   UNL     1       8.738  -2.482  25.425  0.00  0.00    +0.084 A 
ATOM     17  S   UNL     1       8.224  -1.091  26.293  0.00  0.00    -0.069 S 
ATOM     18  C   UNL     1       8.823  -0.076  25.034  0.00  0.00    +0.077 A 
ATOM     19  C   UNL     1       8.759   1.321  24.898  0.00  0.00    +0.142 A 
ATOM     20  C   UNL     1       9.292   1.932  23.766  0.00  0.00    +0.081 A 
ATOM     21  C   UNL     1       9.892   1.154  22.790  0.00  0.00    +0.163 A 
ATOM     22  C   UNL     1       9.973  -0.232  22.919  0.00  0.00    +0.185 A 
ATOM     23  F   UNL     1      10.555  -0.953  21.948  0.00  0.00    -0.200 F 
ATOM     24  F   UNL     1      10.385   1.752  21.696  0.00  0.00    -0.202 F 
ATOM     25  F   UNL     1       8.168   2.079  25.832  0.00  0.00    -0.204 F 
ATOM     26  C   UNL     1       9.426  -0.869  24.054  0.00  0.00    +0.119 A 
ATOM     27  N   UNL     1       9.388  -2.234  24.305  0.00  0.00    -0.241 NA
ENDBRANCH  15  16
ENDBRANCH   8  15
TORSDOF 5
ENDMDL
MODEL 8
REMARK VINA RESULT:      -7.3      2.745      3.655
REMARK  Name = 
REMARK  5 active torsions:
REMARK  status: ('A' for Active; 'I' for Inactive)
REMARK    1  A    between atoms: O_1  and  C_2
REMARK    2  A    between atoms: C_2  and  C_4
REMARK    3  A    between atoms: C_4  and  N_5
REMARK    4  A    between atoms: C_7  and  C_8
REMARK    5  A    between atoms: C_8  and  C_9
REMARK                            x       y       z     vdW  Elec       q    Type
REMARK                         _______ _______ _______ _____ _____    ______ ____
ROOT
ATOM      1  N   UNL     1       7.053  -5.276  23.457  0.00  0.00    -0.336 N 
ATOM      2  C   UNL     1       6.184  -5.588  24.483  0.00  0.00    +0.050 A 
ATOM      3  C   UNL     1       5.077  -6.452  24.527  0.00  0.00    +0.026 A 
ATOM      4  C   UNL     1       4.414  -6.614  25.746  0.00  0.00    +0.002 A 
ATOM      5  C   UNL     1       4.850  -5.951  26.887  0.00  0.00    +0.001 A 
ATOM      6  C   UNL     1       5.934  -5.068  26.826  0.00  0.00    +0.010 A 
ATOM      7  C   UNL     1       6.606  -4.862  25.601  0.00  0.00    +0.003 A 
ATOM      8  C   UNL     1       7.659  -3.982  25.177  0.00  0.00    -0.016 A 
ATOM      9  C   UNL     1       7.910  -4.284  23.851  0.00  0.00    +0.091 A 
ENDROOT
BRANCH   1  10
ATOM     10  C   UNL     1       7.076  -5.902  22.143  0.00  0.00    +0.242 C 
BRANCH  10  11
ATOM     11  C   UNL     1       6.140  -5.267  21.143  0.00  0.00    +0.325 C 
ATOM     12  O   UNL     1       5.996  -5.715  20.011  0.00  0.00    -0.249 OA
BRANCH  11  13
ATOM     13  O   UNL     1       5.529  -4.120  21.515  0.00  0.00    -0.479 OA
ATOM     14  H   UNL     1       5.681  -3.344  20.940  0.00  0.00    +0.295 HD
ENDBRANCH  11  13
ENDBRANCH  10  11
ENDBRANCH   1  10
BRANCH   8  15
ATOM     15  C   UNL     1       8.271  -2.867  25.973  0.00  0.00    +0.100 C 
BRANCH  15  16
ATOM     16  C   UNL     1       8.389  -1.549  25.260  0.00  0.00    +0.084 A 
ATOM     17  S   UNL     1       7.083  -0.936  24.326  0.00  0.00    -0.069 S 
ATOM     18  C   UNL     1       8.100   0.313  23.711  0.00  0.00    +0.077 A 
ATOM     19  C   UNL     1       7.825   1.311  22.761  0.00  0.00    +0.142 A 
ATOM     20  C   UNL     1       8.823   2.208  22.390  0.00  0.00    +0.081 A 
ATOM     21  C   UNL     1      10.076   2.114  22.972  0.00  0.00    +0.163 A 
ATOM     22  C   UNL     1      10.359   1.136  23.925  0.00  0.00    +0.185 A 
ATOM     23  F   UNL     1      11.588   1.071  24.461  0.00  0.00    -0.200 F 
ATOM     24  F   UNL     1      11.034   2.972  22.592  0.00  0.00    -0.202 F 
ATOM     25  F   UNL     1       6.619   1.400  22.184  0.00  0.00    -0.204 F 
ATOM     26  C   UNL     1       9.362   0.210  24.303  0.00  0.00    +0.119 A 
ATOM     27  N   UNL     1       9.501  -0.842  25.199  0.00  0.00    -0.241 NA
ENDBRANCH  15  16
ENDBRANCH   8  15
TORSDOF 5
ENDMDL
MODEL 9
REMARK VINA RESULT:      -7.3      2.771      3.902
REMARK  Name = 
REMARK  5 active torsions:
REMARK  status: ('A' for Active; 'I' for Inactive)
REMARK    1  A    between atoms: O_1  and  C_2
REMARK    2  A    between atoms: C_2  and  C_4
REMARK    3  A    between atoms: C_4  and  N_5
REMARK    4  A    between atoms: C_7  and  C_8
REMARK    5  A    between atoms: C_8  and  C_9
REMARK                            x       y       z     vdW  Elec       q    Type
REMARK                         _______ _______ _______ _____ _____    ______ ____
ROOT
ATOM      1  N   UNL     1       5.952  -5.544  24.117  0.00  0.00    -0.336 N 
ATOM      2  C   UNL     1       5.443  -5.864  25.359  0.00  0.00    +0.050 A 
ATOM      3  C   UNL     1       4.207  -6.413  25.739  0.00  0.00    +0.026 A 
ATOM      4  C   UNL     1       3.995  -6.689  27.092  0.00  0.00    +0.002 A 
ATOM      5  C   UNL     1       4.988  -6.441  28.033  0.00  0.00    +0.001 A 
ATOM      6  C   UNL     1       6.204  -5.864  27.649  0.00  0.00    +0.010 A 
ATOM      7  C   UNL     1       6.436  -5.548  26.293  0.00  0.00    +0.003 A 
ATOM      8  C   UNL     1       7.496  -4.882  25.591  0.00  0.00    -0.016 A 
ATOM      9  C   UNL     1       7.161  -4.915  24.251  0.00  0.00    +0.091 A 
ENDROOT
BRANCH   1  10
ATOM     10  C   UNL     1       5.316  -5.830  22.839  0.00  0.00    +0.242 C 
BRANCH  10  11
ATOM     11  C   UNL     1       6.055  -5.272  21.647  0.00  0.00    +0.325 C 
ATOM     12  O   UNL     1       6.995  -5.864  21.129  0.00  0.00    -0.249 OA
BRANCH  11  13
ATOM     13  O   UNL     1       5.698  -4.039  21.222  0.00  0.00    -0.479 OA
ATOM     14  H   UNL     1       5.324  -3.984  20.320  0.00  0.00    +0.295 HD
ENDBRANCH  11  13
ENDBRANCH  10  11
ENDBRANCH   1  10
BRANCH   8  15
ATOM     15  C   UNL     1       8.669  -4.171  26.203  0.00  0.00    +0.100 C 
BRANCH  15  16
ATOM     16  C   UNL     1       8.970  -2.810  25.640  0.00  0.00    +0.084 A 
ATOM     17  S   UNL     1       8.409  -1.391  26.430  0.00  0.00    -0.069 S 
ATOM     18  C   UNL     1       8.901  -0.437  25.081  0.00  0.00    +0.077 A 
ATOM     19  C   UNL     1       8.752   0.940  24.851  0.00  0.00    +0.142 A 
ATOM     20  C   UNL     1       9.206   1.497  23.659  0.00  0.00    +0.081 A 
ATOM     21  C   UNL     1       9.814   0.686  22.714  0.00  0.00    +0.163 A 
ATOM     22  C   UNL     1       9.979  -0.681  22.936  0.00  0.00    +0.185 A 
ATOM     23  F   UNL     1      10.565  -1.437  21.994  0.00  0.00    -0.200 F 
ATOM     24  F   UNL     1      10.230   1.230  21.562  0.00  0.00    -0.202 F 
ATOM     25  F   UNL     1       8.154   1.730  25.754  0.00  0.00    -0.204 F 
ATOM     26  C   UNL     1       9.512  -1.264  24.134  0.00  0.00    +0.119 A 
ATOM     27  N   UNL     1       9.562  -2.608  24.480  0.00  0.00    -0.241 NA
ENDBRANCH  15  16
ENDBRANCH   8  15
TORSDOF 5
ENDMDL
