MODEL 1
REMARK VINA RESULT:      -6.8      0.000      0.000
REMARK  Name = 
REMARK  6 active torsions:
REMARK  status: ('A' for Active; 'I' for Inactive)
REMARK    1  A    between atoms: C_1  and  N_2
REMARK    2  A    between atoms: N_6  and  C_7
REMARK    3  A    between atoms: C_10  and  C_11
REMARK    4  A    between atoms: C_11  and  C_12
REMARK    5  A    between atoms: C_17  and  N_18
REMARK    6  A    between atoms: C_22  and  C_24
REMARK                            x       y       z     vdW  Elec       q    Type
REMARK                         _______ _______ _______ _____ _____    ______ ____
ROOT
ATOM      1  C   UNL     1      12.835   5.218  23.151  0.00  0.00    +0.127 C 
ATOM      2  N   UNL     1      11.423   5.509  23.262  0.00  0.00    -0.332 N 
ATOM      3  H   UNL     1      11.049   6.014  22.463  0.00  0.00    +0.147 HD
ATOM      4  C   UNL     1      10.580   4.429  23.573  0.00  0.00    +0.125 A 
ATOM      5  C   UNL     1       9.253   4.732  23.789  0.00  0.00    +0.087 A 
ATOM      6  C   UNL     1       8.437   3.717  24.209  0.00  0.00    +0.131 A 
ATOM      7  N   UNL     1       8.890   2.462  24.318  0.00  0.00    -0.199 NA
ATOM      8  C   UNL     1      10.169   2.213  24.012  0.00  0.00    +0.223 A 
ATOM      9  N   UNL     1      10.637   0.893  23.971  0.00  0.00    -0.284 N 
ATOM     10  H   UNL     1      11.610   0.916  23.700  0.00  0.00    +0.155 HD
ATOM     11  N   UNL     1      11.051   3.175  23.699  0.00  0.00    -0.199 NA
ENDROOT
BRANCH   6  12
ATOM     12  N   UNL     1       7.101   3.884  24.557  0.00  0.00    -0.283 N 
ATOM     13  H   UNL     1       7.069   4.573  25.300  0.00  0.00    +0.155 HD
ATOM     14  C   UNL     1       5.952   3.481  23.983  0.00  0.00    +0.146 A 
ATOM     15  C   UNL     1       4.727   4.031  24.419  0.00  0.00    +0.068 A 
ATOM     16  C   UNL     1       3.771   3.520  23.576  0.00  0.00    +0.041 A 
ATOM     17  N   UNL     1       4.424   2.638  22.771  0.00  0.00    -0.280 N 
ATOM     18  H   UNL     1       4.044   2.039  22.045  0.00  0.00    +0.189 HD
ATOM     19  N   UNL     1       5.756   2.607  22.988  0.00  0.00    -0.158 NA
BRANCH  16  20
ATOM     20  C   UNL     1       2.324   3.936  23.632  0.00  0.00    +0.037 C 
ATOM     21  C   UNL     1       1.313   3.261  22.741  0.00  0.00    +0.010 C 
ATOM     22  C   UNL     1       1.692   4.678  22.479  0.00  0.00    +0.010 C 
ENDBRANCH  16  20
ENDBRANCH   6  12
BRANCH   9  23
ATOM     23  C   UNL     1       9.955  -0.298  23.650  0.00  0.00    +0.034 A 
ATOM     24  C   UNL     1       9.504  -1.131  24.685  0.00  0.00    +0.023 A 
ATOM     25  C   UNL     1       8.806  -2.320  24.418  0.00  0.00    +0.006 A 
ATOM     26  C   UNL     1       8.512  -2.692  23.101  0.00  0.00    -0.034 A 
ATOM     27  C   UNL     1       8.932  -1.856  22.065  0.00  0.00    +0.006 A 
ATOM     28  C   UNL     1       9.630  -0.675  22.341  0.00  0.00    +0.023 A 
BRANCH  26  29
ATOM     29  C   UNL     1       7.782  -3.977  22.793  0.00  0.00    +0.153 C 
BRANCH  29  30
ATOM     30  C   UNL     1       6.537  -3.759  22.036  0.00  0.00    +0.067 C 
ATOM     31  N   UNL     1       5.567  -3.563  21.429  0.00  0.00    -0.196 NA
ENDBRANCH  29  30
ENDBRANCH  26  29
ENDBRANCH   9  23
TORSDOF 5
ENDMDL
MODEL 2
REMARK VINA RESULT:      -6.3      2.159      2.950
REMARK  Name = 
REMARK  6 active torsions:
REMARK  status: ('A' for Active; 'I' for Inactive)
REMARK    1  A    between atoms: C_1  and  N_2
REMARK    2  A    between atoms: N_6  and  C_7
REMARK    3  A    between atoms: C_10  and  C_11
REMARK    4  A    between atoms: C_11  and  C_12
REMARK    5  A    between atoms: C_17  and  N_18
REMARK    6  A    between atoms: C_22  and  C_24
REMARK                            x       y       z     vdW  Elec       q    Type
REMARK                         _______ _______ _______ _____ _____    ______ ____
ROOT
ATOM      1  C   UNL     1      12.905   5.285  22.879  0.00  0.00    +0.127 C 
ATOM      2  N   UNL     1      11.518   5.579  23.164  0.00  0.00    -0.332 N 
ATOM      3  H   UNL     1      11.058   6.109  22.429  0.00  0.00    +0.147 HD
ATOM      4  C   UNL     1      10.708   4.494  23.540  0.00  0.00    +0.125 A 
ATOM      5  C   UNL     1       9.418   4.798  23.919  0.00  0.00    +0.087 A 
ATOM      6  C   UNL     1       8.649   3.774  24.402  0.00  0.00    +0.131 A 
ATOM      7  N   UNL     1       9.101   2.515  24.421  0.00  0.00    -0.199 NA
ATOM      8  C   UNL     1      10.333   2.269  23.959  0.00  0.00    +0.223 A 
ATOM      9  N   UNL     1      10.782   0.948  23.826  0.00  0.00    -0.284 N 
ATOM     10  H   UNL     1      11.717   0.974  23.443  0.00  0.00    +0.155 HD
ATOM     11  N   UNL     1      11.180   3.235  23.573  0.00  0.00    -0.199 NA
ENDROOT
BRANCH   6  12
ATOM     12  N   UNL     1       7.364   3.937  24.909  0.00  0.00    -0.283 N 
ATOM     13  H   UNL     1       6.717   3.676  24.175  0.00  0.00    +0.155 HD
ATOM     14  C   UNL     1       6.896   4.157  26.153  0.00  0.00    +0.146 A 
ATOM     15  C   UNL     1       5.517   4.010  26.411  0.00  0.00    +0.068 A 
ATOM     16  C   UNL     1       5.373   4.180  27.766  0.00  0.00    +0.041 A 
ATOM     17  N   UNL     1       6.610   4.513  28.227  0.00  0.00    -0.280 N 
ATOM     18  H   UNL     1       6.893   4.749  29.173  0.00  0.00    +0.189 HD
ATOM     19  N   UNL     1       7.559   4.491  27.266  0.00  0.00    -0.158 NA
BRANCH  16  20
ATOM     20  C   UNL     1       4.059   4.001  28.479  0.00  0.00    +0.037 C 
ATOM     21  C   UNL     1       4.024   3.926  29.984  0.00  0.00    +0.010 C 
ATOM     22  C   UNL     1       3.735   2.704  29.181  0.00  0.00    +0.010 C 
ENDBRANCH  16  20
ENDBRANCH   6  12
BRANCH   9  23
ATOM     23  C   UNL     1      10.058  -0.230  23.552  0.00  0.00    +0.034 A 
ATOM     24  C   UNL     1       9.617  -1.027  24.619  0.00  0.00    +0.023 A 
ATOM     25  C   UNL     1       8.878  -2.201  24.400  0.00  0.00    +0.006 A 
ATOM     26  C   UNL     1       8.532  -2.593  23.101  0.00  0.00    -0.034 A 
ATOM     27  C   UNL     1       8.941  -1.790  22.034  0.00  0.00    +0.006 A 
ATOM     28  C   UNL     1       9.680  -0.624  22.263  0.00  0.00    +0.023 A 
BRANCH  26  29
ATOM     29  C   UNL     1       7.756  -3.862  22.844  0.00  0.00    +0.153 C 
BRANCH  29  30
ATOM     30  C   UNL     1       6.507  -3.628  22.099  0.00  0.00    +0.067 C 
ATOM     31  N   UNL     1       5.539  -3.444  21.487  0.00  0.00    -0.196 NA
ENDBRANCH  29  30
ENDBRANCH  26  29
ENDBRANCH   9  23
TORSDOF 5
ENDMDL
MODEL 3
REMARK VINA RESULT:      -6.2      1.885      2.137
REMARK  Name = 
REMARK  6 active torsions:
REMARK  status: ('A' for Active; 'I' for Inactive)
REMARK    1  A    between atoms: C_1  and  N_2
REMARK    2  A    between atoms: N_6  and  C_7
REMARK    3  A    between atoms: C_10  and  C_11
REMARK    4  A    between atoms: C_11  and  C_12
REMARK    5  A    between atoms: C_17  and  N_18
REMARK    6  A    between atoms: C_22  and  C_24
REMARK                            x       y       z     vdW  Elec       q    Type
REMARK                         _______ _______ _______ _____ _____    ______ ____
ROOT
ATOM      1  C   UNL     1      11.871   4.755  23.250  0.00  0.00    +0.127 C 
ATOM      2  N   UNL     1      10.433   4.861  23.148  0.00  0.00    -0.332 N 
ATOM      3  H   UNL     1      10.108   5.066  22.207  0.00  0.00    +0.147 HD
ATOM      4  C   UNL     1       9.684   3.800  23.685  0.00  0.00    +0.125 A 
ATOM      5  C   UNL     1       8.315   3.959  23.686  0.00  0.00    +0.087 A 
ATOM      6  C   UNL     1       7.572   2.994  24.310  0.00  0.00    +0.131 A 
ATOM      7  N   UNL     1       8.145   1.897  24.819  0.00  0.00    -0.199 NA
ATOM      8  C   UNL     1       9.472   1.758  24.712  0.00  0.00    +0.223 A 
ATOM      9  N   UNL     1      10.086   0.559  25.099  0.00  0.00    -0.284 N 
ATOM     10  H   UNL     1      11.077   0.645  24.919  0.00  0.00    +0.155 HD
ATOM     11  N   UNL     1      10.273   2.711  24.211  0.00  0.00    -0.199 NA
ENDROOT
BRANCH   6  12
ATOM     12  N   UNL     1       6.192   3.058  24.476  0.00  0.00    -0.283 N 
ATOM     13  H   UNL     1       6.013   3.125  25.471  0.00  0.00    +0.155 HD
ATOM     14  C   UNL     1       5.177   3.243  23.611  0.00  0.00    +0.146 A 
ATOM     15  C   UNL     1       3.887   3.534  24.104  0.00  0.00    +0.068 A 
ATOM     16  C   UNL     1       3.114   3.781  22.998  0.00  0.00    +0.041 A 
ATOM     17  N   UNL     1       3.916   3.533  21.926  0.00  0.00    -0.280 N 
ATOM     18  H   UNL     1       3.686   3.573  20.938  0.00  0.00    +0.189 HD
ATOM     19  N   UNL     1       5.183   3.218  22.273  0.00  0.00    -0.158 NA
BRANCH  16  20
ATOM     20  C   UNL     1       1.680   4.234  23.085  0.00  0.00    +0.037 C 
ATOM     21  C   UNL     1       1.180   5.327  22.176  0.00  0.00    +0.010 C 
ATOM     22  C   UNL     1       1.336   5.597  23.634  0.00  0.00    +0.010 C 
ENDBRANCH  16  20
ENDBRANCH   6  12
BRANCH   9  23
ATOM     23  C   UNL     1       9.587  -0.759  25.079  0.00  0.00    +0.034 A 
ATOM     24  C   UNL     1       8.786  -1.205  26.142  0.00  0.00    +0.023 A 
ATOM     25  C   UNL     1       8.252  -2.503  26.162  0.00  0.00    +0.006 A 
ATOM     26  C   UNL     1       8.481  -3.384  25.098  0.00  0.00    -0.034 A 
ATOM     27  C   UNL     1       9.253  -2.940  24.023  0.00  0.00    +0.006 A 
ATOM     28  C   UNL     1       9.783  -1.645  24.013  0.00  0.00    +0.023 A 
BRANCH  26  29
ATOM     29  C   UNL     1       7.933  -4.791  25.112  0.00  0.00    +0.153 C 
BRANCH  29  30
ATOM     30  C   UNL     1       7.668  -5.287  26.473  0.00  0.00    +0.067 C 
ATOM     31  N   UNL     1       7.483  -5.666  27.555  0.00  0.00    -0.196 NA
ENDBRANCH  29  30
ENDBRANCH  26  29
ENDBRANCH   9  23
TORSDOF 5
ENDMDL
MODEL 4
REMARK VINA RESULT:      -5.9      2.154      7.788
REMARK  Name = 
REMARK  6 active torsions:
REMARK  status: ('A' for Active; 'I' for Inactive)
REMARK    1  A    between atoms: C_1  and  N_2
REMARK    2  A    between atoms: N_6  and  C_7
REMARK    3  A    between atoms: C_10  and  C_11
REMARK    4  A    between atoms: C_11  and  C_12
REMARK    5  A    between atoms: C_17  and  N_18
REMARK    6  A    between atoms: C_22  and  C_24
REMARK                            x       y       z     vdW  Elec       q    Type
REMARK                         _______ _______ _______ _____ _____    ______ ____
ROOT
ATOM      1  C   UNL     1       2.143   6.337  21.624  0.00  0.00    +0.127 C 
ATOM      2  N   UNL     1       2.596   4.964  21.574  0.00  0.00    -0.332 N 
ATOM      3  H   UNL     1       2.669   4.597  20.629  0.00  0.00    +0.147 HD
ATOM      4  C   UNL     1       3.767   4.661  22.289  0.00  0.00    +0.125 A 
ATOM      5  C   UNL     1       4.131   3.333  22.330  0.00  0.00    +0.087 A 
ATOM      6  C   UNL     1       5.199   2.999  23.117  0.00  0.00    +0.131 A 
ATOM      7  N   UNL     1       5.916   3.936  23.749  0.00  0.00    -0.199 NA
ATOM      8  C   UNL     1       5.566   5.219  23.602  0.00  0.00    +0.223 A 
ATOM      9  N   UNL     1       6.379   6.233  24.126  0.00  0.00    -0.284 N 
ATOM     10  H   UNL     1       5.958   7.122  23.891  0.00  0.00    +0.155 HD
ATOM     11  N   UNL     1       4.469   5.610  22.936  0.00  0.00    -0.199 NA
ENDROOT
BRANCH   6  12
ATOM     12  N   UNL     1       5.629   1.694  23.335  0.00  0.00    -0.283 N 
ATOM     13  H   UNL     1       4.802   1.129  23.490  0.00  0.00    +0.155 HD
ATOM     14  C   UNL     1       6.821   1.088  23.178  0.00  0.00    +0.146 A 
ATOM     15  C   UNL     1       6.896  -0.320  23.223  0.00  0.00    +0.068 A 
ATOM     16  C   UNL     1       8.198  -0.632  22.916  0.00  0.00    +0.041 A 
ATOM     17  N   UNL     1       8.846   0.560  22.809  0.00  0.00    -0.280 N 
ATOM     18  H   UNL     1       9.828   0.734  22.626  0.00  0.00    +0.189 HD
ATOM     19  N   UNL     1       8.026   1.624  22.949  0.00  0.00    -0.158 NA
BRANCH  16  20
ATOM     20  C   UNL     1       8.684  -2.049  22.754  0.00  0.00    +0.037 C 
ATOM     21  C   UNL     1       8.250  -3.109  23.733  0.00  0.00    +0.010 C 
ATOM     22  C   UNL     1       9.666  -2.642  23.735  0.00  0.00    +0.010 C 
ENDBRANCH  16  20
ENDBRANCH   6  12
BRANCH   9  23
ATOM     23  C   UNL     1       7.775   6.265  24.315  0.00  0.00    +0.034 A 
ATOM     24  C   UNL     1       8.621   5.998  23.227  0.00  0.00    +0.023 A 
ATOM     25  C   UNL     1      10.018   6.034  23.360  0.00  0.00    +0.006 A 
ATOM     26  C   UNL     1      10.609   6.370  24.584  0.00  0.00    -0.034 A 
ATOM     27  C   UNL     1       9.776   6.665  25.665  0.00  0.00    +0.006 A 
ATOM     28  C   UNL     1       8.385   6.624  25.523  0.00  0.00    +0.023 A 
BRANCH  26  29
ATOM     29  C   UNL     1      12.109   6.392  24.751  0.00  0.00    +0.153 C 
BRANCH  29  30
ATOM     30  C   UNL     1      12.818   5.733  23.641  0.00  0.00    +0.067 C 
ATOM     31  N   UNL     1      13.366   5.233  22.748  0.00  0.00    -0.196 NA
ENDBRANCH  29  30
ENDBRANCH  26  29
ENDBRANCH   9  23
TORSDOF 5
ENDMDL
MODEL 5
REMARK VINA RESULT:      -5.7      3.489      7.016
REMARK  Name = 
REMARK  6 active torsions:
REMARK  status: ('A' for Active; 'I' for Inactive)
REMARK    1  A    between atoms: C_1  and  N_2
REMARK    2  A    between atoms: N_6  and  C_7
REMARK    3  A    between atoms: C_10  and  C_11
REMARK    4  A    between atoms: C_11  and  C_12
REMARK    5  A    between atoms: C_17  and  N_18
REMARK    6  A    between atoms: C_22  and  C_24
REMARK                            x       y       z     vdW  Elec       q    Type
REMARK                         _______ _______ _______ _____ _____    ______ ____
ROOT
ATOM      1  C   UNL     1       7.195  -6.040  22.091  0.00  0.00    +0.127 C 
ATOM      2  N   UNL     1       6.501  -5.459  23.218  0.00  0.00    -0.332 N 
ATOM      3  H   UNL     1       6.688  -5.933  24.098  0.00  0.00    +0.147 HD
ATOM      4  C   UNL     1       6.636  -4.071  23.393  0.00  0.00    +0.125 A 
ATOM      5  C   UNL     1       5.883  -3.505  24.399  0.00  0.00    +0.087 A 
ATOM      6  C   UNL     1       5.908  -2.142  24.512  0.00  0.00    +0.131 A 
ATOM      7  N   UNL     1       6.701  -1.396  23.734  0.00  0.00    -0.199 NA
ATOM      8  C   UNL     1       7.475  -2.009  22.831  0.00  0.00    +0.223 A 
ATOM      9  N   UNL     1       8.424  -1.276  22.106  0.00  0.00    -0.284 N 
ATOM     10  H   UNL     1       8.917  -1.918  21.500  0.00  0.00    +0.155 HD
ATOM     11  N   UNL     1       7.423  -3.328  22.593  0.00  0.00    -0.199 NA
ENDROOT
BRANCH   6  12
ATOM     12  N   UNL     1       5.133  -1.420  25.413  0.00  0.00    -0.283 N 
ATOM     13  H   UNL     1       4.170  -1.703  25.273  0.00  0.00    +0.155 HD
ATOM     14  C   UNL     1       5.445  -0.649  26.472  0.00  0.00    +0.146 A 
ATOM     15  C   UNL     1       4.430  -0.257  27.370  0.00  0.00    +0.068 A 
ATOM     16  C   UNL     1       5.070   0.407  28.387  0.00  0.00    +0.041 A 
ATOM     17  N   UNL     1       6.378   0.474  28.015  0.00  0.00    -0.280 N 
ATOM     18  H   UNL     1       7.152   0.921  28.495  0.00  0.00    +0.189 HD
ATOM     19  N   UNL     1       6.635  -0.176  26.859  0.00  0.00    -0.158 NA
BRANCH  16  20
ATOM     20  C   UNL     1       4.356   0.907  29.615  0.00  0.00    +0.037 C 
ATOM     21  C   UNL     1       3.050   1.647  29.477  0.00  0.00    +0.010 C 
ATOM     22  C   UNL     1       4.271   2.386  29.907  0.00  0.00    +0.010 C 
ENDBRANCH  16  20
ENDBRANCH   6  12
BRANCH   9  23
ATOM     23  C   UNL     1       9.148  -0.124  22.471  0.00  0.00    +0.034 A 
ATOM     24  C   UNL     1       9.143   0.990  21.616  0.00  0.00    +0.023 A 
ATOM     25  C   UNL     1       9.835   2.167  21.943  0.00  0.00    +0.006 A 
ATOM     26  C   UNL     1      10.529   2.273  23.154  0.00  0.00    -0.034 A 
ATOM     27  C   UNL     1      10.517   1.181  24.024  0.00  0.00    +0.006 A 
ATOM     28  C   UNL     1       9.827   0.011  23.689  0.00  0.00    +0.023 A 
BRANCH  26  29
ATOM     29  C   UNL     1      11.297   3.522  23.512  0.00  0.00    +0.153 C 
BRANCH  29  30
ATOM     30  C   UNL     1      10.419   4.668  23.804  0.00  0.00    +0.067 C 
ATOM     31  N   UNL     1       9.718   5.558  24.058  0.00  0.00    -0.196 NA
ENDBRANCH  29  30
ENDBRANCH  26  29
ENDBRANCH   9  23
TORSDOF 5
ENDMDL
MODEL 6
REMARK VINA RESULT:      -5.7      3.482      6.642
REMARK  Name = 
REMARK  6 active torsions:
REMARK  status: ('A' for Active; 'I' for Inactive)
REMARK    1  A    between atoms: C_1  and  N_2
REMARK    2  A    between atoms: N_6  and  C_7
REMARK    3  A    between atoms: C_10  and  C_11
REMARK    4  A    between atoms: C_11  and  C_12
REMARK    5  A    between atoms: C_17  and  N_18
REMARK    6  A    between atoms: C_22  and  C_24
REMARK                            x       y       z     vdW  Elec       q    Type
REMARK                         _______ _______ _______ _____ _____    ______ ____
ROOT
ATOM      1  C   UNL     1      11.023   5.063  23.357  0.00  0.00    +0.127 C 
ATOM      2  N   UNL     1      11.304   3.644  23.360  0.00  0.00    -0.332 N 
ATOM      3  H   UNL     1      12.213   3.413  23.752  0.00  0.00    +0.147 HD
ATOM      4  C   UNL     1      10.323   2.809  23.921  0.00  0.00    +0.125 A 
ATOM      5  C   UNL     1      10.544   1.453  23.820  0.00  0.00    +0.087 A 
ATOM      6  C   UNL     1       9.548   0.621  24.252  0.00  0.00    +0.131 A 
ATOM      7  N   UNL     1       8.443   1.103  24.832  0.00  0.00    -0.199 NA
ATOM      8  C   UNL     1       8.322   2.427  24.981  0.00  0.00    +0.223 A 
ATOM      9  N   UNL     1       7.252   2.957  25.714  0.00  0.00    -0.284 N 
ATOM     10  H   UNL     1       7.353   3.963  25.729  0.00  0.00    +0.155 HD
ATOM     11  N   UNL     1       9.207   3.306  24.485  0.00  0.00    -0.199 NA
ENDROOT
BRANCH   6  12
ATOM     12  N   UNL     1       9.583  -0.765  24.131  0.00  0.00    -0.283 N 
ATOM     13  H   UNL     1      10.235  -1.110  24.826  0.00  0.00    +0.155 HD
ATOM     14  C   UNL     1       8.812  -1.641  23.458  0.00  0.00    +0.146 A 
ATOM     15  C   UNL     1       8.921  -3.020  23.738  0.00  0.00    +0.068 A 
ATOM     16  C   UNL     1       7.942  -3.628  22.992  0.00  0.00    +0.041 A 
ATOM     17  N   UNL     1       7.381  -2.637  22.245  0.00  0.00    -0.280 N 
ATOM     18  H   UNL     1       6.647  -2.706  21.547  0.00  0.00    +0.189 HD
ATOM     19  N   UNL     1       7.883  -1.414  22.522  0.00  0.00    -0.158 NA
BRANCH  16  20
ATOM     20  C   UNL     1       7.644  -5.102  23.076  0.00  0.00    +0.037 C 
ATOM     21  C   UNL     1       7.143  -5.839  21.861  0.00  0.00    +0.010 C 
ATOM     22  C   UNL     1       6.223  -5.605  23.010  0.00  0.00    +0.010 C 
ENDBRANCH  16  20
ENDBRANCH   6  12
BRANCH   9  23
ATOM     23  C   UNL     1       6.545   2.411  26.804  0.00  0.00    +0.034 A 
ATOM     24  C   UNL     1       5.441   1.580  26.558  0.00  0.00    +0.023 A 
ATOM     25  C   UNL     1       4.714   0.998  27.609  0.00  0.00    +0.006 A 
ATOM     26  C   UNL     1       5.093   1.210  28.941  0.00  0.00    -0.034 A 
ATOM     27  C   UNL     1       6.207   2.012  29.194  0.00  0.00    +0.006 A 
ATOM     28  C   UNL     1       6.924   2.589  28.140  0.00  0.00    +0.023 A 
BRANCH  26  29
ATOM     29  C   UNL     1       4.311   0.611  30.084  0.00  0.00    +0.153 C 
BRANCH  29  30
ATOM     30  C   UNL     1       4.006  -0.817  29.882  0.00  0.00    +0.067 C 
ATOM     31  N   UNL     1       3.794  -1.946  29.722  0.00  0.00    -0.196 NA
ENDBRANCH  29  30
ENDBRANCH  26  29
ENDBRANCH   9  23
TORSDOF 5
ENDMDL
MODEL 7
REMARK VINA RESULT:      -5.6      2.714      2.961
REMARK  Name = 
REMARK  6 active torsions:
REMARK  status: ('A' for Active; 'I' for Inactive)
REMARK    1  A    between atoms: C_1  and  N_2
REMARK    2  A    between atoms: N_6  and  C_7
REMARK    3  A    between atoms: C_10  and  C_11
REMARK    4  A    between atoms: C_11  and  C_12
REMARK    5  A    between atoms: C_17  and  N_18
REMARK    6  A    between atoms: C_22  and  C_24
REMARK                            x       y       z     vdW  Elec       q    Type
REMARK                         _______ _______ _______ _____ _____    ______ ____
ROOT
ATOM      1  C   UNL     1      11.533   4.099  22.783  0.00  0.00    +0.127 C 
ATOM      2  N   UNL     1      10.317   4.222  23.556  0.00  0.00    -0.332 N 
ATOM      3  H   UNL     1       9.610   4.799  23.108  0.00  0.00    +0.147 HD
ATOM      4  C   UNL     1       9.734   3.026  24.007  0.00  0.00    +0.125 A 
ATOM      5  C   UNL     1       8.640   3.154  24.835  0.00  0.00    +0.087 A 
ATOM      6  C   UNL     1       8.129   2.008  25.381  0.00  0.00    +0.131 A 
ATOM      7  N   UNL     1       8.615   0.805  25.052  0.00  0.00    -0.199 NA
ATOM      8  C   UNL     1       9.623   0.739  24.175  0.00  0.00    +0.223 A 
ATOM      9  N   UNL     1      10.056  -0.504  23.696  0.00  0.00    -0.284 N 
ATOM     10  H   UNL     1      10.801  -0.341  23.033  0.00  0.00    +0.155 HD
ATOM     11  N   UNL     1      10.243   1.823  23.684  0.00  0.00    -0.199 NA
ENDROOT
BRANCH   6  12
ATOM     12  N   UNL     1       7.090   1.982  26.306  0.00  0.00    -0.283 N 
ATOM     13  H   UNL     1       7.150   2.836  26.848  0.00  0.00    +0.155 HD
ATOM     14  C   UNL     1       6.009   1.191  26.440  0.00  0.00    +0.146 A 
ATOM     15  C   UNL     1       4.976   1.570  27.324  0.00  0.00    +0.068 A 
ATOM     16  C   UNL     1       3.980   0.641  27.151  0.00  0.00    +0.041 A 
ATOM     17  N   UNL     1       4.483  -0.279  26.283  0.00  0.00    -0.280 N 
ATOM     18  H   UNL     1       4.052  -1.132  25.943  0.00  0.00    +0.189 HD
ATOM     19  N   UNL     1       5.712   0.041  25.823  0.00  0.00    -0.158 NA
BRANCH  16  20
ATOM     20  C   UNL     1       2.643   0.736  27.839  0.00  0.00    +0.037 C 
ATOM     21  C   UNL     1       1.460  -0.019  27.290  0.00  0.00    +0.010 C 
ATOM     22  C   UNL     1       1.494   1.467  27.189  0.00  0.00    +0.010 C 
ENDBRANCH  16  20
ENDBRANCH   6  12
BRANCH   9  23
ATOM     23  C   UNL     1       9.334  -1.699  23.499  0.00  0.00    +0.034 A 
ATOM     24  C   UNL     1       9.549  -2.781  24.367  0.00  0.00    +0.023 A 
ATOM     25  C   UNL     1       8.843  -3.986  24.223  0.00  0.00    +0.006 A 
ATOM     26  C   UNL     1       7.875  -4.130  23.221  0.00  0.00    -0.034 A 
ATOM     27  C   UNL     1       7.634  -3.049  22.371  0.00  0.00    +0.006 A 
ATOM     28  C   UNL     1       8.345  -1.853  22.520  0.00  0.00    +0.023 A 
BRANCH  26  29
ATOM     29  C   UNL     1       7.122  -5.425  23.038  0.00  0.00    +0.153 C 
BRANCH  29  30
ATOM     30  C   UNL     1       6.498  -5.540  21.708  0.00  0.00    +0.067 C 
ATOM     31  N   UNL     1       6.003  -5.602  20.660  0.00  0.00    -0.196 NA
ENDBRANCH  29  30
ENDBRANCH  26  29
ENDBRANCH   9  23
TORSDOF 5
ENDMDL
MODEL 8
REMARK VINA RESULT:      -5.5      2.117      6.827
REMARK  Name = 
REMARK  6 active torsions:
REMARK  status: ('A' for Active; 'I' for Inactive)
REMARK    1  A    between atoms: C_1  and  N_2
REMARK    2  A    between atoms: N_6  and  C_7
REMARK    3  A    between atoms: C_10  and  C_11
REMARK    4  A    between atoms: C_11  and  C_12
REMARK    5  A    between atoms: C_17  and  N_18
REMARK    6  A    between atoms: C_22  and  C_24
REMARK                            x       y       z     vdW  Elec       q    Type
REMARK                         _______ _______ _______ _____ _____    ______ ____
ROOT
ATOM      1  C   UNL     1      11.546   4.584  23.473  0.00  0.00    +0.127 C 
ATOM      2  N   UNL     1      11.328   3.159  23.362  0.00  0.00    -0.332 N 
ATOM      3  H   UNL     1      11.721   2.628  24.134  0.00  0.00    +0.147 HD
ATOM      4  C   UNL     1      10.007   2.741  23.126  0.00  0.00    +0.125 A 
ATOM      5  C   UNL     1       9.823   1.392  22.909  0.00  0.00    +0.087 A 
ATOM      6  C   UNL     1       8.566   0.979  22.561  0.00  0.00    +0.131 A 
ATOM      7  N   UNL     1       7.539   1.836  22.521  0.00  0.00    -0.199 NA
ATOM      8  C   UNL     1       7.763   3.120  22.825  0.00  0.00    +0.223 A 
ATOM      9  N   UNL     1       6.688   4.012  22.938  0.00  0.00    -0.284 N 
ATOM     10  H   UNL     1       7.060   4.916  23.195  0.00  0.00    +0.155 HD
ATOM     11  N   UNL     1       8.986   3.615  23.070  0.00  0.00    -0.199 NA
ENDROOT
BRANCH   6  12
ATOM     12  N   UNL     1       8.243  -0.331  22.220  0.00  0.00    -0.283 N 
ATOM     13  H   UNL     1       8.511  -0.462  21.252  0.00  0.00    +0.155 HD
ATOM     14  C   UNL     1       7.871  -1.398  22.952  0.00  0.00    +0.146 A 
ATOM     15  C   UNL     1       7.869  -2.679  22.360  0.00  0.00    +0.068 A 
ATOM     16  C   UNL     1       7.565  -3.555  23.373  0.00  0.00    +0.041 A 
ATOM     17  N   UNL     1       7.304  -2.781  24.462  0.00  0.00    -0.280 N 
ATOM     18  H   UNL     1       7.010  -3.068  25.389  0.00  0.00    +0.189 HD
ATOM     19  N   UNL     1       7.498  -1.463  24.235  0.00  0.00    -0.158 NA
BRANCH  16  20
ATOM     20  C   UNL     1       7.559  -5.050  23.189  0.00  0.00    +0.037 C 
ATOM     21  C   UNL     1       7.184  -5.642  21.855  0.00  0.00    +0.010 C 
ATOM     22  C   UNL     1       6.261  -5.799  23.015  0.00  0.00    +0.010 C 
ENDBRANCH  16  20
ENDBRANCH   6  12
BRANCH   9  23
ATOM     23  C   UNL     1       5.357   3.778  23.339  0.00  0.00    +0.034 A 
ATOM     24  C   UNL     1       5.024   3.875  24.699  0.00  0.00    +0.023 A 
ATOM     25  C   UNL     1       3.709   3.668  25.147  0.00  0.00    +0.006 A 
ATOM     26  C   UNL     1       2.682   3.388  24.237  0.00  0.00    -0.034 A 
ATOM     27  C   UNL     1       2.999   3.317  22.879  0.00  0.00    +0.006 A 
ATOM     28  C   UNL     1       4.312   3.522  22.443  0.00  0.00    +0.023 A 
BRANCH  26  29
ATOM     29  C   UNL     1       1.268   3.141  24.702  0.00  0.00    +0.153 C 
BRANCH  29  30
ATOM     30  C   UNL     1       1.205   2.494  26.024  0.00  0.00    +0.067 C 
ATOM     31  N   UNL     1       1.185   1.988  27.069  0.00  0.00    -0.196 NA
ENDBRANCH  29  30
ENDBRANCH  26  29
ENDBRANCH   9  23
TORSDOF 5
ENDMDL
MODEL 9
REMARK VINA RESULT:      -5.4      2.907      6.939
REMARK  Name = 
REMARK  6 active torsions:
REMARK  status: ('A' for Active; 'I' for Inactive)
REMARK    1  A    between atoms: C_1  and  N_2
REMARK    2  A    between atoms: N_6  and  C_7
REMARK    3  A    between atoms: C_10  and  C_11
REMARK    4  A    between atoms: C_11  and  C_12
REMARK    5  A    between atoms: C_17  and  N_18
REMARK    6  A    between atoms: C_22  and  C_24
REMARK                            x       y       z     vdW  Elec       q    Type
REMARK                         _______ _______ _______ _____ _____    ______ ____
ROOT
ATOM      1  C   UNL     1      12.000   5.612  23.276  0.00  0.00    +0.127 C 
ATOM      2  N   UNL     1      11.911   4.172  23.178  0.00  0.00    -0.332 N 
ATOM      3  H   UNL     1      12.681   3.687  23.631  0.00  0.00    +0.147 HD
ATOM      4  C   UNL     1      10.692   3.589  23.568  0.00  0.00    +0.125 A 
ATOM      5  C   UNL     1      10.573   2.231  23.366  0.00  0.00    +0.087 A 
ATOM      6  C   UNL     1       9.357   1.663  23.627  0.00  0.00    +0.131 A 
ATOM      7  N   UNL     1       8.351   2.380  24.142  0.00  0.00    -0.199 NA
ATOM      8  C   UNL     1       8.553   3.678  24.396  0.00  0.00    +0.223 A 
ATOM      9  N   UNL     1       7.576   4.422  25.070  0.00  0.00    -0.284 N 
ATOM     10  H   UNL     1       7.925   5.364  25.185  0.00  0.00    +0.155 HD
ATOM     11  N   UNL     1       9.682   4.324  24.066  0.00  0.00    -0.199 NA
ENDROOT
BRANCH   6  12
ATOM     12  N   UNL     1       9.053   0.327  23.386  0.00  0.00    -0.283 N 
ATOM     13  H   UNL     1       9.171   0.167  22.392  0.00  0.00    +0.155 HD
ATOM     14  C   UNL     1       8.857  -0.726  24.203  0.00  0.00    +0.146 A 
ATOM     15  C   UNL     1       8.829  -2.029  23.663  0.00  0.00    +0.068 A 
ATOM     16  C   UNL     1       8.735  -2.875  24.740  0.00  0.00    +0.041 A 
ATOM     17  N   UNL     1       8.609  -2.069  25.830  0.00  0.00    -0.280 N 
ATOM     18  H   UNL     1       8.480  -2.332  26.802  0.00  0.00    +0.189 HD
ATOM     19  N   UNL     1       8.695  -0.755  25.531  0.00  0.00    -0.158 NA
BRANCH  16  20
ATOM     20  C   UNL     1       8.779  -4.375  24.609  0.00  0.00    +0.037 C 
ATOM     21  C   UNL     1       8.258  -5.243  25.727  0.00  0.00    +0.010 C 
ATOM     22  C   UNL     1       9.723  -5.194  25.456  0.00  0.00    +0.010 C 
ENDBRANCH  16  20
ENDBRANCH   6  12
BRANCH   9  23
ATOM     23  C   UNL     1       6.635   4.013  26.036  0.00  0.00    +0.034 A 
ATOM     24  C   UNL     1       7.067   3.745  27.344  0.00  0.00    +0.023 A 
ATOM     25  C   UNL     1       6.166   3.351  28.347  0.00  0.00    +0.006 A 
ATOM     26  C   UNL     1       4.797   3.244  28.073  0.00  0.00    -0.034 A 
ATOM     27  C   UNL     1       4.354   3.536  26.782  0.00  0.00    +0.006 A 
ATOM     28  C   UNL     1       5.259   3.925  25.789  0.00  0.00    +0.023 A 
BRANCH  26  29
ATOM     29  C   UNL     1       3.817   2.801  29.132  0.00  0.00    +0.153 C 
BRANCH  29  30
ATOM     30  C   UNL     1       3.911   1.361  29.431  0.00  0.00    +0.067 C 
ATOM     31  N   UNL     1       3.994   0.222  29.639  0.00  0.00    -0.196 NA
ENDBRANCH  29  30
ENDBRANCH  26  29
ENDBRANCH   9  23
TORSDOF 5
ENDMDL
