MODEL 1
REMARK VINA RESULT:      -7.0      0.000      0.000
REMARK  Name = 
REMARK  5 active torsions:
REMARK  status: ('A' for Active; 'I' for Inactive)
REMARK    1  A    between atoms: C_2  and  C_3
REMARK    2  A    between atoms: C_2  and  C_5
REMARK    3  A    between atoms: C_2  and  C_11
REMARK    4  A    between atoms: C_3  and  C_4
REMARK    5  A    between atoms: C_12  and  O_13
REMARK                            x       y       z     vdW  Elec       q    Type
REMARK                         _______ _______ _______ _____ _____    ______ ____
ROOT
ATOM      1  C   UNL     1       8.162  -2.961  24.601  0.00  0.00    +0.086 A 
ATOM      2  C   UNL     1       9.619  -2.979  24.283  0.00  0.00    +0.344 A 
ATOM      3  O   UNL     1      10.295  -3.989  24.444  0.00  0.00    -0.245 OA
ATOM      4  O   UNL     1      10.174  -1.832  23.781  0.00  0.00    -0.427 OA
ATOM      5  C   UNL     1       9.430  -0.638  23.661  0.00  0.00    +0.116 A 
ATOM      6  C   UNL     1      10.174   0.507  23.031  0.00  0.00    +0.075 C 
ATOM      7  C   UNL     1       9.564   0.949  21.693  0.00  0.00    +0.008 C 
ATOM      8  C   UNL     1       8.254   1.739  21.787  0.00  0.00    +0.001 C 
ATOM      9  C   UNL     1       7.082   1.011  22.445  0.00  0.00    +0.005 C 
ATOM     10  C   UNL     1       7.346   0.689  23.913  0.00  0.00    +0.042 C 
ATOM     11  C   UNL     1       8.148  -0.579  24.044  0.00  0.00    +0.033 A 
ATOM     12  C   UNL     1       7.503  -1.794  24.480  0.00  0.00    +0.134 A 
ENDROOT
BRANCH  12  13
ATOM     13  O   UNL     1       6.152  -1.650  24.706  0.00  0.00    -0.506 OA
ATOM     14  H   UNL     1       5.886  -2.236  25.433  0.00  0.00    +0.292 HD
ENDBRANCH  12  13
BRANCH   1  15
ATOM     15  C   UNL     1       7.552  -4.287  25.061  0.00  0.00    +0.059 C 
BRANCH  15  16
ATOM     16  C   UNL     1       6.823  -4.998  23.902  0.00  0.00    -0.040 A 
ATOM     17  C   UNL     1       5.427  -5.167  23.869  0.00  0.00    +0.004 A 
ATOM     18  C   UNL     1       4.788  -5.671  22.735  0.00  0.00    +0.000 A 
ATOM     19  C   UNL     1       5.534  -6.052  21.625  0.00  0.00    +0.000 A 
ATOM     20  C   UNL     1       6.923  -5.952  21.659  0.00  0.00    +0.000 A 
ATOM     21  C   UNL     1       7.564  -5.434  22.788  0.00  0.00    +0.004 A 
ENDBRANCH  15  16
BRANCH  15  22
ATOM     22  C   UNL     1       6.667  -4.093  26.322  0.00  0.00    +0.010 C 
ATOM     23  C   UNL     1       6.813  -5.167  27.391  0.00  0.00    +0.005 C 
ENDBRANCH  15  22
ENDBRANCH   1  15
TORSDOF 4
ENDMDL
MODEL 2
REMARK VINA RESULT:      -6.6      1.621      2.181
REMARK  Name = 
REMARK  5 active torsions:
REMARK  status: ('A' for Active; 'I' for Inactive)
REMARK    1  A    between atoms: C_2  and  C_3
REMARK    2  A    between atoms: C_2  and  C_5
REMARK    3  A    between atoms: C_2  and  C_11
REMARK    4  A    between atoms: C_3  and  C_4
REMARK    5  A    between atoms: C_12  and  O_13
REMARK                            x       y       z     vdW  Elec       q    Type
REMARK                         _______ _______ _______ _____ _____    ______ ____
ROOT
ATOM      1  C   UNL     1       6.994  -1.968  24.793  0.00  0.00    +0.086 A 
ATOM      2  C   UNL     1       8.031  -1.770  25.846  0.00  0.00    +0.344 A 
ATOM      3  O   UNL     1       8.120  -2.528  26.805  0.00  0.00    -0.245 OA
ATOM      4  O   UNL     1       8.898  -0.721  25.695  0.00  0.00    -0.427 OA
ATOM      5  C   UNL     1       8.763   0.207  24.639  0.00  0.00    +0.116 A 
ATOM      6  C   UNL     1       9.839   1.257  24.582  0.00  0.00    +0.075 C 
ATOM      7  C   UNL     1      10.695   1.166  23.311  0.00  0.00    +0.008 C 
ATOM      8  C   UNL     1      10.026   1.658  22.022  0.00  0.00    +0.001 C 
ATOM      9  C   UNL     1       8.756   0.917  21.604  0.00  0.00    +0.005 C 
ATOM     10  C   UNL     1       7.624   1.085  22.615  0.00  0.00    +0.042 C 
ATOM     11  C   UNL     1       7.770   0.102  23.746  0.00  0.00    +0.033 A 
ATOM     12  C   UNL     1       6.901  -1.047  23.816  0.00  0.00    +0.134 A 
ENDROOT
BRANCH  12  13
ATOM     13  O   UNL     1       6.014  -1.131  22.766  0.00  0.00    -0.506 OA
ATOM     14  H   UNL     1       5.396  -1.862  22.927  0.00  0.00    +0.292 HD
ENDBRANCH  12  13
BRANCH   1  15
ATOM     15  C   UNL     1       6.108  -3.207  24.938  0.00  0.00    +0.059 C 
BRANCH  15  16
ATOM     16  C   UNL     1       6.340  -4.198  23.779  0.00  0.00    -0.040 A 
ATOM     17  C   UNL     1       7.603  -4.740  23.481  0.00  0.00    +0.004 A 
ATOM     18  C   UNL     1       7.749  -5.751  22.530  0.00  0.00    +0.000 A 
ATOM     19  C   UNL     1       6.641  -6.215  21.830  0.00  0.00    +0.000 A 
ATOM     20  C   UNL     1       5.390  -5.649  22.064  0.00  0.00    +0.000 A 
ATOM     21  C   UNL     1       5.239  -4.647  23.026  0.00  0.00    +0.004 A 
ENDBRANCH  15  16
BRANCH  15  22
ATOM     22  C   UNL     1       4.617  -2.815  25.129  0.00  0.00    +0.010 C 
ATOM     23  C   UNL     1       4.326  -1.935  26.336  0.00  0.00    +0.005 C 
ENDBRANCH  15  22
ENDBRANCH   1  15
TORSDOF 4
ENDMDL
MODEL 3
REMARK VINA RESULT:      -6.5      2.174      3.146
REMARK  Name = 
REMARK  5 active torsions:
REMARK  status: ('A' for Active; 'I' for Inactive)
REMARK    1  A    between atoms: C_2  and  C_3
REMARK    2  A    between atoms: C_2  and  C_5
REMARK    3  A    between atoms: C_2  and  C_11
REMARK    4  A    between atoms: C_3  and  C_4
REMARK    5  A    between atoms: C_12  and  O_13
REMARK                            x       y       z     vdW  Elec       q    Type
REMARK                         _______ _______ _______ _____ _____    ______ ____
ROOT
ATOM      1  C   UNL     1       8.178  -2.818  24.262  0.00  0.00    +0.086 A 
ATOM      2  C   UNL     1       8.114  -2.924  22.776  0.00  0.00    +0.344 A 
ATOM      3  O   UNL     1       7.605  -3.895  22.227  0.00  0.00    -0.245 OA
ATOM      4  O   UNL     1       8.623  -1.886  22.042  0.00  0.00    -0.427 OA
ATOM      5  C   UNL     1       9.281  -0.797  22.654  0.00  0.00    +0.116 A 
ATOM      6  C   UNL     1       9.720   0.287  21.707  0.00  0.00    +0.075 C 
ATOM      7  C   UNL     1       9.007   1.623  21.959  0.00  0.00    +0.008 C 
ATOM      8  C   UNL     1       9.468   2.399  23.197  0.00  0.00    +0.001 C 
ATOM      9  C   UNL     1       9.288   1.686  24.538  0.00  0.00    +0.005 C 
ATOM     10  C   UNL     1      10.135   0.421  24.643  0.00  0.00    +0.042 C 
ATOM     11  C   UNL     1       9.441  -0.741  23.982  0.00  0.00    +0.033 A 
ATOM     12  C   UNL     1       8.827  -1.765  24.793  0.00  0.00    +0.134 A 
ENDROOT
BRANCH  12  13
ATOM     13  O   UNL     1       8.927  -1.530  26.147  0.00  0.00    -0.506 OA
ATOM     14  H   UNL     1       9.106  -2.367  26.603  0.00  0.00    +0.292 HD
ENDBRANCH  12  13
BRANCH   1  15
ATOM     15  C   UNL     1       7.509  -3.945  25.052  0.00  0.00    +0.059 C 
BRANCH  15  16
ATOM     16  C   UNL     1       6.169  -3.481  25.659  0.00  0.00    -0.040 A 
ATOM     17  C   UNL     1       5.026  -3.229  24.878  0.00  0.00    +0.004 A 
ATOM     18  C   UNL     1       3.790  -2.965  25.472  0.00  0.00    +0.000 A 
ATOM     19  C   UNL     1       3.679  -2.911  26.856  0.00  0.00    +0.000 A 
ATOM     20  C   UNL     1       4.810  -3.095  27.648  0.00  0.00    +0.000 A 
ATOM     21  C   UNL     1       6.046  -3.374  27.056  0.00  0.00    +0.004 A 
ENDBRANCH  15  16
BRANCH  15  22
ATOM     22  C   UNL     1       8.483  -4.557  26.096  0.00  0.00    +0.010 C 
ATOM     23  C   UNL     1       9.752  -5.168  25.521  0.00  0.00    +0.005 C 
ENDBRANCH  15  22
ENDBRANCH   1  15
TORSDOF 4
ENDMDL
MODEL 4
REMARK VINA RESULT:      -6.4      1.599      3.799
REMARK  Name = 
REMARK  5 active torsions:
REMARK  status: ('A' for Active; 'I' for Inactive)
REMARK    1  A    between atoms: C_2  and  C_3
REMARK    2  A    between atoms: C_2  and  C_5
REMARK    3  A    between atoms: C_2  and  C_11
REMARK    4  A    between atoms: C_3  and  C_4
REMARK    5  A    between atoms: C_12  and  O_13
REMARK                            x       y       z     vdW  Elec       q    Type
REMARK                         _______ _______ _______ _____ _____    ______ ____
ROOT
ATOM      1  C   UNL     1       6.747  -1.797  23.458  0.00  0.00    +0.086 A 
ATOM      2  C   UNL     1       5.949  -0.919  24.361  0.00  0.00    +0.344 A 
ATOM      3  O   UNL     1       5.020  -1.365  25.026  0.00  0.00    -0.245 OA
ATOM      4  O   UNL     1       6.303   0.400  24.441  0.00  0.00    -0.427 OA
ATOM      5  C   UNL     1       7.319   0.947  23.627  0.00  0.00    +0.116 A 
ATOM      6  C   UNL     1       7.627   2.396  23.890  0.00  0.00    +0.075 C 
ATOM      7  C   UNL     1       9.052   2.617  24.415  0.00  0.00    +0.008 C 
ATOM      8  C   UNL     1      10.172   2.479  23.377  0.00  0.00    +0.001 C 
ATOM      9  C   UNL     1      10.291   1.113  22.701  0.00  0.00    +0.005 C 
ATOM     10  C   UNL     1       9.061   0.767  21.865  0.00  0.00    +0.042 C 
ATOM     11  C   UNL     1       7.972   0.193  22.733  0.00  0.00    +0.033 A 
ATOM     12  C   UNL     1       7.696  -1.223  22.695  0.00  0.00    +0.134 A 
ENDROOT
BRANCH  12  13
ATOM     13  O   UNL     1       8.526  -1.924  21.848  0.00  0.00    -0.506 OA
ATOM     14  H   UNL     1       9.063  -1.298  21.337  0.00  0.00    +0.292 HD
ENDBRANCH  12  13
BRANCH   1  15
ATOM     15  C   UNL     1       6.392  -3.286  23.469  0.00  0.00    +0.059 C 
BRANCH  15  16
ATOM     16  C   UNL     1       7.252  -4.056  24.492  0.00  0.00    -0.040 A 
ATOM     17  C   UNL     1       8.621  -4.315  24.295  0.00  0.00    +0.004 A 
ATOM     18  C   UNL     1       9.402  -4.873  25.308  0.00  0.00    +0.000 A 
ATOM     19  C   UNL     1       8.824  -5.220  26.524  0.00  0.00    +0.000 A 
ATOM     20  C   UNL     1       7.458  -5.030  26.719  0.00  0.00    +0.000 A 
ATOM     21  C   UNL     1       6.677  -4.458  25.711  0.00  0.00    +0.004 A 
ENDBRANCH  15  16
BRANCH  15  22
ATOM     22  C   UNL     1       6.441  -3.888  22.039  0.00  0.00    +0.010 C 
ATOM     23  C   UNL     1       6.021  -5.347  21.933  0.00  0.00    +0.005 C 
ENDBRANCH  15  22
ENDBRANCH   1  15
TORSDOF 4
ENDMDL
MODEL 5
REMARK VINA RESULT:      -6.4      0.969      2.776
REMARK  Name = 
REMARK  5 active torsions:
REMARK  status: ('A' for Active; 'I' for Inactive)
REMARK    1  A    between atoms: C_2  and  C_3
REMARK    2  A    between atoms: C_2  and  C_5
REMARK    3  A    between atoms: C_2  and  C_11
REMARK    4  A    between atoms: C_3  and  C_4
REMARK    5  A    between atoms: C_12  and  O_13
REMARK                            x       y       z     vdW  Elec       q    Type
REMARK                         _______ _______ _______ _____ _____    ______ ____
ROOT
ATOM      1  C   UNL     1       7.631  -3.015  23.798  0.00  0.00    +0.086 A 
ATOM      2  C   UNL     1       9.092  -3.114  24.078  0.00  0.00    +0.344 A 
ATOM      3  O   UNL     1       9.623  -4.192  24.322  0.00  0.00    -0.245 OA
ATOM      4  O   UNL     1       9.828  -1.961  24.033  0.00  0.00    -0.427 OA
ATOM      5  C   UNL     1       9.222  -0.701  23.830  0.00  0.00    +0.116 A 
ATOM      6  C   UNL     1      10.183   0.453  23.741  0.00  0.00    +0.075 C 
ATOM      7  C   UNL     1      10.172   1.133  22.365  0.00  0.00    +0.008 C 
ATOM      8  C   UNL     1       8.952   2.013  22.067  0.00  0.00    +0.001 C 
ATOM      9  C   UNL     1       7.598   1.304  22.082  0.00  0.00    +0.005 C 
ATOM     10  C   UNL     1       7.243   0.753  23.461  0.00  0.00    +0.042 C 
ATOM     11  C   UNL     1       7.896  -0.585  23.684  0.00  0.00    +0.033 A 
ATOM     12  C   UNL     1       7.102  -1.789  23.624  0.00  0.00    +0.134 A 
ENDROOT
BRANCH  12  13
ATOM     13  O   UNL     1       5.778  -1.562  23.323  0.00  0.00    -0.506 OA
ATOM     14  H   UNL     1       5.685  -1.439  22.365  0.00  0.00    +0.292 HD
ENDBRANCH  12  13
BRANCH   1  15
ATOM     15  C   UNL     1       6.856  -4.334  23.756  0.00  0.00    +0.059 C 
BRANCH  15  16
ATOM     16  C   UNL     1       6.464  -4.797  25.173  0.00  0.00    -0.040 A 
ATOM     17  C   UNL     1       6.780  -4.060  26.330  0.00  0.00    +0.004 A 
ATOM     18  C   UNL     1       6.273  -4.425  27.578  0.00  0.00    +0.000 A 
ATOM     19  C   UNL     1       5.473  -5.555  27.703  0.00  0.00    +0.000 A 
ATOM     20  C   UNL     1       5.199  -6.335  26.582  0.00  0.00    +0.000 A 
ATOM     21  C   UNL     1       5.692  -5.963  25.328  0.00  0.00    +0.004 A 
ENDBRANCH  15  16
BRANCH  15  22
ATOM     22  C   UNL     1       7.623  -5.412  22.942  0.00  0.00    +0.010 C 
ATOM     23  C   UNL     1       6.865  -5.995  21.758  0.00  0.00    +0.005 C 
ENDBRANCH  15  22
ENDBRANCH   1  15
TORSDOF 4
ENDMDL
MODEL 6
REMARK VINA RESULT:      -6.3      1.539      2.665
REMARK  Name = 
REMARK  5 active torsions:
REMARK  status: ('A' for Active; 'I' for Inactive)
REMARK    1  A    between atoms: C_2  and  C_3
REMARK    2  A    between atoms: C_2  and  C_5
REMARK    3  A    between atoms: C_2  and  C_11
REMARK    4  A    between atoms: C_3  and  C_4
REMARK    5  A    between atoms: C_12  and  O_13
REMARK                            x       y       z     vdW  Elec       q    Type
REMARK                         _______ _______ _______ _____ _____    ______ ____
ROOT
ATOM      1  C   UNL     1       8.271  -2.176  23.738  0.00  0.00    +0.086 A 
ATOM      2  C   UNL     1       7.381  -1.551  24.759  0.00  0.00    +0.344 A 
ATOM      3  O   UNL     1       6.816  -2.226  25.612  0.00  0.00    -0.245 OA
ATOM      4  O   UNL     1       7.234  -0.190  24.727  0.00  0.00    -0.427 OA
ATOM      5  C   UNL     1       7.815   0.595  23.707  0.00  0.00    +0.116 A 
ATOM      6  C   UNL     1       7.610   2.078  23.860  0.00  0.00    +0.075 C 
ATOM      7  C   UNL     1       8.925   2.842  24.077  0.00  0.00    +0.008 C 
ATOM      8  C   UNL     1       9.811   3.004  22.837  0.00  0.00    +0.001 C 
ATOM      9  C   UNL     1      10.301   1.708  22.191  0.00  0.00    +0.005 C 
ATOM     10  C   UNL     1       9.155   0.866  21.634  0.00  0.00    +0.042 C 
ATOM     11  C   UNL     1       8.528   0.035  22.722  0.00  0.00    +0.033 A 
ATOM     12  C   UNL     1       8.789  -1.383  22.781  0.00  0.00    +0.134 A 
ENDROOT
BRANCH  12  13
ATOM     13  O   UNL     1       9.652  -1.826  21.804  0.00  0.00    -0.506 OA
ATOM     14  H   UNL     1       9.202  -1.802  20.945  0.00  0.00    +0.292 HD
ENDBRANCH  12  13
BRANCH   1  15
ATOM     15  C   UNL     1       8.495  -3.684  23.865  0.00  0.00    +0.059 C 
BRANCH  15  16
ATOM     16  C   UNL     1       7.318  -4.476  23.261  0.00  0.00    -0.040 A 
ATOM     17  C   UNL     1       7.133  -4.628  21.874  0.00  0.00    +0.004 A 
ATOM     18  C   UNL     1       6.151  -5.481  21.366  0.00  0.00    +0.000 A 
ATOM     19  C   UNL     1       5.310  -6.169  22.232  0.00  0.00    +0.000 A 
ATOM     20  C   UNL     1       5.433  -5.986  23.608  0.00  0.00    +0.000 A 
ATOM     21  C   UNL     1       6.425  -5.144  24.119  0.00  0.00    +0.004 A 
ENDBRANCH  15  16
BRANCH  15  22
ATOM     22  C   UNL     1       8.825  -4.084  25.329  0.00  0.00    +0.010 C 
ATOM     23  C   UNL     1       9.908  -5.141  25.487  0.00  0.00    +0.005 C 
ENDBRANCH  15  22
ENDBRANCH   1  15
TORSDOF 4
ENDMDL
MODEL 7
REMARK VINA RESULT:      -6.3      1.475      6.012
REMARK  Name = 
REMARK  5 active torsions:
REMARK  status: ('A' for Active; 'I' for Inactive)
REMARK    1  A    between atoms: C_2  and  C_3
REMARK    2  A    between atoms: C_2  and  C_5
REMARK    3  A    between atoms: C_2  and  C_11
REMARK    4  A    between atoms: C_3  and  C_4
REMARK    5  A    between atoms: C_12  and  O_13
REMARK                            x       y       z     vdW  Elec       q    Type
REMARK                         _______ _______ _______ _____ _____    ______ ____
ROOT
ATOM      1  C   UNL     1       6.952  -1.605  24.885  0.00  0.00    +0.086 A 
ATOM      2  C   UNL     1       5.466  -1.698  24.961  0.00  0.00    +0.344 A 
ATOM      3  O   UNL     1       4.785  -0.743  25.317  0.00  0.00    -0.245 OA
ATOM      4  O   UNL     1       4.883  -2.881  24.596  0.00  0.00    -0.427 OA
ATOM      5  C   UNL     1       5.653  -4.015  24.256  0.00  0.00    +0.116 A 
ATOM      6  C   UNL     1       4.855  -5.211  23.817  0.00  0.00    +0.075 C 
ATOM      7  C   UNL     1       5.120  -5.601  22.355  0.00  0.00    +0.008 C 
ATOM      8  C   UNL     1       6.462  -6.289  22.084  0.00  0.00    +0.001 C 
ATOM      9  C   UNL     1       7.711  -5.476  22.427  0.00  0.00    +0.005 C 
ATOM     10  C   UNL     1       7.821  -5.180  23.921  0.00  0.00    +0.042 C 
ATOM     11  C   UNL     1       6.992  -3.978  24.288  0.00  0.00    +0.033 A 
ATOM     12  C   UNL     1       7.639  -2.719  24.567  0.00  0.00    +0.134 A 
ENDROOT
BRANCH  12  13
ATOM     13  O   UNL     1       9.009  -2.760  24.427  0.00  0.00    -0.506 OA
ATOM     14  H   UNL     1       9.256  -2.348  23.585  0.00  0.00    +0.292 HD
ENDBRANCH  12  13
BRANCH   1  15
ATOM     15  C   UNL     1       7.565  -0.239  25.199  0.00  0.00    +0.059 C 
BRANCH  15  16
ATOM     16  C   UNL     1       8.424   0.271  24.025  0.00  0.00    -0.040 A 
ATOM     17  C   UNL     1       7.946   0.337  22.703  0.00  0.00    +0.004 A 
ATOM     18  C   UNL     1       8.693   0.950  21.696  0.00  0.00    +0.000 A 
ATOM     19  C   UNL     1       9.948   1.476  21.980  0.00  0.00    +0.000 A 
ATOM     20  C   UNL     1      10.468   1.367  23.267  0.00  0.00    +0.000 A 
ATOM     21  C   UNL     1       9.716   0.766  24.281  0.00  0.00    +0.004 A 
ENDBRANCH  15  16
BRANCH  15  22
ATOM     22  C   UNL     1       8.319  -0.258  26.557  0.00  0.00    +0.010 C 
ATOM     23  C   UNL     1       7.505   0.195  27.760  0.00  0.00    +0.005 C 
ENDBRANCH  15  22
ENDBRANCH   1  15
TORSDOF 4
ENDMDL
MODEL 8
REMARK VINA RESULT:      -6.2      1.853      2.266
REMARK  Name = 
REMARK  5 active torsions:
REMARK  status: ('A' for Active; 'I' for Inactive)
REMARK    1  A    between atoms: C_2  and  C_3
REMARK    2  A    between atoms: C_2  and  C_5
REMARK    3  A    between atoms: C_2  and  C_11
REMARK    4  A    between atoms: C_3  and  C_4
REMARK    5  A    between atoms: C_12  and  O_13
REMARK                            x       y       z     vdW  Elec       q    Type
REMARK                         _______ _______ _______ _____ _____    ______ ____
ROOT
ATOM      1  C   UNL     1       9.065  -1.752  24.121  0.00  0.00    +0.086 A 
ATOM      2  C   UNL     1      10.106  -1.284  23.162  0.00  0.00    +0.344 A 
ATOM      3  O   UNL     1      10.767  -2.076  22.500  0.00  0.00    -0.245 OA
ATOM      4  O   UNL     1      10.285   0.067  23.028  0.00  0.00    -0.427 OA
ATOM      5  C   UNL     1       9.589   0.992  23.836  0.00  0.00    +0.116 A 
ATOM      6  C   UNL     1       9.855   2.437  23.512  0.00  0.00    +0.075 C 
ATOM      7  C   UNL     1       8.606   3.174  23.006  0.00  0.00    +0.008 C 
ATOM      8  C   UNL     1       7.558   3.515  24.071  0.00  0.00    +0.001 C 
ATOM      9  C   UNL     1       6.947   2.326  24.812  0.00  0.00    +0.005 C 
ATOM     10  C   UNL     1       7.978   1.561  25.638  0.00  0.00    +0.042 C 
ATOM     11  C   UNL     1       8.729   0.581  24.777  0.00  0.00    +0.033 A 
ATOM     12  C   UNL     1       8.440  -0.829  24.876  0.00  0.00    +0.134 A 
ENDROOT
BRANCH  12  13
ATOM     13  O   UNL     1       7.435  -1.124  25.771  0.00  0.00    -0.506 OA
ATOM     14  H   UNL     1       7.829  -1.416  26.608  0.00  0.00    +0.292 HD
ENDBRANCH  12  13
BRANCH   1  15
ATOM     15  C   UNL     1       8.819  -3.262  24.172  0.00  0.00    +0.059 C 
BRANCH  15  16
ATOM     16  C   UNL     1       7.394  -3.611  23.695  0.00  0.00    -0.040 A 
ATOM     17  C   UNL     1       6.478  -4.324  24.489  0.00  0.00    +0.004 A 
ATOM     18  C   UNL     1       5.149  -4.484  24.091  0.00  0.00    +0.000 A 
ATOM     19  C   UNL     1       4.719  -3.967  22.874  0.00  0.00    +0.000 A 
ATOM     20  C   UNL     1       5.624  -3.311  22.043  0.00  0.00    +0.000 A 
ATOM     21  C   UNL     1       6.951  -3.137  22.446  0.00  0.00    +0.004 A 
ENDBRANCH  15  16
BRANCH  15  22
ATOM     22  C   UNL     1       9.164  -3.842  25.570  0.00  0.00    +0.010 C 
ATOM     23  C   UNL     1       9.910  -5.169  25.557  0.00  0.00    +0.005 C 
ENDBRANCH  15  22
ENDBRANCH   1  15
TORSDOF 4
ENDMDL
MODEL 9
REMARK VINA RESULT:      -6.2      1.544      5.969
REMARK  Name = 
REMARK  5 active torsions:
REMARK  status: ('A' for Active; 'I' for Inactive)
REMARK    1  A    between atoms: C_2  and  C_3
REMARK    2  A    between atoms: C_2  and  C_5
REMARK    3  A    between atoms: C_2  and  C_11
REMARK    4  A    between atoms: C_3  and  C_4
REMARK    5  A    between atoms: C_12  and  O_13
REMARK                            x       y       z     vdW  Elec       q    Type
REMARK                         _______ _______ _______ _____ _____    ______ ____
ROOT
ATOM      1  C   UNL     1       8.542  -1.546  24.656  0.00  0.00    +0.086 A 
ATOM      2  C   UNL     1       8.330  -1.958  26.074  0.00  0.00    +0.344 A 
ATOM      3  O   UNL     1       8.609  -1.210  27.004  0.00  0.00    -0.245 OA
ATOM      4  O   UNL     1       7.792  -3.196  26.302  0.00  0.00    -0.427 OA
ATOM      5  C   UNL     1       7.537  -4.101  25.248  0.00  0.00    +0.116 A 
ATOM      6  C   UNL     1       6.884  -5.389  25.667  0.00  0.00    +0.075 C 
ATOM      7  C   UNL     1       5.479  -5.565  25.075  0.00  0.00    +0.008 C 
ATOM      8  C   UNL     1       5.425  -5.922  23.585  0.00  0.00    +0.001 C 
ATOM      9  C   UNL     1       6.046  -4.902  22.631  0.00  0.00    +0.005 C 
ATOM     10  C   UNL     1       7.549  -4.740  22.848  0.00  0.00    +0.042 C 
ATOM     11  C   UNL     1       7.823  -3.784  23.978  0.00  0.00    +0.033 A 
ATOM     12  C   UNL     1       8.295  -2.451  23.691  0.00  0.00    +0.134 A 
ENDROOT
BRANCH  12  13
ATOM     13  O   UNL     1       8.414  -2.186  22.344  0.00  0.00    -0.506 OA
ATOM     14  H   UNL     1       8.534  -3.020  21.864  0.00  0.00    +0.292 HD
ENDBRANCH  12  13
BRANCH   1  15
ATOM     15  C   UNL     1       9.048  -0.119  24.433  0.00  0.00    +0.059 C 
BRANCH  15  16
ATOM     16  C   UNL     1       8.011   0.727  23.666  0.00  0.00    -0.040 A 
ATOM     17  C   UNL     1       6.737   1.023  24.183  0.00  0.00    +0.004 A 
ATOM     18  C   UNL     1       5.886   1.920  23.535  0.00  0.00    +0.000 A 
ATOM     19  C   UNL     1       6.275   2.510  22.338  0.00  0.00    +0.000 A 
ATOM     20  C   UNL     1       7.506   2.183  21.775  0.00  0.00    +0.000 A 
ATOM     21  C   UNL     1       8.366   1.297  22.429  0.00  0.00    +0.004 A 
ENDBRANCH  15  16
BRANCH  15  22
ATOM     22  C   UNL     1      10.456  -0.116  23.779  0.00  0.00    +0.010 C 
ATOM     23  C   UNL     1      11.464   0.834  24.409  0.00  0.00    +0.005 C 
ENDBRANCH  15  22
ENDBRANCH   1  15
TORSDOF 4
ENDMDL
