MODEL 1
REMARK VINA RESULT:      -6.6      0.000      0.000
REMARK  Name = 
REMARK  11 active torsions:
REMARK  status: ('A' for Active; 'I' for Inactive)
REMARK    1  A    between atoms: N_11  and  C_12
REMARK    2  A    between atoms: C_15  and  C_17
REMARK    3  A    between atoms: C_17  and  O_18
REMARK    4  A    between atoms: O_18  and  P_19
REMARK    5  A    between atoms: P_19  and  O_20
REMARK    6  A    between atoms: P_19  and  O_22
REMARK    7  A    between atoms: O_22  and  P_23
REMARK    8  A    between atoms: P_23  and  O_24
REMARK    9  A    between atoms: P_23  and  O_25
REMARK   10  A    between atoms: C_27  and  O_29
REMARK   11  A    between atoms: C_30  and  O_32
REMARK                            x       y       z     vdW  Elec       q    Type
REMARK                         _______ _______ _______ _____ _____    ______ ____
ROOT
ATOM      1  C   UNL     1       8.016  -5.285  26.112  0.00  0.00    +0.254 C 
ATOM      2  C   UNL     1       9.183  -5.035  25.138  0.00  0.00    +0.195 C 
ATOM      3  C   UNL     1       9.200  -3.513  24.937  0.00  0.00    +0.178 C 
ATOM      4  C   UNL     1       8.095  -3.008  25.867  0.00  0.00    +0.178 C 
ATOM      5  O   UNL     1       7.930  -4.036  26.854  0.00  0.00    -0.346 OA
ENDROOT
BRANCH   1  13
ATOM      6  N   UNL     1       2.797  -5.950  23.089  0.00  0.00    -0.341 N 
ATOM      7  H   UNL     1       2.422  -6.472  23.874  0.00  0.00    +0.144 HD
ATOM      8  H   UNL     1       2.509  -6.225  22.161  0.00  0.00    +0.144 HD
ATOM      9  C   UNL     1       4.166  -5.739  23.170  0.00  0.00    +0.147 A 
ATOM     10  C   UNL     1       4.885  -5.794  24.384  0.00  0.00    +0.148 A 
ATOM     11  N   UNL     1       4.495  -6.046  25.674  0.00  0.00    -0.216 NA
ATOM     12  C   UNL     1       5.603  -5.911  26.386  0.00  0.00    +0.182 A 
ATOM     13  N   UNL     1       6.689  -5.588  25.607  0.00  0.00    -0.274 N 
ATOM     14 BR   UNL     1       5.579  -6.107  28.256  0.00  0.00    -0.008 Br
ATOM     15  C   UNL     1       6.242  -5.537  24.310  0.00  0.00    +0.168 A 
ATOM     16  N   UNL     1       6.947  -5.265  23.206  0.00  0.00    -0.216 NA
ATOM     17  C   UNL     1       6.165  -5.244  22.112  0.00  0.00    +0.225 A 
ATOM     18  N   UNL     1       4.841  -5.469  22.031  0.00  0.00    -0.219 NA
ENDBRANCH   1  13
BRANCH   2  19
ATOM     19  O   UNL     1      10.420  -5.441  25.770  0.00  0.00    -0.385 OA
ATOM     20  H   UNL     1      10.513  -6.407  25.676  0.00  0.00    +0.210 HD
ENDBRANCH   2  19
BRANCH   3  21
ATOM     21  O   UNL     1       8.948  -3.143  23.585  0.00  0.00    -0.386 OA
ATOM     22  H   UNL     1       8.288  -2.427  23.591  0.00  0.00    +0.210 HD
ENDBRANCH   3  21
BRANCH   4  23
ATOM     23  C   UNL     1       8.402  -1.654  26.501  0.00  0.00    +0.206 C 
BRANCH  23  24
ATOM     24  O   UNL     1       8.835  -0.748  25.490  0.00  0.00    -0.284 OA
BRANCH  24  25
ATOM     25  P   UNL     1       7.909   0.517  25.128  0.00  0.00    +0.483 P 
ATOM     26  O   UNL     1       6.470   0.200  24.907  0.00  0.00    -0.227 OA
BRANCH  25  27
ATOM     27  O   UNL     1       8.129   1.501  26.370  0.00  0.00    -0.302 OA
ATOM     28  H   UNL     1       8.994   1.951  26.294  0.00  0.00    +0.222 HD
ENDBRANCH  25  27
BRANCH  25  29
ATOM     29  O   UNL     1       8.637   1.191  23.896  0.00  0.00    -0.186 OA
BRANCH  29  30
ATOM     30  P   UNL     1       9.044   0.386  22.420  0.00  0.00    +0.481 P 
ATOM     31  O   UNL     1       9.408  -0.335  21.099  0.00  0.00    -0.227 OA
BRANCH  30  32
ATOM     32  O   UNL     1       7.909  -0.715  22.856  0.00  0.00    -0.302 OA
ATOM     33  H   UNL     1       7.069  -0.285  23.107  0.00  0.00    +0.222 HD
ENDBRANCH  30  32
BRANCH  30  34
ATOM     34  O   UNL     1      10.287  -0.257  23.270  0.00  0.00    -0.302 OA
ATOM     35  H   UNL     1      10.089  -0.163  24.221  0.00  0.00    +0.222 HD
ENDBRANCH  30  34
ENDBRANCH  29  30
ENDBRANCH  25  29
ENDBRANCH  24  25
ENDBRANCH  23  24
ENDBRANCH   4  23
TORSDOF 11
ENDMDL
MODEL 2
REMARK VINA RESULT:      -6.4      1.224      1.917
REMARK  Name = 
REMARK  11 active torsions:
REMARK  status: ('A' for Active; 'I' for Inactive)
REMARK    1  A    between atoms: N_11  and  C_12
REMARK    2  A    between atoms: C_15  and  C_17
REMARK    3  A    between atoms: C_17  and  O_18
REMARK    4  A    between atoms: O_18  and  P_19
REMARK    5  A    between atoms: P_19  and  O_20
REMARK    6  A    between atoms: P_19  and  O_22
REMARK    7  A    between atoms: O_22  and  P_23
REMARK    8  A    between atoms: P_23  and  O_24
REMARK    9  A    between atoms: P_23  and  O_25
REMARK   10  A    between atoms: C_27  and  O_29
REMARK   11  A    between atoms: C_30  and  O_32
REMARK                            x       y       z     vdW  Elec       q    Type
REMARK                         _______ _______ _______ _____ _____    ______ ____
ROOT
ATOM      1  C   UNL     1       8.168  -4.891  25.909  0.00  0.00    +0.254 C 
ATOM      2  C   UNL     1       9.302  -4.868  24.867  0.00  0.00    +0.195 C 
ATOM      3  C   UNL     1       9.423  -3.393  24.459  0.00  0.00    +0.178 C 
ATOM      4  C   UNL     1       8.405  -2.680  25.351  0.00  0.00    +0.178 C 
ATOM      5  O   UNL     1       8.210  -3.550  26.476  0.00  0.00    -0.346 OA
ENDROOT
BRANCH   1  13
ATOM      6  N   UNL     1       2.800  -5.617  23.175  0.00  0.00    -0.341 N 
ATOM      7  H   UNL     1       2.404  -5.922  24.057  0.00  0.00    +0.144 HD
ATOM      8  H   UNL     1       2.452  -6.047  22.330  0.00  0.00    +0.144 HD
ATOM      9  C   UNL     1       4.185  -5.539  23.188  0.00  0.00    +0.147 A 
ATOM     10  C   UNL     1       4.940  -5.415  24.375  0.00  0.00    +0.148 A 
ATOM     11  N   UNL     1       4.575  -5.352  25.695  0.00  0.00    -0.216 NA
ATOM     12  C   UNL     1       5.717  -5.188  26.345  0.00  0.00    +0.182 A 
ATOM     13  N   UNL     1       6.799  -5.150  25.500  0.00  0.00    -0.274 N 
ATOM     14 BR   UNL     1       5.742  -4.987  28.215  0.00  0.00    -0.008 Br
ATOM     15  C   UNL     1       6.312  -5.324  24.228  0.00  0.00    +0.168 A 
ATOM     16  N   UNL     1       6.999  -5.363  23.080  0.00  0.00    -0.216 NA
ATOM     17  C   UNL     1       6.183  -5.488  22.019  0.00  0.00    +0.225 A 
ATOM     18  N   UNL     1       4.841  -5.584  22.008  0.00  0.00    -0.219 NA
ENDBRANCH   1  13
BRANCH   2  19
ATOM     19  O   UNL     1      10.535  -5.284  25.503  0.00  0.00    -0.385 OA
ATOM     20  H   UNL     1      10.803  -6.142  25.126  0.00  0.00    +0.210 HD
ENDBRANCH   2  19
BRANCH   3  21
ATOM     21  O   UNL     1       9.136  -3.188  23.079  0.00  0.00    -0.386 OA
ATOM     22  H   UNL     1       8.167  -3.179  22.976  0.00  0.00    +0.210 HD
ENDBRANCH   3  21
BRANCH   4  23
ATOM     23  C   UNL     1       8.842  -1.283  25.782  0.00  0.00    +0.206 C 
BRANCH  23  24
ATOM     24  O   UNL     1       8.758  -0.399  24.667  0.00  0.00    -0.284 OA
BRANCH  24  25
ATOM     25  P   UNL     1      10.090   0.345  24.159  0.00  0.00    +0.483 P 
ATOM     26  O   UNL     1      11.213   0.363  25.140  0.00  0.00    -0.227 OA
BRANCH  25  27
ATOM     27  O   UNL     1      10.466  -0.445  22.821  0.00  0.00    -0.302 OA
ATOM     28  H   UNL     1      11.421  -0.352  22.631  0.00  0.00    +0.222 HD
ENDBRANCH  25  27
BRANCH  25  29
ATOM     29  O   UNL     1       9.586   1.773  23.702  0.00  0.00    -0.186 OA
BRANCH  29  30
ATOM     30  P   UNL     1       8.406   2.063  22.470  0.00  0.00    +0.481 P 
ATOM     31  O   UNL     1       7.350   2.323  21.367  0.00  0.00    -0.227 OA
BRANCH  30  32
ATOM     32  O   UNL     1       9.654   1.914  21.417  0.00  0.00    -0.302 OA
ATOM     33  H   UNL     1       9.883   0.979  21.260  0.00  0.00    +0.222 HD
ENDBRANCH  30  32
BRANCH  30  34
ATOM     34  O   UNL     1       8.625   3.648  22.821  0.00  0.00    -0.302 OA
ATOM     35  H   UNL     1       7.962   3.908  23.488  0.00  0.00    +0.222 HD
ENDBRANCH  30  34
ENDBRANCH  29  30
ENDBRANCH  25  29
ENDBRANCH  24  25
ENDBRANCH  23  24
ENDBRANCH   4  23
TORSDOF 11
ENDMDL
MODEL 3
REMARK VINA RESULT:      -6.1      2.298      3.457
REMARK  Name = 
REMARK  11 active torsions:
REMARK  status: ('A' for Active; 'I' for Inactive)
REMARK    1  A    between atoms: N_11  and  C_12
REMARK    2  A    between atoms: C_15  and  C_17
REMARK    3  A    between atoms: C_17  and  O_18
REMARK    4  A    between atoms: O_18  and  P_19
REMARK    5  A    between atoms: P_19  and  O_20
REMARK    6  A    between atoms: P_19  and  O_22
REMARK    7  A    between atoms: O_22  and  P_23
REMARK    8  A    between atoms: P_23  and  O_24
REMARK    9  A    between atoms: P_23  and  O_25
REMARK   10  A    between atoms: C_27  and  O_29
REMARK   11  A    between atoms: C_30  and  O_32
REMARK                            x       y       z     vdW  Elec       q    Type
REMARK                         _______ _______ _______ _____ _____    ______ ____
ROOT
ATOM      1  C   UNL     1       6.828  -3.356  24.432  0.00  0.00    +0.254 C 
ATOM      2  C   UNL     1       5.564  -2.628  23.940  0.00  0.00    +0.195 C 
ATOM      3  C   UNL     1       5.402  -1.441  24.902  0.00  0.00    +0.178 C 
ATOM      4  C   UNL     1       6.624  -1.541  25.817  0.00  0.00    +0.178 C 
ATOM      5  O   UNL     1       7.593  -2.298  25.077  0.00  0.00    -0.346 OA
ENDROOT
BRANCH   1  13
ATOM      6  N   UNL     1       5.367  -7.505  28.613  0.00  0.00    -0.341 N 
ATOM      7  H   UNL     1       6.269  -7.947  28.474  0.00  0.00    +0.144 HD
ATOM      8  H   UNL     1       4.579  -8.101  28.820  0.00  0.00    +0.144 HD
ATOM      9  C   UNL     1       5.064  -6.553  27.650  0.00  0.00    +0.147 A 
ATOM     10  C   UNL     1       6.044  -5.913  26.862  0.00  0.00    +0.148 A 
ATOM     11  N   UNL     1       7.409  -6.031  26.815  0.00  0.00    -0.216 NA
ATOM     12  C   UNL     1       7.787  -5.138  25.914  0.00  0.00    +0.182 A 
ATOM     13  N   UNL     1       6.723  -4.456  25.375  0.00  0.00    -0.274 N 
ATOM     14 BR   UNL     1       9.608  -4.872  25.523  0.00  0.00    -0.008 Br
ATOM     15  C   UNL     1       5.591  -4.968  25.959  0.00  0.00    +0.168 A 
ATOM     16  N   UNL     1       4.319  -4.615  25.740  0.00  0.00    -0.216 NA
ATOM     17  C   UNL     1       3.474  -5.290  26.539  0.00  0.00    +0.225 A 
ATOM     18  N   UNL     1       3.767  -6.227  27.459  0.00  0.00    -0.219 NA
ENDBRANCH   1  13
BRANCH   2  19
ATOM     19  O   UNL     1       5.801  -2.123  22.604  0.00  0.00    -0.385 OA
ATOM     20  H   UNL     1       6.267  -1.270  22.674  0.00  0.00    +0.210 HD
ENDBRANCH   2  19
BRANCH   3  21
ATOM     21  O   UNL     1       4.190  -1.510  25.646  0.00  0.00    -0.386 OA
ATOM     22  H   UNL     1       3.589  -0.827  25.298  0.00  0.00    +0.210 HD
ENDBRANCH   3  21
BRANCH   4  23
ATOM     23  C   UNL     1       7.173  -0.186  26.253  0.00  0.00    +0.206 C 
BRANCH  23  24
ATOM     24  O   UNL     1       8.369   0.092  25.530  0.00  0.00    -0.284 OA
BRANCH  24  25
ATOM     25  P   UNL     1       8.375   1.301  24.469  0.00  0.00    +0.483 P 
ATOM     26  O   UNL     1       7.094   1.499  23.735  0.00  0.00    -0.227 OA
BRANCH  25  27
ATOM     27  O   UNL     1       8.767   2.570  25.360  0.00  0.00    -0.302 OA
ATOM     28  H   UNL     1       8.372   2.492  26.250  0.00  0.00    +0.222 HD
ENDBRANCH  25  27
BRANCH  25  29
ATOM     29  O   UNL     1       9.628   1.003  23.550  0.00  0.00    -0.186 OA
BRANCH  29  30
ATOM     30  P   UNL     1       9.880  -0.457  22.655  0.00  0.00    +0.481 P 
ATOM     31  O   UNL     1      10.105  -1.763  21.855  0.00  0.00    -0.227 OA
BRANCH  30  32
ATOM     32  O   UNL     1       8.253  -0.642  22.744  0.00  0.00    -0.302 OA
ATOM     33  H   UNL     1       7.996  -1.583  22.727  0.00  0.00    +0.222 HD
ENDBRANCH  30  32
BRANCH  30  34
ATOM     34  O   UNL     1      10.240  -1.125  24.107  0.00  0.00    -0.302 OA
ATOM     35  H   UNL     1       9.517  -0.917  24.728  0.00  0.00    +0.222 HD
ENDBRANCH  30  34
ENDBRANCH  29  30
ENDBRANCH  25  29
ENDBRANCH  24  25
ENDBRANCH  23  24
ENDBRANCH   4  23
TORSDOF 11
ENDMDL
MODEL 4
REMARK VINA RESULT:      -6.1      6.005      7.865
REMARK  Name = 
REMARK  11 active torsions:
REMARK  status: ('A' for Active; 'I' for Inactive)
REMARK    1  A    between atoms: N_11  and  C_12
REMARK    2  A    between atoms: C_15  and  C_17
REMARK    3  A    between atoms: C_17  and  O_18
REMARK    4  A    between atoms: O_18  and  P_19
REMARK    5  A    between atoms: P_19  and  O_20
REMARK    6  A    between atoms: P_19  and  O_22
REMARK    7  A    between atoms: O_22  and  P_23
REMARK    8  A    between atoms: P_23  and  O_24
REMARK    9  A    between atoms: P_23  and  O_25
REMARK   10  A    between atoms: C_27  and  O_29
REMARK   11  A    between atoms: C_30  and  O_32
REMARK                            x       y       z     vdW  Elec       q    Type
REMARK                         _______ _______ _______ _____ _____    ______ ____
ROOT
ATOM      1  C   UNL     1       8.459   1.095  22.403  0.00  0.00    +0.254 C 
ATOM      2  C   UNL     1       9.801   0.361  22.223  0.00  0.00    +0.195 C 
ATOM      3  C   UNL     1      10.091  -0.258  23.598  0.00  0.00    +0.178 C 
ATOM      4  C   UNL     1       8.861   0.105  24.431  0.00  0.00    +0.178 C 
ATOM      5  O   UNL     1       7.816   0.353  23.479  0.00  0.00    -0.346 OA
ENDROOT
BRANCH   1  13
ATOM      6  N   UNL     1       9.399   6.776  24.317  0.00  0.00    -0.341 N 
ATOM      7  H   UNL     1       8.465   7.023  24.007  0.00  0.00    +0.144 HD
ATOM      8  H   UNL     1      10.123   7.476  24.232  0.00  0.00    +0.144 HD
ATOM      9  C   UNL     1       9.819   5.533  23.867  0.00  0.00    +0.147 A 
ATOM     10  C   UNL     1       8.927   4.520  23.452  0.00  0.00    +0.148 A 
ATOM     11  N   UNL     1       7.559   4.474  23.374  0.00  0.00    -0.216 NA
ATOM     12  C   UNL     1       7.294   3.244  22.961  0.00  0.00    +0.182 A 
ATOM     13  N   UNL     1       8.433   2.501  22.765  0.00  0.00    -0.274 N 
ATOM     14 BR   UNL     1       5.518   2.660  22.748  0.00  0.00    -0.008 Br
ATOM     15  C   UNL     1       9.494   3.324  23.052  0.00  0.00    +0.168 A 
ATOM     16  N   UNL     1      10.799   3.034  22.995  0.00  0.00    -0.216 NA
ATOM     17  C   UNL     1      11.553   4.069  23.407  0.00  0.00    +0.225 A 
ATOM     18  N   UNL     1      11.146   5.282  23.824  0.00  0.00    -0.219 NA
ENDBRANCH   1  13
BRANCH   2  19
ATOM     19  O   UNL     1       9.631  -0.701  21.254  0.00  0.00    -0.385 OA
ATOM     20  H   UNL     1       8.993  -0.405  20.579  0.00  0.00    +0.210 HD
ENDBRANCH   2  19
BRANCH   3  21
ATOM     21  O   UNL     1      11.283   0.257  24.182  0.00  0.00    -0.386 OA
ATOM     22  H   UNL     1      11.381  -0.148  25.062  0.00  0.00    +0.210 HD
ENDBRANCH   3  21
BRANCH   4  23
ATOM     23  C   UNL     1       8.467  -0.971  25.440  0.00  0.00    +0.206 C 
BRANCH  23  24
ATOM     24  O   UNL     1       9.173  -2.173  25.145  0.00  0.00    -0.284 OA
BRANCH  24  25
ATOM     25  P   UNL     1       8.345  -3.542  24.980  0.00  0.00    +0.483 P 
ATOM     26  O   UNL     1       8.963  -4.544  24.066  0.00  0.00    -0.227 OA
BRANCH  25  27
ATOM     27  O   UNL     1       8.223  -4.083  26.480  0.00  0.00    -0.302 OA
ATOM     28  H   UNL     1       8.737  -4.908  26.584  0.00  0.00    +0.222 HD
ENDBRANCH  25  27
BRANCH  25  29
ATOM     29  O   UNL     1       6.894  -3.069  24.562  0.00  0.00    -0.186 OA
BRANCH  29  30
ATOM     30  P   UNL     1       6.239  -3.164  22.963  0.00  0.00    +0.481 P 
ATOM     31  O   UNL     1       5.654  -3.248  21.533  0.00  0.00    -0.227 OA
BRANCH  30  32
ATOM     32  O   UNL     1       7.717  -2.656  22.466  0.00  0.00    -0.302 OA
ATOM     33  H   UNL     1       8.123  -2.045  23.110  0.00  0.00    +0.222 HD
ENDBRANCH  30  32
BRANCH  30  34
ATOM     34  O   UNL     1       5.611  -1.684  23.278  0.00  0.00    -0.302 OA
ATOM     35  H   UNL     1       5.070  -1.412  22.513  0.00  0.00    +0.222 HD
ENDBRANCH  30  34
ENDBRANCH  29  30
ENDBRANCH  25  29
ENDBRANCH  24  25
ENDBRANCH  23  24
ENDBRANCH   4  23
TORSDOF 11
ENDMDL
MODEL 5
REMARK VINA RESULT:      -6.1      5.304      7.110
REMARK  Name = 
REMARK  11 active torsions:
REMARK  status: ('A' for Active; 'I' for Inactive)
REMARK    1  A    between atoms: N_11  and  C_12
REMARK    2  A    between atoms: C_15  and  C_17
REMARK    3  A    between atoms: C_17  and  O_18
REMARK    4  A    between atoms: O_18  and  P_19
REMARK    5  A    between atoms: P_19  and  O_20
REMARK    6  A    between atoms: P_19  and  O_22
REMARK    7  A    between atoms: O_22  and  P_23
REMARK    8  A    between atoms: P_23  and  O_24
REMARK    9  A    between atoms: P_23  and  O_25
REMARK   10  A    between atoms: C_27  and  O_29
REMARK   11  A    between atoms: C_30  and  O_32
REMARK                            x       y       z     vdW  Elec       q    Type
REMARK                         _______ _______ _______ _____ _____    ______ ____
ROOT
ATOM      1  C   UNL     1       7.922  -0.131  24.320  0.00  0.00    +0.254 C 
ATOM      2  C   UNL     1       7.171  -0.702  25.537  0.00  0.00    +0.195 C 
ATOM      3  C   UNL     1       6.094  -1.615  24.934  0.00  0.00    +0.178 C 
ATOM      4  C   UNL     1       6.361  -1.554  23.429  0.00  0.00    +0.178 C 
ATOM      5  O   UNL     1       7.734  -1.156  23.303  0.00  0.00    -0.346 OA
ENDROOT
BRANCH   1  13
ATOM      6  N   UNL     1       5.216   4.897  22.266  0.00  0.00    -0.341 N 
ATOM      7  H   UNL     1       6.103   5.205  21.884  0.00  0.00    +0.144 HD
ATOM      8  H   UNL     1       4.590   5.602  22.629  0.00  0.00    +0.144 HD
ATOM      9  C   UNL     1       5.330   3.810  23.121  0.00  0.00    +0.147 A 
ATOM     10  C   UNL     1       6.431   2.926  23.102  0.00  0.00    +0.148 A 
ATOM     11  N   UNL     1       7.568   2.889  22.338  0.00  0.00    -0.216 NA
ATOM     12  C   UNL     1       8.203   1.800  22.744  0.00  0.00    +0.182 A 
ATOM     13  N   UNL     1       7.524   1.139  23.740  0.00  0.00    -0.274 N 
ATOM     14 BR   UNL     1       9.822   1.272  21.945  0.00  0.00    -0.008 Br
ATOM     15  C   UNL     1       6.392   1.873  23.998  0.00  0.00    +0.168 A 
ATOM     16  N   UNL     1       5.433   1.619  24.896  0.00  0.00    -0.216 NA
ATOM     17  C   UNL     1       4.440   2.524  24.828  0.00  0.00    +0.225 A 
ATOM     18  N   UNL     1       4.340   3.590  24.013  0.00  0.00    -0.219 NA
ENDBRANCH   1  13
BRANCH   2  19
ATOM     19  O   UNL     1       8.086  -1.505  26.321  0.00  0.00    -0.385 OA
ATOM     20  H   UNL     1       8.414  -2.234  25.763  0.00  0.00    +0.210 HD
ENDBRANCH   2  19
BRANCH   3  21
ATOM     21  O   UNL     1       4.776  -1.174  25.245  0.00  0.00    -0.386 OA
ATOM     22  H   UNL     1       4.166  -1.910  25.058  0.00  0.00    +0.210 HD
ENDBRANCH   3  21
BRANCH   4  23
ATOM     23  C   UNL     1       6.081  -2.868  22.705  0.00  0.00    +0.206 C 
BRANCH  23  24
ATOM     24  O   UNL     1       7.279  -3.638  22.647  0.00  0.00    -0.284 OA
BRANCH  24  25
ATOM     25  P   UNL     1       7.213  -5.209  22.986  0.00  0.00    +0.483 P 
ATOM     26  O   UNL     1       5.949  -5.659  23.633  0.00  0.00    -0.227 OA
BRANCH  25  27
ATOM     27  O   UNL     1       7.447  -5.903  21.564  0.00  0.00    -0.302 OA
ATOM     28  H   UNL     1       6.738  -5.644  20.942  0.00  0.00    +0.222 HD
ENDBRANCH  25  27
BRANCH  25  29
ATOM     29  O   UNL     1       8.524  -5.478  23.829  0.00  0.00    -0.186 OA
BRANCH  29  30
ATOM     30  P   UNL     1       8.822  -4.876  25.424  0.00  0.00    +0.481 P 
ATOM     31  O   UNL     1       9.088  -4.336  26.850  0.00  0.00    -0.227 OA
BRANCH  30  32
ATOM     32  O   UNL     1       9.293  -3.494  24.676  0.00  0.00    -0.302 OA
ATOM     33  H   UNL     1       9.572  -2.814  25.319  0.00  0.00    +0.222 HD
ENDBRANCH  30  32
BRANCH  30  34
ATOM     34  O   UNL     1      10.251  -5.666  25.310  0.00  0.00    -0.302 OA
ATOM     35  H   UNL     1      10.968  -5.034  25.511  0.00  0.00    +0.222 HD
ENDBRANCH  30  34
ENDBRANCH  29  30
ENDBRANCH  25  29
ENDBRANCH  24  25
ENDBRANCH  23  24
ENDBRANCH   4  23
TORSDOF 11
ENDMDL
MODEL 6
REMARK VINA RESULT:      -6.0      4.679      6.677
REMARK  Name = 
REMARK  11 active torsions:
REMARK  status: ('A' for Active; 'I' for Inactive)
REMARK    1  A    between atoms: N_11  and  C_12
REMARK    2  A    between atoms: C_15  and  C_17
REMARK    3  A    between atoms: C_17  and  O_18
REMARK    4  A    between atoms: O_18  and  P_19
REMARK    5  A    between atoms: P_19  and  O_20
REMARK    6  A    between atoms: P_19  and  O_22
REMARK    7  A    between atoms: O_22  and  P_23
REMARK    8  A    between atoms: P_23  and  O_24
REMARK    9  A    between atoms: P_23  and  O_25
REMARK   10  A    between atoms: C_27  and  O_29
REMARK   11  A    between atoms: C_30  and  O_32
REMARK                            x       y       z     vdW  Elec       q    Type
REMARK                         _______ _______ _______ _____ _____    ______ ____
ROOT
ATOM      1  C   UNL     1       5.670  -2.793  23.979  0.00  0.00    +0.254 C 
ATOM      2  C   UNL     1       5.964  -3.937  22.992  0.00  0.00    +0.195 C 
ATOM      3  C   UNL     1       6.843  -4.916  23.784  0.00  0.00    +0.178 C 
ATOM      4  C   UNL     1       6.920  -4.293  25.179  0.00  0.00    +0.178 C 
ATOM      5  O   UNL     1       5.769  -3.440  25.279  0.00  0.00    -0.346 OA
ENDROOT
BRANCH   1  13
ATOM      6  N   UNL     1       9.980   1.462  23.600  0.00  0.00    -0.341 N 
ATOM      7  H   UNL     1       9.366   2.112  24.077  0.00  0.00    +0.144 HD
ATOM      8  H   UNL     1      10.595   1.832  22.889  0.00  0.00    +0.144 HD
ATOM      9  C   UNL     1       9.343   0.301  23.187  0.00  0.00    +0.147 A 
ATOM     10  C   UNL     1       8.140  -0.165  23.759  0.00  0.00    +0.148 A 
ATOM     11  N   UNL     1       7.343   0.332  24.758  0.00  0.00    -0.216 NA
ATOM     12  C   UNL     1       6.378  -0.565  24.888  0.00  0.00    +0.182 A 
ATOM     13  N   UNL     1       6.518  -1.614  24.011  0.00  0.00    -0.274 N 
ATOM     14 BR   UNL     1       5.040  -0.361  26.194  0.00  0.00    -0.008 Br
ATOM     15  C   UNL     1       7.636  -1.352  23.259  0.00  0.00    +0.168 A 
ATOM     16  N   UNL     1       8.159  -2.092  22.275  0.00  0.00    -0.216 NA
ATOM     17  C   UNL     1       9.297  -1.554  21.802  0.00  0.00    +0.225 A 
ATOM     18  N   UNL     1       9.904  -0.417  22.189  0.00  0.00    -0.219 NA
ENDBRANCH   1  13
BRANCH   2  19
ATOM     19  O   UNL     1       4.720  -4.594  22.647  0.00  0.00    -0.385 OA
ATOM     20  H   UNL     1       4.058  -3.911  22.437  0.00  0.00    +0.210 HD
ENDBRANCH   2  19
BRANCH   3  21
ATOM     21  O   UNL     1       8.139  -5.064  23.212  0.00  0.00    -0.386 OA
ATOM     22  H   UNL     1       8.382  -4.213  22.805  0.00  0.00    +0.210 HD
ENDBRANCH   3  21
BRANCH   4  23
ATOM     23  C   UNL     1       6.965  -5.321  26.306  0.00  0.00    +0.206 C 
BRANCH  23  24
ATOM     24  O   UNL     1       5.779  -5.213  27.089  0.00  0.00    -0.284 OA
BRANCH  24  25
ATOM     25  P   UNL     1       4.953  -6.548  27.442  0.00  0.00    +0.483 P 
ATOM     26  O   UNL     1       5.571  -7.412  28.486  0.00  0.00    -0.227 OA
BRANCH  25  27
ATOM     27  O   UNL     1       3.522  -5.988  27.886  0.00  0.00    -0.302 OA
ATOM     28  H   UNL     1       3.162  -5.396  27.196  0.00  0.00    +0.222 HD
ENDBRANCH  25  27
BRANCH  25  29
ATOM     29  O   UNL     1       4.737  -7.251  26.041  0.00  0.00    -0.186 OA
BRANCH  29  30
ATOM     30  P   UNL     1       3.319  -7.097  25.060  0.00  0.00    +0.481 P 
ATOM     31  O   UNL     1       2.052  -6.959  24.182  0.00  0.00    -0.227 OA
BRANCH  30  32
ATOM     32  O   UNL     1       4.318  -7.396  23.794  0.00  0.00    -0.302 OA
ATOM     33  H   UNL     1       4.133  -8.264  23.387  0.00  0.00    +0.222 HD
ENDBRANCH  30  32
BRANCH  30  34
ATOM     34  O   UNL     1       3.591  -5.485  25.156  0.00  0.00    -0.302 OA
ATOM     35  H   UNL     1       4.437  -5.289  24.711  0.00  0.00    +0.222 HD
ENDBRANCH  30  34
ENDBRANCH  29  30
ENDBRANCH  25  29
ENDBRANCH  24  25
ENDBRANCH  23  24
ENDBRANCH   4  23
TORSDOF 11
ENDMDL
MODEL 7
REMARK VINA RESULT:      -6.0      2.279      3.721
REMARK  Name = 
REMARK  11 active torsions:
REMARK  status: ('A' for Active; 'I' for Inactive)
REMARK    1  A    between atoms: N_11  and  C_12
REMARK    2  A    between atoms: C_15  and  C_17
REMARK    3  A    between atoms: C_17  and  O_18
REMARK    4  A    between atoms: O_18  and  P_19
REMARK    5  A    between atoms: P_19  and  O_20
REMARK    6  A    between atoms: P_19  and  O_22
REMARK    7  A    between atoms: O_22  and  P_23
REMARK    8  A    between atoms: P_23  and  O_24
REMARK    9  A    between atoms: P_23  and  O_25
REMARK   10  A    between atoms: C_27  and  O_29
REMARK   11  A    between atoms: C_30  and  O_32
REMARK                            x       y       z     vdW  Elec       q    Type
REMARK                         _______ _______ _______ _____ _____    ______ ____
ROOT
ATOM      1  C   UNL     1       7.478  -5.272  23.594  0.00  0.00    +0.254 C 
ATOM      2  C   UNL     1       6.471  -5.393  22.436  0.00  0.00    +0.195 C 
ATOM      3  C   UNL     1       5.890  -3.980  22.279  0.00  0.00    +0.178 C 
ATOM      4  C   UNL     1       6.664  -3.149  23.305  0.00  0.00    +0.178 C 
ATOM      5  O   UNL     1       7.880  -3.874  23.541  0.00  0.00    -0.346 OA
ENDROOT
BRANCH   1  13
ATOM      6  N   UNL     1       4.710  -6.326  28.890  0.00  0.00    -0.341 N 
ATOM      7  H   UNL     1       5.616  -6.444  29.328  0.00  0.00    +0.144 HD
ATOM      8  H   UNL     1       3.948  -6.898  29.226  0.00  0.00    +0.144 HD
ATOM      9  C   UNL     1       4.766  -6.293  27.504  0.00  0.00    +0.147 A 
ATOM     10  C   UNL     1       5.938  -5.971  26.786  0.00  0.00    +0.148 A 
ATOM     11  N   UNL     1       7.206  -5.645  27.193  0.00  0.00    -0.216 NA
ATOM     12  C   UNL     1       7.861  -5.399  26.069  0.00  0.00    +0.182 A 
ATOM     13  N   UNL     1       7.069  -5.559  24.957  0.00  0.00    -0.274 N 
ATOM     14 BR   UNL     1       9.659  -4.847  26.100  0.00  0.00    -0.008 Br
ATOM     15  C   UNL     1       5.834  -5.955  25.407  0.00  0.00    +0.168 A 
ATOM     16  N   UNL     1       4.744  -6.236  24.683  0.00  0.00    -0.216 NA
ATOM     17  C   UNL     1       3.692  -6.532  25.467  0.00  0.00    +0.225 A 
ATOM     18  N   UNL     1       3.643  -6.584  26.810  0.00  0.00    -0.219 NA
ENDBRANCH   1  13
BRANCH   2  19
ATOM     19  O   UNL     1       7.183  -5.747  21.226  0.00  0.00    -0.385 OA
ATOM     20  H   UNL     1       6.641  -6.380  20.722  0.00  0.00    +0.210 HD
ENDBRANCH   2  19
BRANCH   3  21
ATOM     21  O   UNL     1       4.489  -3.940  22.530  0.00  0.00    -0.386 OA
ATOM     22  H   UNL     1       4.032  -4.015  21.673  0.00  0.00    +0.210 HD
ENDBRANCH   3  21
BRANCH   4  23
ATOM     23  C   UNL     1       6.934  -1.717  22.853  0.00  0.00    +0.206 C 
BRANCH  23  24
ATOM     24  O   UNL     1       8.224  -1.648  22.253  0.00  0.00    -0.284 OA
BRANCH  24  25
ATOM     25  P   UNL     1       9.479  -1.197  23.152  0.00  0.00    +0.483 P 
ATOM     26  O   UNL     1       9.176  -0.995  24.597  0.00  0.00    -0.227 OA
BRANCH  25  27
ATOM     27  O   UNL     1      10.543  -2.367  22.913  0.00  0.00    -0.302 OA
ATOM     28  H   UNL     1      11.397  -2.137  23.331  0.00  0.00    +0.222 HD
ENDBRANCH  25  27
BRANCH  25  29
ATOM     29  O   UNL     1      10.051   0.077  22.409  0.00  0.00    -0.186 OA
BRANCH  29  30
ATOM     30  P   UNL     1       9.978   1.697  23.014  0.00  0.00    +0.481 P 
ATOM     31  O   UNL     1       9.913   3.146  23.556  0.00  0.00    -0.227 OA
BRANCH  30  32
ATOM     32  O   UNL     1       8.358   1.456  23.102  0.00  0.00    -0.302 OA
ATOM     33  H   UNL     1       7.985   1.200  22.238  0.00  0.00    +0.222 HD
ENDBRANCH  30  32
BRANCH  30  34
ATOM     34  O   UNL     1      10.032   2.145  21.440  0.00  0.00    -0.302 OA
ATOM     35  H   UNL     1      10.870   2.619  21.285  0.00  0.00    +0.222 HD
ENDBRANCH  30  34
ENDBRANCH  29  30
ENDBRANCH  25  29
ENDBRANCH  24  25
ENDBRANCH  23  24
ENDBRANCH   4  23
TORSDOF 11
ENDMDL
MODEL 8
REMARK VINA RESULT:      -6.0      4.839      6.684
REMARK  Name = 
REMARK  11 active torsions:
REMARK  status: ('A' for Active; 'I' for Inactive)
REMARK    1  A    between atoms: N_11  and  C_12
REMARK    2  A    between atoms: C_15  and  C_17
REMARK    3  A    between atoms: C_17  and  O_18
REMARK    4  A    between atoms: O_18  and  P_19
REMARK    5  A    between atoms: P_19  and  O_20
REMARK    6  A    between atoms: P_19  and  O_22
REMARK    7  A    between atoms: O_22  and  P_23
REMARK    8  A    between atoms: P_23  and  O_24
REMARK    9  A    between atoms: P_23  and  O_25
REMARK   10  A    between atoms: C_27  and  O_29
REMARK   11  A    between atoms: C_30  and  O_32
REMARK                            x       y       z     vdW  Elec       q    Type
REMARK                         _______ _______ _______ _____ _____    ______ ____
ROOT
ATOM      1  C   UNL     1       6.998  -1.334  23.545  0.00  0.00    +0.254 C 
ATOM      2  C   UNL     1       7.848  -2.208  22.603  0.00  0.00    +0.195 C 
ATOM      3  C   UNL     1       8.855  -2.908  23.527  0.00  0.00    +0.178 C 
ATOM      4  C   UNL     1       8.455  -2.439  24.927  0.00  0.00    +0.178 C 
ATOM      5  O   UNL     1       7.081  -2.039  24.816  0.00  0.00    -0.346 OA
ENDROOT
BRANCH   1  13
ATOM      6  N   UNL     1       9.523   4.153  24.133  0.00  0.00    -0.341 N 
ATOM      7  H   UNL     1       8.661   4.493  24.546  0.00  0.00    +0.144 HD
ATOM      8  H   UNL     1      10.050   4.791  23.554  0.00  0.00    +0.144 HD
ATOM      9  C   UNL     1       9.399   2.900  23.550  0.00  0.00    +0.147 A 
ATOM     10  C   UNL     1       8.377   1.987  23.891  0.00  0.00    +0.148 A 
ATOM     11  N   UNL     1       7.335   2.062  24.778  0.00  0.00    -0.216 NA
ATOM     12  C   UNL     1       6.745   0.880  24.695  0.00  0.00    +0.182 A 
ATOM     13  N   UNL     1       7.360   0.051  23.787  0.00  0.00    -0.274 N 
ATOM     14 BR   UNL     1       5.267   0.461  25.780  0.00  0.00    -0.008 Br
ATOM     15  C   UNL     1       8.398   0.766  23.242  0.00  0.00    +0.168 A 
ATOM     16  N   UNL     1       9.271   0.369  22.309  0.00  0.00    -0.216 NA
ATOM     17  C   UNL     1      10.193   1.315  22.060  0.00  0.00    +0.225 A 
ATOM     18  N   UNL     1      10.301   2.538  22.611  0.00  0.00    -0.219 NA
ENDBRANCH   1  13
BRANCH   2  19
ATOM     19  O   UNL     1       6.996  -3.206  21.990  0.00  0.00    -0.385 OA
ATOM     20  H   UNL     1       6.403  -2.761  21.358  0.00  0.00    +0.210 HD
ENDBRANCH   2  19
BRANCH   3  21
ATOM     21  O   UNL     1      10.201  -2.553  23.226  0.00  0.00    -0.386 OA
ATOM     22  H   UNL     1      10.178  -1.839  22.563  0.00  0.00    +0.210 HD
ENDBRANCH   3  21
BRANCH   4  23
ATOM     23  C   UNL     1       8.652  -3.501  26.006  0.00  0.00    +0.206 C 
BRANCH  23  24
ATOM     24  O   UNL     1       8.009  -4.707  25.603  0.00  0.00    -0.284 OA
BRANCH  24  25
ATOM     25  P   UNL     1       6.790  -5.273  26.486  0.00  0.00    +0.483 P 
ATOM     26  O   UNL     1       7.193  -5.974  27.738  0.00  0.00    -0.227 OA
BRANCH  25  27
ATOM     27  O   UNL     1       5.910  -3.969  26.778  0.00  0.00    -0.302 OA
ATOM     28  H   UNL     1       5.514  -4.023  27.670  0.00  0.00    +0.222 HD
ENDBRANCH  25  27
BRANCH  25  29
ATOM     29  O   UNL     1       5.952  -6.152  25.473  0.00  0.00    -0.186 OA
BRANCH  29  30
ATOM     30  P   UNL     1       5.235  -5.571  24.009  0.00  0.00    +0.481 P 
ATOM     31  O   UNL     1       4.593  -5.051  22.700  0.00  0.00    -0.227 OA
BRANCH  30  32
ATOM     32  O   UNL     1       4.831  -7.136  23.735  0.00  0.00    -0.302 OA
ATOM     33  H   UNL     1       3.991  -7.374  24.174  0.00  0.00    +0.222 HD
ENDBRANCH  30  32
BRANCH  30  34
ATOM     34  O   UNL     1       6.752  -5.642  23.396  0.00  0.00    -0.302 OA
ATOM     35  H   UNL     1       6.696  -5.533  22.428  0.00  0.00    +0.222 HD
ENDBRANCH  30  34
ENDBRANCH  29  30
ENDBRANCH  25  29
ENDBRANCH  24  25
ENDBRANCH  23  24
ENDBRANCH   4  23
TORSDOF 11
ENDMDL
MODEL 9
REMARK VINA RESULT:      -5.9      6.027      8.208
REMARK  Name = 
REMARK  11 active torsions:
REMARK  status: ('A' for Active; 'I' for Inactive)
REMARK    1  A    between atoms: N_11  and  C_12
REMARK    2  A    between atoms: C_15  and  C_17
REMARK    3  A    between atoms: C_17  and  O_18
REMARK    4  A    between atoms: O_18  and  P_19
REMARK    5  A    between atoms: P_19  and  O_20
REMARK    6  A    between atoms: P_19  and  O_22
REMARK    7  A    between atoms: O_22  and  P_23
REMARK    8  A    between atoms: P_23  and  O_24
REMARK    9  A    between atoms: P_23  and  O_25
REMARK   10  A    between atoms: C_27  and  O_29
REMARK   11  A    between atoms: C_30  and  O_32
REMARK                            x       y       z     vdW  Elec       q    Type
REMARK                         _______ _______ _______ _____ _____    ______ ____
ROOT
ATOM      1  C   UNL     1       8.499   1.200  22.363  0.00  0.00    +0.254 C 
ATOM      2  C   UNL     1       9.838   0.463  22.172  0.00  0.00    +0.195 C 
ATOM      3  C   UNL     1      10.090  -0.236  23.516  0.00  0.00    +0.178 C 
ATOM      4  C   UNL     1       8.844   0.094  24.340  0.00  0.00    +0.178 C 
ATOM      5  O   UNL     1       7.825   0.407  23.380  0.00  0.00    -0.346 OA
ENDROOT
BRANCH   1  13
ATOM      6  N   UNL     1       9.475   6.773  24.558  0.00  0.00    -0.341 N 
ATOM      7  H   UNL     1       8.532   7.031  24.290  0.00  0.00    +0.144 HD
ATOM      8  H   UNL     1      10.194   7.480  24.491  0.00  0.00    +0.144 HD
ATOM      9  C   UNL     1       9.886   5.558  24.028  0.00  0.00    +0.147 A 
ATOM     10  C   UNL     1       8.986   4.565  23.584  0.00  0.00    +0.148 A 
ATOM     11  N   UNL     1       7.617   4.516  23.544  0.00  0.00    -0.216 NA
ATOM     12  C   UNL     1       7.343   3.310  23.071  0.00  0.00    +0.182 A 
ATOM     13  N   UNL     1       8.479   2.584  22.801  0.00  0.00    -0.274 N 
ATOM     14 BR   UNL     1       5.565   2.729  22.879  0.00  0.00    -0.008 Br
ATOM     15  C   UNL     1       9.545   3.395  23.103  0.00  0.00    +0.168 A 
ATOM     16  N   UNL     1      10.849   3.116  22.992  0.00  0.00    -0.216 NA
ATOM     17  C   UNL     1      11.611   4.131  23.438  0.00  0.00    +0.225 A 
ATOM     18  N   UNL     1      11.212   5.317  23.933  0.00  0.00    -0.219 NA
ENDBRANCH   1  13
BRANCH   2  19
ATOM     19  O   UNL     1       9.680  -0.542  21.141  0.00  0.00    -0.385 OA
ATOM     20  H   UNL     1      10.078  -0.205  20.318  0.00  0.00    +0.210 HD
ENDBRANCH   2  19
BRANCH   3  21
ATOM     21  O   UNL     1      11.273   0.233  24.155  0.00  0.00    -0.386 OA
ATOM     22  H   UNL     1      11.516   1.082  23.743  0.00  0.00    +0.210 HD
ENDBRANCH   3  21
BRANCH   4  23
ATOM     23  C   UNL     1       8.416  -1.031  25.278  0.00  0.00    +0.206 C 
BRANCH  23  24
ATOM     24  O   UNL     1       9.184  -2.198  24.994  0.00  0.00    -0.284 OA
BRANCH  24  25
ATOM     25  P   UNL     1       8.452  -3.473  24.343  0.00  0.00    +0.483 P 
ATOM     26  O   UNL     1       8.035  -3.301  22.922  0.00  0.00    -0.227 OA
BRANCH  25  27
ATOM     27  O   UNL     1       9.524  -4.646  24.523  0.00  0.00    -0.302 OA
ATOM     28  H   UNL     1       9.780  -4.727  25.463  0.00  0.00    +0.222 HD
ENDBRANCH  25  27
BRANCH  25  29
ATOM     29  O   UNL     1       7.272  -3.797  25.346  0.00  0.00    -0.186 OA
BRANCH  29  30
ATOM     30  P   UNL     1       7.351  -4.950  26.635  0.00  0.00    +0.481 P 
ATOM     31  O   UNL     1       7.422  -5.980  27.787  0.00  0.00    -0.227 OA
BRANCH  30  32
ATOM     32  O   UNL     1       6.266  -3.983  27.395  0.00  0.00    -0.302 OA
ATOM     33  H   UNL     1       6.531  -3.800  28.316  0.00  0.00    +0.222 HD
ENDBRANCH  30  32
BRANCH  30  34
ATOM     34  O   UNL     1       8.699  -4.142  27.094  0.00  0.00    -0.302 OA
ATOM     35  H   UNL     1       9.353  -4.793  27.412  0.00  0.00    +0.222 HD
ENDBRANCH  30  34
ENDBRANCH  29  30
ENDBRANCH  25  29
ENDBRANCH  24  25
ENDBRANCH  23  24
ENDBRANCH   4  23
TORSDOF 11
ENDMDL
