MODEL 1
REMARK VINA RESULT:      26.7      0.000      0.000
REMARK  Name = 
REMARK  25 active torsions:
REMARK  status: ('A' for Active; 'I' for Inactive)
REMARK    1  A    between atoms: C_9  and  C_98
REMARK    2  A    between atoms: C_14  and  N_16
REMARK    3  A    between atoms: C_17  and  C_19
REMARK    4  A    between atoms: C_26  and  C_27
REMARK    5  A    between atoms: C_30  and  C_31
REMARK    6  A    between atoms: C_34  and  N_35
REMARK    7  A    between atoms: C_36  and  C_37
REMARK    8  A    between atoms: N_39  and  C_40
REMARK    9  A    between atoms: C_42  and  C_44
REMARK   10  A    between atoms: C_48  and  C_50
REMARK   11  A    between atoms: C_50  and  C_51
REMARK   12  A    between atoms: C_50  and  C_52
REMARK   13  A    between atoms: N_53  and  C_54
REMARK   14  A    between atoms: N_58  and  C_59
REMARK   15  A    between atoms: C_70  and  C_75
REMARK   16  A    between atoms: C_75  and  C_76
REMARK   17  A    between atoms: C_75  and  C_77
REMARK   18  A    between atoms: C_78  and  C_80
REMARK   19  A    between atoms: C_84  and  C_86
REMARK   20  A    between atoms: C_86  and  C_87
REMARK   21  A    between atoms: C_86  and  C_88
REMARK   22  A    between atoms: N_89  and  C_90
REMARK   23  A    between atoms: N_94  and  C_95
REMARK   24  A    between atoms: C_98  and  C_99
REMARK   25  A    between atoms: C_98  and  C_100
REMARK                            x       y       z     vdW  Elec       q    Type
REMARK                         _______ _______ _______ _____ _____    ______ ____
ROOT
ATOM      1  C   UNL     1       6.628  -5.368  21.910  0.00  0.00    +0.066 A 
ATOM      2  C   UNL     1       6.952  -5.689  20.567  0.00  0.00    +0.015 A 
ATOM      3  C   UNL     1       6.069  -6.330  19.724  0.00  0.00    +0.008 A 
ATOM      4  C   UNL     1       4.814  -6.675  20.175  0.00  0.00    -0.006 A 
ATOM      5  C   UNL     1       3.934  -7.498  19.282  0.00  0.00    +0.047 C 
ATOM      6  C   UNL     1       4.428  -6.264  21.496  0.00  0.00    +0.157 A 
ATOM      7  O   UNL     1       3.124  -6.572  21.820  0.00  0.00    -0.451 OA
ATOM      8  C   UNL     1       2.716  -6.379  23.126  0.00  0.00    +0.161 A 
ATOM      9  C   UNL     1       1.627  -7.022  23.572  0.00  0.00    +0.042 A 
ATOM     10  C   UNL     1       1.247  -6.896  24.990  0.00  0.00    +0.207 A 
ATOM     11  C   UNL     1       1.875  -5.829  25.836  0.00  0.00    +0.087 A 
ATOM     12  C   UNL     1       2.790  -5.039  25.298  0.00  0.00    +0.090 A 
ATOM     13  O   UNL     1       0.443  -7.657  25.487  0.00  0.00    -0.286 OA
ATOM     14  C   UNL     1       0.747  -7.921  22.762  0.00  0.00    +0.052 C 
ATOM     15  C   UNL     1       3.552  -5.486  24.007  0.00  0.00    +0.121 A 
ATOM     16  N   UNL     1       4.786  -5.159  23.668  0.00  0.00    -0.239 NA
ATOM     17  C   UNL     1       5.300  -5.597  22.391  0.00  0.00    +0.119 A 
ENDROOT
BRANCH   1  20
ATOM     18  N   UNL     1       8.146  -3.560  22.678  0.00  0.00    -0.297 N 
ATOM     19  H   UNL     1       7.559  -2.941  22.114  0.00  0.00    +0.150 HD
ATOM     20  C   UNL     1       7.869  -4.878  22.618  0.00  0.00    +0.247 C 
ATOM     21  O   UNL     1       8.629  -5.668  23.177  0.00  0.00    -0.270 OA
BRANCH  18  38
ATOM     22  C   UNL     1       6.913   2.649  25.204  0.00  0.00    +0.162 C 
ATOM     23  C   UNL     1       6.670   1.866  26.822  0.00  0.00    +0.236 C 
ATOM     24  O   UNL     1       7.357   2.262  27.774  0.00  0.00    -0.274 OA
ATOM     25  N   UNL     1       5.915   0.606  26.995  0.00  0.00    -0.294 N 
ATOM     26  C   UNL     1       4.609   0.445  26.376  0.00  0.00    +0.132 C 
ATOM     27  C   UNL     1       6.208  -0.457  28.145  0.00  0.00    +0.203 C 
ATOM     28  C   UNL     1       5.869  -2.270  28.163  0.00  0.00    +0.233 C 
ATOM     29  O   UNL     1       4.659  -2.506  28.028  0.00  0.00    -0.274 OA
ATOM     30  N   UNL     1       6.882  -3.439  28.126  0.00  0.00    -0.290 N 
ATOM     31  C   UNL     1       7.241  -4.612  29.116  0.00  0.00    +0.133 C 
ATOM     32  C   UNL     1       7.209  -3.958  26.805  0.00  0.00    +0.187 C 
ATOM     33  C   UNL     1       8.649  -4.549  26.512  0.00  0.00    +0.328 C 
ATOM     34  O   UNL     1       9.477  -4.835  27.352  0.00  0.00    -0.249 OA
ATOM     35  O   UNL     1       8.789  -4.788  25.152  0.00  0.00    -0.458 OA
ATOM     36  C   UNL     1       9.901  -4.201  24.320  0.00  0.00    +0.203 C 
ATOM     37  C   UNL     1      11.141  -4.139  25.197  0.00  0.00    +0.054 C 
ATOM     38  C   UNL     1       9.318  -2.966  23.411  0.00  0.00    +0.200 C 
ATOM     39  C   UNL     1      10.174  -1.504  23.030  0.00  0.00    +0.238 C 
ATOM     40  O   UNL     1      11.342  -1.389  23.407  0.00  0.00    -0.274 OA
ATOM     41  N   UNL     1       9.455  -0.367  22.528  0.00  0.00    -0.302 N 
ATOM     42  H   UNL     1       8.712  -0.663  21.890  0.00  0.00    +0.150 HD
ATOM     43  C   UNL     1       9.779   1.269  22.377  0.00  0.00    +0.162 C 
ATOM     44  C   UNL     1       8.689   2.511  23.070  0.00  0.00    +0.237 C 
ATOM     45  O   UNL     1       8.129   3.314  22.310  0.00  0.00    -0.274 OA
ATOM     46  N   UNL     1       8.365   2.455  24.526  0.00  0.00    -0.288 N 
ATOM     47  C   UNL     1       8.569   1.141  24.888  0.00  0.00    +0.109 C 
ATOM     48  C   UNL     1       7.221   0.591  24.296  0.00  0.00    +0.021 C 
ATOM     49  C   UNL     1       6.209   1.775  24.227  0.00  0.00    +0.033 C 
BRANCH  32  50
ATOM     50  C   UNL     1       7.009  -2.873  25.787  0.00  0.00    +0.014 C 
ATOM     51  C   UNL     1       5.583  -2.660  25.308  0.00  0.00    +0.009 C 
ATOM     52  C   UNL     1       7.944  -1.723  26.296  0.00  0.00    +0.009 C 
ENDBRANCH  32  50
BRANCH  43  53
ATOM     53  C   UNL     1      11.322   1.602  22.432  0.00  0.00    +0.012 C 
ATOM     54  C   UNL     1      11.744   3.029  22.000  0.00  0.00    +0.009 C 
ATOM     55  C   UNL     1      11.986   1.341  23.783  0.00  0.00    +0.009 C 
ENDBRANCH  43  53
ENDBRANCH  18  38
ENDBRANCH   1  20
BRANCH  12  56
ATOM     56  C   UNL     1       3.140  -3.728  26.001  0.00  0.00    +0.249 C 
ATOM     57  N   UNL     1       2.895  -2.533  25.322  0.00  0.00    -0.297 N 
ATOM     58  H   UNL     1       2.721  -2.643  24.324  0.00  0.00    +0.150 HD
ATOM     59  O   UNL     1       3.685  -3.824  27.080  0.00  0.00    -0.270 OA
BRANCH  57  60
ATOM     60  C   UNL     1       2.928  -1.044  25.706  0.00  0.00    +0.200 C 
ATOM     61  C   UNL     1       2.710  -0.977  27.358  0.00  0.00    +0.238 C 
ATOM     62  O   UNL     1       2.201  -1.933  27.935  0.00  0.00    -0.274 OA
ATOM     63  N   UNL     1       3.139   0.172  28.029  0.00  0.00    -0.302 N 
ATOM     64  H   UNL     1       4.043   0.412  27.642  0.00  0.00    +0.150 HD
ATOM     65  C   UNL     1       3.060   0.653  29.557  0.00  0.00    +0.162 C 
ATOM     66  C   UNL     1       3.829   2.197  29.962  0.00  0.00    +0.237 C 
ATOM     67  O   UNL     1       4.948   2.204  30.484  0.00  0.00    -0.274 OA
ATOM     68  N   UNL     1       3.201   3.421  29.474  0.00  0.00    -0.288 N 
ATOM     69  C   UNL     1       3.976   4.627  28.913  0.00  0.00    +0.162 C 
ATOM     70  C   UNL     1       4.366   3.994  27.604  0.00  0.00    +0.033 C 
ATOM     71  C   UNL     1       3.388   2.871  27.396  0.00  0.00    +0.021 C 
ATOM     72  C   UNL     1       3.014   5.934  28.437  0.00  0.00    +0.236 C 
ATOM     73  O   UNL     1       2.058   6.295  29.133  0.00  0.00    -0.274 OA
ATOM     74  N   UNL     1       3.152   6.493  27.123  0.00  0.00    -0.294 N 
ATOM     75  C   UNL     1       4.447   7.002  26.655  0.00  0.00    +0.132 C 
ATOM     76  C   UNL     1       2.148   6.136  26.034  0.00  0.00    +0.203 C 
ATOM     77  C   UNL     1       2.656   5.099  24.975  0.00  0.00    +0.233 C 
ATOM     78  O   UNL     1       3.802   4.654  25.041  0.00  0.00    -0.274 OA
ATOM     79  N   UNL     1       1.901   4.653  23.907  0.00  0.00    -0.290 N 
ATOM     80  C   UNL     1       0.469   4.912  23.813  0.00  0.00    +0.133 C 
ATOM     81  C   UNL     1       2.442   3.446  23.163  0.00  0.00    +0.187 C 
ATOM     82  C   UNL     1       1.674   2.182  24.055  0.00  0.00    +0.328 C 
ATOM     83  O   UNL     1       0.443   2.161  24.169  0.00  0.00    -0.249 OA
ATOM     84  O   UNL     1       2.432   1.201  24.647  0.00  0.00    -0.458 OA
ATOM     85  C   UNL     1       2.323   3.126  28.416  0.00  0.00    +0.109 C 
ATOM     86  C   UNL     1       1.912  -0.193  24.864  0.00  0.00    +0.203 C 
ATOM     87  C   UNL     1       0.479  -0.403  25.367  0.00  0.00    +0.054 C 
BRANCH  65  88
ATOM     88  C   UNL     1       1.639   0.630  30.249  0.00  0.00    +0.012 C 
ATOM     89  C   UNL     1       0.548   1.567  29.723  0.00  0.00    +0.009 C 
ATOM     90  C   UNL     1       1.135  -0.810  30.436  0.00  0.00    +0.009 C 
ENDBRANCH  65  88
BRANCH  81  91
ATOM     91  C   UNL     1       4.095   3.603  22.698  0.00  0.00    +0.014 C 
ATOM     92  C   UNL     1       4.512   4.732  21.746  0.00  0.00    +0.009 C 
ATOM     93  C   UNL     1       5.208   2.591  22.129  0.00  0.00    +0.009 C 
ENDBRANCH  81  91
ENDBRANCH  57  60
ENDBRANCH  12  56
BRANCH  11  94
ATOM     94  N   UNL     1       1.300  -5.681  27.086  0.00  0.00    -0.354 N 
ATOM     95  H   UNL     1       0.437  -5.157  27.223  0.00  0.00    +0.142 HD
ATOM     96  H   UNL     1       1.826  -5.991  27.895  0.00  0.00    +0.142 HD
ENDBRANCH  11  94
TORSDOF 9
ENDMDL
MODEL 2
REMARK VINA RESULT:      27.2      1.773      2.775
REMARK  Name = 
REMARK  25 active torsions:
REMARK  status: ('A' for Active; 'I' for Inactive)
REMARK    1  A    between atoms: C_9  and  C_98
REMARK    2  A    between atoms: C_14  and  N_16
REMARK    3  A    between atoms: C_17  and  C_19
REMARK    4  A    between atoms: C_26  and  C_27
REMARK    5  A    between atoms: C_30  and  C_31
REMARK    6  A    between atoms: C_34  and  N_35
REMARK    7  A    between atoms: C_36  and  C_37
REMARK    8  A    between atoms: N_39  and  C_40
REMARK    9  A    between atoms: C_42  and  C_44
REMARK   10  A    between atoms: C_48  and  C_50
REMARK   11  A    between atoms: C_50  and  C_51
REMARK   12  A    between atoms: C_50  and  C_52
REMARK   13  A    between atoms: N_53  and  C_54
REMARK   14  A    between atoms: N_58  and  C_59
REMARK   15  A    between atoms: C_70  and  C_75
REMARK   16  A    between atoms: C_75  and  C_76
REMARK   17  A    between atoms: C_75  and  C_77
REMARK   18  A    between atoms: C_78  and  C_80
REMARK   19  A    between atoms: C_84  and  C_86
REMARK   20  A    between atoms: C_86  and  C_87
REMARK   21  A    between atoms: C_86  and  C_88
REMARK   22  A    between atoms: N_89  and  C_90
REMARK   23  A    between atoms: N_94  and  C_95
REMARK   24  A    between atoms: C_98  and  C_99
REMARK   25  A    between atoms: C_98  and  C_100
REMARK                            x       y       z     vdW  Elec       q    Type
REMARK                         _______ _______ _______ _____ _____    ______ ____
ROOT
ATOM      1  C   UNL     1       4.044  -6.394  21.688  0.00  0.00    +0.066 A 
ATOM      2  C   UNL     1       3.466  -7.084  20.592  0.00  0.00    +0.015 A 
ATOM      3  C   UNL     1       2.332  -7.859  20.718  0.00  0.00    +0.008 A 
ATOM      4  C   UNL     1       1.713  -7.978  21.943  0.00  0.00    -0.006 A 
ATOM      5  C   UNL     1       0.571  -8.941  22.077  0.00  0.00    +0.047 C 
ATOM      6  C   UNL     1       2.220  -7.204  23.041  0.00  0.00    +0.157 A 
ATOM      7  O   UNL     1       1.477  -7.317  24.197  0.00  0.00    -0.451 OA
ATOM      8  C   UNL     1       1.985  -6.754  25.353  0.00  0.00    +0.161 A 
ATOM      9  C   UNL     1       1.523  -7.173  26.540  0.00  0.00    +0.042 A 
ATOM     10  C   UNL     1       2.131  -6.647  27.775  0.00  0.00    +0.207 A 
ATOM     11  C   UNL     1       3.023  -5.442  27.710  0.00  0.00    +0.087 A 
ATOM     12  C   UNL     1       3.276  -4.894  26.533  0.00  0.00    +0.090 A 
ATOM     13  O   UNL     1       1.932  -7.186  28.843  0.00  0.00    -0.286 OA
ATOM     14  C   UNL     1       0.443  -8.187  26.753  0.00  0.00    +0.052 C 
ATOM     15  C   UNL     1       3.077  -5.723  25.221  0.00  0.00    +0.121 A 
ATOM     16  N   UNL     1       3.754  -5.590  24.096  0.00  0.00    -0.239 NA
ATOM     17  C   UNL     1       3.375  -6.388  22.952  0.00  0.00    +0.119 A 
ENDROOT
BRANCH   1  20
ATOM     18  N   UNL     1       5.824  -4.666  21.792  0.00  0.00    -0.297 N 
ATOM     19  H   UNL     1       5.161  -4.138  22.365  0.00  0.00    +0.150 HD
ATOM     20  C   UNL     1       5.380  -5.827  21.269  0.00  0.00    +0.247 C 
ATOM     21  O   UNL     1       6.099  -6.429  20.472  0.00  0.00    -0.270 OA
BRANCH  18  38
ATOM     22  C   UNL     1       7.697   0.101  26.288  0.00  0.00    +0.162 C 
ATOM     23  C   UNL     1       8.768  -1.145  27.057  0.00  0.00    +0.236 C 
ATOM     24  O   UNL     1       9.973  -0.888  27.175  0.00  0.00    -0.274 OA
ATOM     25  N   UNL     1       8.336  -2.541  27.282  0.00  0.00    -0.294 N 
ATOM     26  C   UNL     1       7.049  -2.818  27.900  0.00  0.00    +0.132 C 
ATOM     27  C   UNL     1       9.326  -3.789  27.290  0.00  0.00    +0.203 C 
ATOM     28  C   UNL     1       8.966  -5.560  26.917  0.00  0.00    +0.233 C 
ATOM     29  O   UNL     1       8.115  -6.022  27.691  0.00  0.00    -0.274 OA
ATOM     30  N   UNL     1       9.428  -6.401  25.703  0.00  0.00    -0.290 N 
ATOM     31  C   UNL     1      10.319  -7.690  25.536  0.00  0.00    +0.133 C 
ATOM     32  C   UNL     1       8.519  -6.430  24.565  0.00  0.00    +0.187 C 
ATOM     33  C   UNL     1       9.086  -6.561  23.091  0.00  0.00    +0.328 C 
ATOM     34  O   UNL     1      10.222  -6.874  22.800  0.00  0.00    -0.249 OA
ATOM     35  O   UNL     1       8.062  -6.363  22.176  0.00  0.00    -0.458 OA
ATOM     36  C   UNL     1       8.117  -5.322  21.087  0.00  0.00    +0.203 C 
ATOM     37  C   UNL     1       9.560  -5.226  20.622  0.00  0.00    +0.054 C 
ATOM     38  C   UNL     1       7.162  -4.050  21.491  0.00  0.00    +0.200 C 
ATOM     39  C   UNL     1       7.508  -2.383  21.149  0.00  0.00    +0.238 C 
ATOM     40  O   UNL     1       8.515  -2.111  20.493  0.00  0.00    -0.274 OA
ATOM     41  N   UNL     1       6.787  -1.350  21.840  0.00  0.00    -0.302 N 
ATOM     42  H   UNL     1       5.808  -1.616  21.967  0.00  0.00    +0.150 HD
ATOM     43  C   UNL     1       7.017   0.290  22.091  0.00  0.00    +0.162 C 
ATOM     44  C   UNL     1       7.038   0.994  23.739  0.00  0.00    +0.237 C 
ATOM     45  O   UNL     1       6.175   1.827  24.052  0.00  0.00    -0.274 OA
ATOM     46  N   UNL     1       8.002   0.451  24.743  0.00  0.00    -0.288 N 
ATOM     47  C   UNL     1       8.287  -0.826  24.311  0.00  0.00    +0.109 C 
ATOM     48  C   UNL     1       6.959  -1.483  24.838  0.00  0.00    +0.021 C 
ATOM     49  C   UNL     1       6.415  -0.597  26.000  0.00  0.00    +0.033 C 
BRANCH  32  50
ATOM     50  C   UNL     1       7.692  -5.178  24.562  0.00  0.00    +0.014 C 
ATOM     51  C   UNL     1       6.594  -5.101  25.609  0.00  0.00    +0.009 C 
ATOM     52  C   UNL     1       8.748  -4.047  24.315  0.00  0.00    +0.009 C 
ENDBRANCH  32  50
BRANCH  43  53
ATOM     53  C   UNL     1       8.011   0.943  21.052  0.00  0.00    +0.012 C 
ATOM     54  C   UNL     1       7.763   2.429  20.689  0.00  0.00    +0.009 C 
ATOM     55  C   UNL     1       9.489   0.823  21.419  0.00  0.00    +0.009 C 
ENDBRANCH  43  53
ENDBRANCH  18  38
ENDBRANCH   1  20
BRANCH  12  56
ATOM     56  C   UNL     1       3.835  -3.473  26.485  0.00  0.00    +0.249 C 
ATOM     57  N   UNL     1       2.944  -2.423  26.259  0.00  0.00    -0.297 N 
ATOM     58  H   UNL     1       2.031  -2.712  25.912  0.00  0.00    +0.150 HD
ATOM     59  O   UNL     1       5.040  -3.366  26.570  0.00  0.00    -0.270 OA
BRANCH  57  60
ATOM     60  C   UNL     1       3.044  -0.889  26.307  0.00  0.00    +0.200 C 
ATOM     61  C   UNL     1       2.999  -0.464  27.919  0.00  0.00    +0.238 C 
ATOM     62  O   UNL     1       2.535  -1.253  28.736  0.00  0.00    -0.274 OA
ATOM     63  N   UNL     1       3.516   0.784  28.281  0.00  0.00    -0.302 N 
ATOM     64  H   UNL     1       4.379   0.900  27.766  0.00  0.00    +0.150 HD
ATOM     65  C   UNL     1       3.605   1.583  29.669  0.00  0.00    +0.162 C 
ATOM     66  C   UNL     1       4.439   3.145  29.655  0.00  0.00    +0.237 C 
ATOM     67  O   UNL     1       5.607   3.218  30.052  0.00  0.00    -0.274 OA
ATOM     68  N   UNL     1       3.787   4.262  28.978  0.00  0.00    -0.288 N 
ATOM     69  C   UNL     1       4.522   5.287  28.098  0.00  0.00    +0.162 C 
ATOM     70  C   UNL     1       4.763   4.376  26.924  0.00  0.00    +0.033 C 
ATOM     71  C   UNL     1       3.748   3.274  27.059  0.00  0.00    +0.021 C 
ATOM     72  C   UNL     1       3.541   6.501  27.446  0.00  0.00    +0.236 C 
ATOM     73  O   UNL     1       2.668   7.040  28.136  0.00  0.00    -0.274 OA
ATOM     74  N   UNL     1       3.553   6.761  26.035  0.00  0.00    -0.294 N 
ATOM     75  C   UNL     1       4.801   7.107  25.345  0.00  0.00    +0.132 C 
ATOM     76  C   UNL     1       2.435   6.221  25.151  0.00  0.00    +0.203 C 
ATOM     77  C   UNL     1       2.811   4.963  24.297  0.00  0.00    +0.233 C 
ATOM     78  O   UNL     1       3.950   4.497  24.346  0.00  0.00    -0.274 OA
ATOM     79  N   UNL     1       1.943   4.331  23.429  0.00  0.00    -0.290 N 
ATOM     80  C   UNL     1       0.513   4.622  23.420  0.00  0.00    +0.133 C 
ATOM     81  C   UNL     1       2.381   2.972  22.914  0.00  0.00    +0.187 C 
ATOM     82  C   UNL     1       1.686   1.959  24.128  0.00  0.00    +0.328 C 
ATOM     83  O   UNL     1       0.473   2.013  24.363  0.00  0.00    -0.249 OA
ATOM     84  O   UNL     1       2.483   1.097  24.841  0.00  0.00    -0.458 OA
ATOM     85  C   UNL     1       2.799   3.784  28.098  0.00  0.00    +0.109 C 
ATOM     86  C   UNL     1       1.963  -0.197  25.404  0.00  0.00    +0.203 C 
ATOM     87  C   UNL     1       0.586  -0.237  26.076  0.00  0.00    +0.054 C 
BRANCH  65  88
ATOM     88  C   UNL     1       2.262   1.764  30.485  0.00  0.00    +0.012 C 
ATOM     89  C   UNL     1       1.435   3.034  30.267  0.00  0.00    +0.009 C 
ATOM     90  C   UNL     1       1.405   0.490  30.436  0.00  0.00    +0.009 C 
ENDBRANCH  65  88
BRANCH  81  91
ATOM     91  C   UNL     1       3.979   2.960  22.269  0.00  0.00    +0.014 C 
ATOM     92  C   UNL     1       4.679   4.288  21.946  0.00  0.00    +0.009 C 
ATOM     93  C   UNL     1       4.703   2.184  21.060  0.00  0.00    +0.009 C 
ENDBRANCH  81  91
ENDBRANCH  57  60
ENDBRANCH  12  56
BRANCH  11  94
ATOM     94  N   UNL     1       3.372  -4.926  28.946  0.00  0.00    -0.354 N 
ATOM     95  H   UNL     1       2.712  -4.890  29.720  0.00  0.00    +0.142 HD
ATOM     96  H   UNL     1       4.264  -4.453  29.032  0.00  0.00    +0.142 HD
ENDBRANCH  11  94
TORSDOF 9
ENDMDL
