MODEL 1
REMARK VINA RESULT:      -4.9      0.000      0.000
REMARK  Name = 
REMARK  5 active torsions:
REMARK  status: ('A' for Active; 'I' for Inactive)
REMARK    1  A    between atoms: O_1  and  C_2
REMARK    2  A    between atoms: C_5  and  C_13
REMARK    3  A    between atoms: C_7  and  O_9
REMARK    4  A    between atoms: C_10  and  O_12
REMARK    5  A    between atoms: C_13  and  O_14
REMARK                            x       y       z     vdW  Elec       q    Type
REMARK                         _______ _______ _______ _____ _____    ______ ____
ROOT
ATOM      1  C   UNL     1       7.415  -5.010  22.968  0.00  0.00    +0.337 C 
ATOM      2  C   UNL     1       6.012  -5.639  22.819  0.00  0.00    +0.215 C 
ATOM      3  C   UNL     1       5.263  -5.919  24.133  0.00  0.00    +0.176 C 
ATOM      4  C   UNL     1       6.057  -5.725  25.364  0.00  0.00    +0.060 C 
ATOM      5  C   UNL     1       7.309  -5.256  25.368  0.00  0.00    +0.206 C 
ATOM      6  O   UNL     1       8.030  -4.935  24.249  0.00  0.00    -0.454 OA
ENDROOT
BRANCH   1   7
ATOM      7  O   UNL     1       7.401  -3.687  22.426  0.00  0.00    -0.356 OA
ATOM      8  H   UNL     1       6.603  -3.264  22.787  0.00  0.00    +0.214 HD
ENDBRANCH   1   7
BRANCH   2   9
ATOM      9  O   UNL     1       6.131  -6.859  22.048  0.00  0.00    -0.383 OA
ATOM     10  H   UNL     1       5.509  -6.739  21.297  0.00  0.00    +0.210 HD
ENDBRANCH   2   9
BRANCH   3  11
ATOM     11  O   UNL     1       4.774  -7.269  24.103  0.00  0.00    -0.385 OA
ATOM     12  H   UNL     1       4.888  -7.652  24.991  0.00  0.00    +0.210 HD
ENDBRANCH   3  11
BRANCH   5  13
ATOM     13  C   UNL     1       7.977  -5.037  26.688  0.00  0.00    +0.372 C 
ATOM     14  O   UNL     1       8.742  -4.125  26.948  0.00  0.00    -0.242 OA
BRANCH  13  15
ATOM     15  O   UNL     1       7.629  -6.004  27.568  0.00  0.00    -0.475 OA
ATOM     16  H   UNL     1       8.415  -6.534  27.819  0.00  0.00    +0.296 HD
ENDBRANCH  13  15
ENDBRANCH   5  13
TORSDOF 5
ENDMDL
MODEL 2
REMARK VINA RESULT:      -4.8      1.585      4.398
REMARK  Name = 
REMARK  5 active torsions:
REMARK  status: ('A' for Active; 'I' for Inactive)
REMARK    1  A    between atoms: O_1  and  C_2
REMARK    2  A    between atoms: C_5  and  C_13
REMARK    3  A    between atoms: C_7  and  O_9
REMARK    4  A    between atoms: C_10  and  O_12
REMARK    5  A    between atoms: C_13  and  O_14
REMARK                            x       y       z     vdW  Elec       q    Type
REMARK                         _______ _______ _______ _____ _____    ______ ____
ROOT
ATOM      1  C   UNL     1       6.264  -5.090  25.835  0.00  0.00    +0.337 C 
ATOM      2  C   UNL     1       7.785  -4.927  26.058  0.00  0.00    +0.215 C 
ATOM      3  C   UNL     1       8.631  -4.759  24.785  0.00  0.00    +0.176 C 
ATOM      4  C   UNL     1       7.905  -4.964  23.514  0.00  0.00    +0.060 C 
ATOM      5  C   UNL     1       6.590  -5.193  23.446  0.00  0.00    +0.206 C 
ATOM      6  O   UNL     1       5.756  -5.307  24.524  0.00  0.00    -0.454 OA
ENDROOT
BRANCH   1   7
ATOM      7  O   UNL     1       5.582  -3.955  26.373  0.00  0.00    -0.356 OA
ATOM      8  H   UNL     1       6.094  -3.180  26.086  0.00  0.00    +0.214 HD
ENDBRANCH   1   7
BRANCH   2   9
ATOM      9  O   UNL     1       8.264  -6.057  26.826  0.00  0.00    -0.383 OA
ATOM     10  H   UNL     1       8.604  -6.687  26.153  0.00  0.00    +0.210 HD
ENDBRANCH   2   9
BRANCH   3  11
ATOM     11  O   UNL     1       9.734  -5.677  24.845  0.00  0.00    -0.385 OA
ATOM     12  H   UNL     1       9.740  -6.196  24.021  0.00  0.00    +0.210 HD
ENDBRANCH   3  11
BRANCH   5  13
ATOM     13  C   UNL     1       5.965  -5.311  22.092  0.00  0.00    +0.372 C 
ATOM     14  O   UNL     1       5.593  -4.377  21.403  0.00  0.00    -0.242 OA
BRANCH  13  15
ATOM     15  O   UNL     1       5.847  -6.609  21.729  0.00  0.00    -0.475 OA
ATOM     16  H   UNL     1       5.210  -6.699  20.989  0.00  0.00    +0.296 HD
ENDBRANCH  13  15
ENDBRANCH   5  13
TORSDOF 5
ENDMDL
MODEL 3
REMARK VINA RESULT:      -4.7      9.611     10.885
REMARK  Name = 
REMARK  5 active torsions:
REMARK  status: ('A' for Active; 'I' for Inactive)
REMARK    1  A    between atoms: O_1  and  C_2
REMARK    2  A    between atoms: C_5  and  C_13
REMARK    3  A    between atoms: C_7  and  O_9
REMARK    4  A    between atoms: C_10  and  O_12
REMARK    5  A    between atoms: C_13  and  O_14
REMARK                            x       y       z     vdW  Elec       q    Type
REMARK                         _______ _______ _______ _____ _____    ______ ____
ROOT
ATOM      1  C   UNL     1      10.359   2.688  23.181  0.00  0.00    +0.337 C 
ATOM      2  C   UNL     1       9.069   3.211  23.853  0.00  0.00    +0.215 C 
ATOM      3  C   UNL     1       9.062   4.707  24.208  0.00  0.00    +0.176 C 
ATOM      4  C   UNL     1      10.353   5.403  24.031  0.00  0.00    +0.060 C 
ATOM      5  C   UNL     1      11.442   4.819  23.519  0.00  0.00    +0.206 C 
ATOM      6  O   UNL     1      11.520   3.508  23.132  0.00  0.00    -0.454 OA
ENDROOT
BRANCH   1   7
ATOM      7  O   UNL     1      10.065   2.288  21.840  0.00  0.00    -0.356 OA
ATOM      8  H   UNL     1       9.152   2.581  21.672  0.00  0.00    +0.214 HD
ENDBRANCH   1   7
BRANCH   2   9
ATOM      9  O   UNL     1       8.811   2.420  25.038  0.00  0.00    -0.383 OA
ATOM     10  H   UNL     1       9.424   1.656  24.964  0.00  0.00    +0.210 HD
ENDBRANCH   2   9
BRANCH   3  11
ATOM     11  O   UNL     1       8.637   4.853  25.572  0.00  0.00    -0.385 OA
ATOM     12  H   UNL     1       8.915   4.058  26.061  0.00  0.00    +0.210 HD
ENDBRANCH   3  11
BRANCH   5  13
ATOM     13  C   UNL     1      12.666   5.655  23.327  0.00  0.00    +0.372 C 
ATOM     14  O   UNL     1      13.328   5.710  22.305  0.00  0.00    -0.242 OA
BRANCH  13  15
ATOM     15  O   UNL     1      12.962   6.342  24.454  0.00  0.00    -0.475 OA
ATOM     16  H   UNL     1      12.231   6.955  24.680  0.00  0.00    +0.296 HD
ENDBRANCH  13  15
ENDBRANCH   5  13
TORSDOF 5
ENDMDL
MODEL 4
REMARK VINA RESULT:      -4.7      1.589      2.178
REMARK  Name = 
REMARK  5 active torsions:
REMARK  status: ('A' for Active; 'I' for Inactive)
REMARK    1  A    between atoms: O_1  and  C_2
REMARK    2  A    between atoms: C_5  and  C_13
REMARK    3  A    between atoms: C_7  and  O_9
REMARK    4  A    between atoms: C_10  and  O_12
REMARK    5  A    between atoms: C_13  and  O_14
REMARK                            x       y       z     vdW  Elec       q    Type
REMARK                         _______ _______ _______ _____ _____    ______ ____
ROOT
ATOM      1  C   UNL     1       5.856  -5.780  22.861  0.00  0.00    +0.337 C 
ATOM      2  C   UNL     1       4.936  -6.070  24.069  0.00  0.00    +0.215 C 
ATOM      3  C   UNL     1       5.507  -5.699  25.447  0.00  0.00    +0.176 C 
ATOM      4  C   UNL     1       6.927  -5.291  25.452  0.00  0.00    +0.060 C 
ATOM      5  C   UNL     1       7.660  -5.161  24.341  0.00  0.00    +0.206 C 
ATOM      6  O   UNL     1       7.217  -5.421  23.073  0.00  0.00    -0.454 OA
ENDROOT
BRANCH   1   7
ATOM      7  O   UNL     1       5.269  -4.758  22.053  0.00  0.00    -0.356 OA
ATOM      8  H   UNL     1       5.872  -3.997  22.110  0.00  0.00    +0.214 HD
ENDBRANCH   1   7
BRANCH   2   9
ATOM      9  O   UNL     1       4.570  -7.470  24.045  0.00  0.00    -0.383 OA
ATOM     10  H   UNL     1       4.427  -7.673  23.094  0.00  0.00    +0.210 HD
ENDBRANCH   2   9
BRANCH   3  11
ATOM     11  O   UNL     1       5.342  -6.821  26.328  0.00  0.00    -0.385 OA
ATOM     12  H   UNL     1       5.471  -6.510  27.242  0.00  0.00    +0.210 HD
ENDBRANCH   3  11
BRANCH   5  13
ATOM     13  C   UNL     1       9.067  -4.670  24.478  0.00  0.00    +0.372 C 
ATOM     14  O   UNL     1       9.457  -3.556  24.175  0.00  0.00    -0.242 OA
BRANCH  13  15
ATOM     15  O   UNL     1       9.868  -5.640  24.975  0.00  0.00    -0.475 OA
ATOM     16  H   UNL     1      10.116  -5.435  25.901  0.00  0.00    +0.296 HD
ENDBRANCH  13  15
ENDBRANCH   5  13
TORSDOF 5
ENDMDL
MODEL 5
REMARK VINA RESULT:      -4.7      1.066      2.708
REMARK  Name = 
REMARK  5 active torsions:
REMARK  status: ('A' for Active; 'I' for Inactive)
REMARK    1  A    between atoms: O_1  and  C_2
REMARK    2  A    between atoms: C_5  and  C_13
REMARK    3  A    between atoms: C_7  and  O_9
REMARK    4  A    between atoms: C_10  and  O_12
REMARK    5  A    between atoms: C_13  and  O_14
REMARK                            x       y       z     vdW  Elec       q    Type
REMARK                         _______ _______ _______ _____ _____    ______ ____
ROOT
ATOM      1  C   UNL     1       5.155  -5.917  24.052  0.00  0.00    +0.337 C 
ATOM      2  C   UNL     1       5.850  -5.375  22.782  0.00  0.00    +0.215 C 
ATOM      3  C   UNL     1       7.324  -4.972  22.949  0.00  0.00    +0.176 C 
ATOM      4  C   UNL     1       7.826  -4.978  24.339  0.00  0.00    +0.060 C 
ATOM      5  C   UNL     1       7.097  -5.385  25.383  0.00  0.00    +0.206 C 
ATOM      6  O   UNL     1       5.797  -5.807  25.317  0.00  0.00    -0.454 OA
ENDROOT
BRANCH   1   7
ATOM      7  O   UNL     1       4.827  -7.295  23.860  0.00  0.00    -0.356 OA
ATOM      8  H   UNL     1       5.523  -7.653  23.283  0.00  0.00    +0.214 HD
ENDBRANCH   1   7
BRANCH   2   9
ATOM      9  O   UNL     1       5.084  -4.254  22.277  0.00  0.00    -0.383 OA
ATOM     10  H   UNL     1       4.168  -4.417  22.594  0.00  0.00    +0.210 HD
ENDBRANCH   2   9
BRANCH   3  11
ATOM     11  O   UNL     1       7.506  -3.659  22.395  0.00  0.00    -0.385 OA
ATOM     12  H   UNL     1       7.330  -3.708  21.438  0.00  0.00    +0.210 HD
ENDBRANCH   3  11
BRANCH   5  13
ATOM     13  C   UNL     1       7.748  -5.411  26.730  0.00  0.00    +0.372 C 
ATOM     14  O   UNL     1       7.190  -5.692  27.776  0.00  0.00    -0.242 OA
BRANCH  13  15
ATOM     15  O   UNL     1       9.052  -5.061  26.641  0.00  0.00    -0.475 OA
ATOM     16  H   UNL     1       9.160  -4.104  26.820  0.00  0.00    +0.296 HD
ENDBRANCH  13  15
ENDBRANCH   5  13
TORSDOF 5
ENDMDL
MODEL 6
REMARK VINA RESULT:      -4.7      2.796      4.477
REMARK  Name = 
REMARK  5 active torsions:
REMARK  status: ('A' for Active; 'I' for Inactive)
REMARK    1  A    between atoms: O_1  and  C_2
REMARK    2  A    between atoms: C_5  and  C_13
REMARK    3  A    between atoms: C_7  and  O_9
REMARK    4  A    between atoms: C_10  and  O_12
REMARK    5  A    between atoms: C_13  and  O_14
REMARK                            x       y       z     vdW  Elec       q    Type
REMARK                         _______ _______ _______ _____ _____    ______ ____
ROOT
ATOM      1  C   UNL     1       9.212  -4.301  24.962  0.00  0.00    +0.337 C 
ATOM      2  C   UNL     1       7.848  -4.779  24.413  0.00  0.00    +0.215 C 
ATOM      3  C   UNL     1       7.361  -4.079  23.133  0.00  0.00    +0.176 C 
ATOM      4  C   UNL     1       8.168  -2.917  22.705  0.00  0.00    +0.060 C 
ATOM      5  C   UNL     1       9.293  -2.535  23.318  0.00  0.00    +0.206 C 
ATOM      6  O   UNL     1       9.823  -3.132  24.430  0.00  0.00    -0.454 OA
ENDROOT
BRANCH   1   7
ATOM      7  O   UNL     1      10.163  -5.363  24.856  0.00  0.00    -0.356 OA
ATOM      8  H   UNL     1      11.024  -4.932  24.723  0.00  0.00    +0.214 HD
ENDBRANCH   1   7
BRANCH   2   9
ATOM      9  O   UNL     1       6.855  -4.645  25.458  0.00  0.00    -0.383 OA
ATOM     10  H   UNL     1       6.904  -3.700  25.727  0.00  0.00    +0.210 HD
ENDBRANCH   2   9
BRANCH   3  11
ATOM     11  O   UNL     1       6.003  -3.655  23.331  0.00  0.00    -0.385 OA
ATOM     12  H   UNL     1       5.995  -2.683  23.389  0.00  0.00    +0.210 HD
ENDBRANCH   3  11
BRANCH   5  13
ATOM     13  C   UNL     1      10.055  -1.385  22.740  0.00  0.00    +0.372 C 
ATOM     14  O   UNL     1      10.487  -0.437  23.373  0.00  0.00    -0.242 OA
BRANCH  13  15
ATOM     15  O   UNL     1      10.193  -1.523  21.402  0.00  0.00    -0.475 OA
ATOM     16  H   UNL     1      10.329  -2.465  21.169  0.00  0.00    +0.296 HD
ENDBRANCH  13  15
ENDBRANCH   5  13
TORSDOF 5
ENDMDL
MODEL 7
REMARK VINA RESULT:      -4.7      1.921      4.788
REMARK  Name = 
REMARK  5 active torsions:
REMARK  status: ('A' for Active; 'I' for Inactive)
REMARK    1  A    between atoms: O_1  and  C_2
REMARK    2  A    between atoms: C_5  and  C_13
REMARK    3  A    between atoms: C_7  and  O_9
REMARK    4  A    between atoms: C_10  and  O_12
REMARK    5  A    between atoms: C_13  and  O_14
REMARK                            x       y       z     vdW  Elec       q    Type
REMARK                         _______ _______ _______ _____ _____    ______ ____
ROOT
ATOM      1  C   UNL     1       8.571  -4.714  24.385  0.00  0.00    +0.337 C 
ATOM      2  C   UNL     1       8.823  -3.214  24.111  0.00  0.00    +0.215 C 
ATOM      3  C   UNL     1       7.999  -2.596  22.969  0.00  0.00    +0.176 C 
ATOM      4  C   UNL     1       7.217  -3.558  22.165  0.00  0.00    +0.060 C 
ATOM      5  C   UNL     1       7.145  -4.864  22.443  0.00  0.00    +0.206 C 
ATOM      6  O   UNL     1       7.804  -5.486  23.468  0.00  0.00    -0.454 OA
ENDROOT
BRANCH   1   7
ATOM      7  O   UNL     1       7.971  -4.866  25.673  0.00  0.00    -0.356 OA
ATOM      8  H   UNL     1       7.994  -3.983  26.080  0.00  0.00    +0.214 HD
ENDBRANCH   1   7
BRANCH   2   9
ATOM      9  O   UNL     1      10.236  -3.020  23.863  0.00  0.00    -0.383 OA
ATOM     10  H   UNL     1      10.281  -2.217  23.299  0.00  0.00    +0.210 HD
ENDBRANCH   2   9
BRANCH   3  11
ATOM     11  O   UNL     1       8.888  -1.877  22.100  0.00  0.00    -0.385 OA
ATOM     12  H   UNL     1       9.563  -1.443  22.651  0.00  0.00    +0.210 HD
ENDBRANCH   3  11
BRANCH   5  13
ATOM     13  C   UNL     1       6.260  -5.718  21.592  0.00  0.00    +0.372 C 
ATOM     14  O   UNL     1       5.986  -5.504  20.423  0.00  0.00    -0.242 OA
BRANCH  13  15
ATOM     15  O   UNL     1       5.780  -6.767  22.298  0.00  0.00    -0.475 OA
ATOM     16  H   UNL     1       4.834  -6.628  22.515  0.00  0.00    +0.296 HD
ENDBRANCH  13  15
ENDBRANCH   5  13
TORSDOF 5
ENDMDL
MODEL 8
REMARK VINA RESULT:      -4.7      5.844      7.482
REMARK  Name = 
REMARK  5 active torsions:
REMARK  status: ('A' for Active; 'I' for Inactive)
REMARK    1  A    between atoms: O_1  and  C_2
REMARK    2  A    between atoms: C_5  and  C_13
REMARK    3  A    between atoms: C_7  and  O_9
REMARK    4  A    between atoms: C_10  and  O_12
REMARK    5  A    between atoms: C_13  and  O_14
REMARK                            x       y       z     vdW  Elec       q    Type
REMARK                         _______ _______ _______ _____ _____    ______ ____
ROOT
ATOM      1  C   UNL     1       9.484   1.890  22.320  0.00  0.00    +0.337 C 
ATOM      2  C   UNL     1       9.305   2.409  23.766  0.00  0.00    +0.215 C 
ATOM      3  C   UNL     1       9.573   1.383  24.880  0.00  0.00    +0.176 C 
ATOM      4  C   UNL     1       9.783  -0.006  24.421  0.00  0.00    +0.060 C 
ATOM      5  C   UNL     1       9.828  -0.357  23.132  0.00  0.00    +0.206 C 
ATOM      6  O   UNL     1       9.649   0.498  22.078  0.00  0.00    -0.454 OA
ENDROOT
BRANCH   1   7
ATOM      7  O   UNL     1      10.589   2.562  21.710  0.00  0.00    -0.356 OA
ATOM      8  H   UNL     1      11.187   2.799  22.439  0.00  0.00    +0.214 HD
ENDBRANCH   1   7
BRANCH   2   9
ATOM      9  O   UNL     1       7.968   2.949  23.902  0.00  0.00    -0.383 OA
ATOM     10  H   UNL     1       7.375   2.174  23.786  0.00  0.00    +0.210 HD
ENDBRANCH   2   9
BRANCH   3  11
ATOM     11  O   UNL     1       8.472   1.409  25.801  0.00  0.00    -0.385 OA
ATOM     12  H   UNL     1       8.673   0.795  26.529  0.00  0.00    +0.210 HD
ENDBRANCH   3  11
BRANCH   5  13
ATOM     13  C   UNL     1      10.118  -1.786  22.800  0.00  0.00    +0.372 C 
ATOM     14  O   UNL     1      10.255  -2.684  23.613  0.00  0.00    -0.242 OA
BRANCH  13  15
ATOM     15  O   UNL     1      10.228  -1.957  21.463  0.00  0.00    -0.475 OA
ATOM     16  H   UNL     1      10.123  -1.099  21.001  0.00  0.00    +0.296 HD
ENDBRANCH  13  15
ENDBRANCH   5  13
TORSDOF 5
ENDMDL
MODEL 9
REMARK VINA RESULT:      -4.6      5.229      6.751
REMARK  Name = 
REMARK  5 active torsions:
REMARK  status: ('A' for Active; 'I' for Inactive)
REMARK    1  A    between atoms: O_1  and  C_2
REMARK    2  A    between atoms: C_5  and  C_13
REMARK    3  A    between atoms: C_7  and  O_9
REMARK    4  A    between atoms: C_10  and  O_12
REMARK    5  A    between atoms: C_13  and  O_14
REMARK                            x       y       z     vdW  Elec       q    Type
REMARK                         _______ _______ _______ _____ _____    ______ ____
ROOT
ATOM      1  C   UNL     1       9.321  -0.582  22.051  0.00  0.00    +0.337 C 
ATOM      2  C   UNL     1       9.907   0.844  21.938  0.00  0.00    +0.215 C 
ATOM      3  C   UNL     1      10.267   1.524  23.270  0.00  0.00    +0.176 C 
ATOM      4  C   UNL     1       9.834   0.803  24.484  0.00  0.00    +0.060 C 
ATOM      5  C   UNL     1       9.247  -0.398  24.457  0.00  0.00    +0.206 C 
ATOM      6  O   UNL     1       8.936  -1.095  23.321  0.00  0.00    -0.454 OA
ENDROOT
BRANCH   1   7
ATOM      7  O   UNL     1      10.237  -1.516  21.475  0.00  0.00    -0.356 OA
ATOM      8  H   UNL     1      11.124  -1.202  21.723  0.00  0.00    +0.214 HD
ENDBRANCH   1   7
BRANCH   2   9
ATOM      9  O   UNL     1       8.976   1.670  21.197  0.00  0.00    -0.383 OA
ATOM     10  H   UNL     1       8.820   2.448  21.777  0.00  0.00    +0.210 HD
ENDBRANCH   2   9
BRANCH   3  11
ATOM     11  O   UNL     1       9.694   2.841  23.281  0.00  0.00    -0.385 OA
ATOM     12  H   UNL     1      10.364   3.465  22.948  0.00  0.00    +0.210 HD
ENDBRANCH   3  11
BRANCH   5  13
ATOM     13  C   UNL     1       8.922  -1.054  25.762  0.00  0.00    +0.372 C 
ATOM     14  O   UNL     1       8.417  -2.155  25.890  0.00  0.00    -0.242 OA
BRANCH  13  15
ATOM     15  O   UNL     1       9.251  -0.249  26.799  0.00  0.00    -0.475 OA
ATOM     16  H   UNL     1       8.706   0.566  26.783  0.00  0.00    +0.296 HD
ENDBRANCH  13  15
ENDBRANCH   5  13
TORSDOF 5
ENDMDL
