MODEL 1
REMARK VINA RESULT:      -7.5      0.000      0.000
REMARK  Name = 
REMARK  6 active torsions:
REMARK  status: ('A' for Active; 'I' for Inactive)
REMARK    1  A    between atoms: C_1  and  C_2
REMARK    2  A    between atoms: C_2  and  C_3
REMARK    3  A    between atoms: C_3  and  O_4
REMARK    4  A    between atoms: O_4  and  C_5
REMARK    5  A    between atoms: C_8  and  C_9
REMARK    6  A    between atoms: C_9  and  C_10
REMARK                            x       y       z     vdW  Elec       q    Type
REMARK                         _______ _______ _______ _____ _____    ______ ____
ROOT
ATOM      1  C   UNL     1       9.918   0.596  22.563  0.00  0.00    +0.121 A 
ATOM      2  C   UNL     1      10.172   0.166  23.866  0.00  0.00    +0.046 A 
ATOM      3  C   UNL     1       9.804  -1.125  24.266  0.00  0.00    +0.007 A 
ATOM      4  C   UNL     1       9.177  -1.998  23.366  0.00  0.00    -0.046 A 
ATOM      5  C   UNL     1       8.993  -1.581  22.045  0.00  0.00    +0.007 A 
ATOM      6  C   UNL     1       9.375  -0.304  21.645  0.00  0.00    +0.046 A 
ENDROOT
BRANCH   1   7
ATOM      7  O   UNL     1      10.201   1.912  22.295  0.00  0.00    -0.491 OA
BRANCH   7   8
ATOM      8  C   UNL     1      10.393   2.721  23.460  0.00  0.00    +0.235 C 
BRANCH   8  10
ATOM      9  C   UNL     1       8.587   3.469  24.963  0.00  0.00    +0.014 C 
ATOM     10  C   UNL     1       9.297   3.795  23.632  0.00  0.00    +0.002 C 
ATOM     11  C   UNL     1       9.934   5.204  23.697  0.00  0.00    +0.010 C 
ATOM     12  C   UNL     1       8.896   6.327  23.725  0.00  0.00    +0.001 C 
ATOM     13  C   UNL     1       7.918   6.220  22.559  0.00  0.00    +0.000 C 
ATOM     14  C   UNL     1       7.265   4.844  22.478  0.00  0.00    +0.001 C 
ATOM     15  C   UNL     1       8.308   3.729  22.450  0.00  0.00    +0.010 C 
ENDBRANCH   8  10
ENDBRANCH   7   8
ENDBRANCH   1   7
BRANCH   4  16
ATOM     16  C   UNL     1       8.584  -3.302  23.844  0.00  0.00    +0.059 C 
BRANCH  16  17
ATOM     17  C   UNL     1       8.708  -3.589  25.340  0.00  0.00    +0.146 C 
ATOM     18  C   UNL     1       9.431  -4.900  25.561  0.00  0.00    +0.234 C 
ATOM     19  O   UNL     1      10.519  -5.190  25.084  0.00  0.00    -0.274 OA
ATOM     20  N   UNL     1       8.740  -5.730  26.388  0.00  0.00    -0.246 N 
ATOM     21  H   UNL     1       9.115  -6.626  26.655  0.00  0.00    +0.158 HD
ATOM     22  C   UNL     1       7.534  -5.331  26.850  0.00  0.00    +0.279 C 
ATOM     23  O   UNL     1       6.835  -5.957  27.625  0.00  0.00    -0.263 OA
ATOM     24  S   UNL     1       7.099  -3.785  26.176  0.00  0.00    -0.054 S 
ENDBRANCH  16  17
ENDBRANCH   4  16
TORSDOF 5
ENDMDL
MODEL 2
REMARK VINA RESULT:      -7.0      3.731      8.236
REMARK  Name = 
REMARK  6 active torsions:
REMARK  status: ('A' for Active; 'I' for Inactive)
REMARK    1  A    between atoms: C_1  and  C_2
REMARK    2  A    between atoms: C_2  and  C_3
REMARK    3  A    between atoms: C_3  and  O_4
REMARK    4  A    between atoms: O_4  and  C_5
REMARK    5  A    between atoms: C_8  and  C_9
REMARK    6  A    between atoms: C_9  and  C_10
REMARK                            x       y       z     vdW  Elec       q    Type
REMARK                         _______ _______ _______ _____ _____    ______ ____
ROOT
ATOM      1  C   UNL     1       9.871  -1.802  23.593  0.00  0.00    +0.121 A 
ATOM      2  C   UNL     1       9.837  -1.370  22.268  0.00  0.00    +0.046 A 
ATOM      3  C   UNL     1       9.955  -0.006  21.968  0.00  0.00    +0.007 A 
ATOM      4  C   UNL     1      10.107   0.937  22.994  0.00  0.00    -0.046 A 
ATOM      5  C   UNL     1      10.211   0.486  24.312  0.00  0.00    +0.007 A 
ATOM      6  C   UNL     1      10.111  -0.871  24.605  0.00  0.00    +0.046 A 
ENDROOT
BRANCH   1   7
ATOM      7  O   UNL     1       9.627  -3.137  23.801  0.00  0.00    -0.491 OA
BRANCH   7   8
ATOM      8  C   UNL     1       8.519  -3.403  24.667  0.00  0.00    +0.235 C 
BRANCH   8  10
ATOM      9  C   UNL     1       6.403  -4.608  25.064  0.00  0.00    +0.014 C 
ATOM     10  C   UNL     1       7.357  -4.127  23.950  0.00  0.00    +0.002 C 
ATOM     11  C   UNL     1       6.623  -3.151  23.001  0.00  0.00    +0.010 C 
ATOM     12  C   UNL     1       5.551  -3.836  22.153  0.00  0.00    +0.001 C 
ATOM     13  C   UNL     1       6.115  -5.027  21.385  0.00  0.00    +0.000 C 
ATOM     14  C   UNL     1       6.835  -6.013  22.298  0.00  0.00    +0.001 C 
ATOM     15  C   UNL     1       7.904  -5.321  23.140  0.00  0.00    +0.010 C 
ENDBRANCH   8  10
ENDBRANCH   7   8
ENDBRANCH   1   7
BRANCH   4  16
ATOM     16  C   UNL     1      10.016   2.417  22.699  0.00  0.00    +0.059 C 
BRANCH  16  17
ATOM     17  C   UNL     1       8.793   3.140  23.264  0.00  0.00    +0.146 C 
ATOM     18  C   UNL     1       7.726   3.269  22.198  0.00  0.00    +0.234 C 
ATOM     19  O   UNL     1       7.278   2.343  21.538  0.00  0.00    -0.274 OA
ATOM     20  N   UNL     1       7.288   4.551  22.069  0.00  0.00    -0.246 N 
ATOM     21  H   UNL     1       6.552   4.784  21.422  0.00  0.00    +0.158 HD
ATOM     22  C   UNL     1       7.859   5.512  22.828  0.00  0.00    +0.279 C 
ATOM     23  O   UNL     1       7.533   6.686  22.839  0.00  0.00    -0.263 OA
ATOM     24  S   UNL     1       9.145   4.848  23.796  0.00  0.00    -0.054 S 
ENDBRANCH  16  17
ENDBRANCH   4  16
TORSDOF 5
ENDMDL
MODEL 3
REMARK VINA RESULT:      -7.0      3.757      8.354
REMARK  Name = 
REMARK  6 active torsions:
REMARK  status: ('A' for Active; 'I' for Inactive)
REMARK    1  A    between atoms: C_1  and  C_2
REMARK    2  A    between atoms: C_2  and  C_3
REMARK    3  A    between atoms: C_3  and  O_4
REMARK    4  A    between atoms: O_4  and  C_5
REMARK    5  A    between atoms: C_8  and  C_9
REMARK    6  A    between atoms: C_9  and  C_10
REMARK                            x       y       z     vdW  Elec       q    Type
REMARK                         _______ _______ _______ _____ _____    ______ ____
ROOT
ATOM      1  C   UNL     1       9.802  -1.932  23.533  0.00  0.00    +0.121 A 
ATOM      2  C   UNL     1       9.777  -1.501  22.207  0.00  0.00    +0.046 A 
ATOM      3  C   UNL     1       9.946  -0.142  21.904  0.00  0.00    +0.007 A 
ATOM      4  C   UNL     1      10.140   0.795  22.928  0.00  0.00    -0.046 A 
ATOM      5  C   UNL     1      10.235   0.342  24.246  0.00  0.00    +0.007 A 
ATOM      6  C   UNL     1      10.085  -1.010  24.542  0.00  0.00    +0.046 A 
ENDROOT
BRANCH   1   7
ATOM      7  O   UNL     1       9.509  -3.256  23.744  0.00  0.00    -0.491 OA
BRANCH   7   8
ATOM      8  C   UNL     1       8.385  -3.479  24.602  0.00  0.00    +0.235 C 
BRANCH   8  10
ATOM      9  C   UNL     1       6.255  -2.680  23.649  0.00  0.00    +0.014 C 
ATOM     10  C   UNL     1       7.126  -3.940  23.835  0.00  0.00    +0.002 C 
ATOM     11  C   UNL     1       7.522  -4.525  22.459  0.00  0.00    +0.010 C 
ATOM     12  C   UNL     1       6.338  -5.131  21.704  0.00  0.00    +0.001 C 
ATOM     13  C   UNL     1       5.603  -6.167  22.549  0.00  0.00    +0.000 C 
ATOM     14  C   UNL     1       5.189  -5.614  23.908  0.00  0.00    +0.001 C 
ATOM     15  C   UNL     1       6.377  -5.012  24.655  0.00  0.00    +0.010 C 
ENDBRANCH   8  10
ENDBRANCH   7   8
ENDBRANCH   1   7
BRANCH   4  16
ATOM     16  C   UNL     1      10.103   2.277  22.632  0.00  0.00    +0.059 C 
BRANCH  16  17
ATOM     17  C   UNL     1       8.980   3.068  23.301  0.00  0.00    +0.146 C 
ATOM     18  C   UNL     1       7.876   3.350  22.305  0.00  0.00    +0.234 C 
ATOM     19  O   UNL     1       7.314   2.504  21.623  0.00  0.00    -0.274 OA
ATOM     20  N   UNL     1       7.547   4.670  22.268  0.00  0.00    -0.246 N 
ATOM     21  H   UNL     1       6.803   5.002  21.677  0.00  0.00    +0.158 HD
ATOM     22  C   UNL     1       8.239   5.533  23.044  0.00  0.00    +0.279 C 
ATOM     23  O   UNL     1       8.019   6.727  23.136  0.00  0.00    -0.263 OA
ATOM     24  S   UNL     1       9.509   4.707  23.903  0.00  0.00    -0.054 S 
ENDBRANCH  16  17
ENDBRANCH   4  16
TORSDOF 5
ENDMDL
MODEL 4
REMARK VINA RESULT:      -6.9      3.857      8.287
REMARK  Name = 
REMARK  6 active torsions:
REMARK  status: ('A' for Active; 'I' for Inactive)
REMARK    1  A    between atoms: C_1  and  C_2
REMARK    2  A    between atoms: C_2  and  C_3
REMARK    3  A    between atoms: C_3  and  O_4
REMARK    4  A    between atoms: O_4  and  C_5
REMARK    5  A    between atoms: C_8  and  C_9
REMARK    6  A    between atoms: C_9  and  C_10
REMARK                            x       y       z     vdW  Elec       q    Type
REMARK                         _______ _______ _______ _____ _____    ______ ____
ROOT
ATOM      1  C   UNL     1       9.423  -1.034  22.512  0.00  0.00    +0.121 A 
ATOM      2  C   UNL     1       9.337  -0.014  21.566  0.00  0.00    +0.046 A 
ATOM      3  C   UNL     1       9.800   1.273  21.873  0.00  0.00    +0.007 A 
ATOM      4  C   UNL     1      10.353   1.548  23.131  0.00  0.00    -0.046 A 
ATOM      5  C   UNL     1      10.499   0.501  24.045  0.00  0.00    +0.007 A 
ATOM      6  C   UNL     1      10.054  -0.780  23.731  0.00  0.00    +0.046 A 
ENDROOT
BRANCH   1   7
ATOM      7  O   UNL     1       8.836  -2.228  22.170  0.00  0.00    -0.491 OA
BRANCH   7   8
ATOM      8  C   UNL     1       8.412  -3.015  23.287  0.00  0.00    +0.235 C 
BRANCH   8  10
ATOM      9  C   UNL     1       6.112  -2.600  22.498  0.00  0.00    +0.014 C 
ATOM     10  C   UNL     1       7.044  -3.696  23.057  0.00  0.00    +0.002 C 
ATOM     11  C   UNL     1       7.186  -4.850  22.037  0.00  0.00    +0.010 C 
ATOM     12  C   UNL     1       5.899  -5.658  21.869  0.00  0.00    +0.001 C 
ATOM     13  C   UNL     1       5.376  -6.171  23.207  0.00  0.00    +0.000 C 
ATOM     14  C   UNL     1       5.214  -5.052  24.230  0.00  0.00    +0.001 C 
ATOM     15  C   UNL     1       6.503  -4.250  24.393  0.00  0.00    +0.010 C 
ENDBRANCH   8  10
ENDBRANCH   7   8
ENDBRANCH   1   7
BRANCH   4  16
ATOM     16  C   UNL     1      10.651   2.970  23.547  0.00  0.00    +0.059 C 
BRANCH  16  17
ATOM     17  C   UNL     1       9.447   3.903  23.661  0.00  0.00    +0.146 C 
ATOM     18  C   UNL     1       9.899   5.290  24.065  0.00  0.00    +0.234 C 
ATOM     19  O   UNL     1      10.760   5.942  23.493  0.00  0.00    -0.274 OA
ATOM     20  N   UNL     1       9.209   5.757  25.142  0.00  0.00    -0.246 N 
ATOM     21  H   UNL     1       9.376   6.682  25.502  0.00  0.00    +0.158 HD
ATOM     22  C   UNL     1       8.289   4.955  25.721  0.00  0.00    +0.279 C 
ATOM     23  O   UNL     1       7.578   5.265  26.659  0.00  0.00    -0.263 OA
ATOM     24  S   UNL     1       8.257   3.396  24.946  0.00  0.00    -0.054 S 
ENDBRANCH  16  17
ENDBRANCH   4  16
TORSDOF 5
ENDMDL
MODEL 5
REMARK VINA RESULT:      -6.8      1.913      2.346
REMARK  Name = 
REMARK  6 active torsions:
REMARK  status: ('A' for Active; 'I' for Inactive)
REMARK    1  A    between atoms: C_1  and  C_2
REMARK    2  A    between atoms: C_2  and  C_3
REMARK    3  A    between atoms: C_3  and  O_4
REMARK    4  A    between atoms: O_4  and  C_5
REMARK    5  A    between atoms: C_8  and  C_9
REMARK    6  A    between atoms: C_9  and  C_10
REMARK                            x       y       z     vdW  Elec       q    Type
REMARK                         _______ _______ _______ _____ _____    ______ ____
ROOT
ATOM      1  C   UNL     1      10.171   1.555  23.076  0.00  0.00    +0.121 A 
ATOM      2  C   UNL     1       9.890   0.728  21.989  0.00  0.00    +0.046 A 
ATOM      3  C   UNL     1       9.632  -0.635  22.188  0.00  0.00    +0.007 A 
ATOM      4  C   UNL     1       9.654  -1.182  23.479  0.00  0.00    -0.046 A 
ATOM      5  C   UNL     1       9.866  -0.330  24.566  0.00  0.00    +0.007 A 
ATOM      6  C   UNL     1      10.104   1.027  24.367  0.00  0.00    +0.046 A 
ENDROOT
BRANCH   1   7
ATOM      7  O   UNL     1      10.530   2.846  22.777  0.00  0.00    -0.491 OA
BRANCH   7   8
ATOM      8  C   UNL     1      10.389   3.762  23.868  0.00  0.00    +0.235 C 
BRANCH   8  10
ATOM      9  C   UNL     1       8.384   4.418  25.146  0.00  0.00    +0.014 C 
ATOM     10  C   UNL     1       9.092   4.597  23.787  0.00  0.00    +0.002 C 
ATOM     11  C   UNL     1       9.430   6.088  23.551  0.00  0.00    +0.010 C 
ATOM     12  C   UNL     1       8.189   6.952  23.319  0.00  0.00    +0.001 C 
ATOM     13  C   UNL     1       7.323   6.401  22.191  0.00  0.00    +0.000 C 
ATOM     14  C   UNL     1       6.963   4.935  22.402  0.00  0.00    +0.001 C 
ATOM     15  C   UNL     1       8.207   4.080  22.633  0.00  0.00    +0.010 C 
ENDBRANCH   8  10
ENDBRANCH   7   8
ENDBRANCH   1   7
BRANCH   4  16
ATOM     16  C   UNL     1       9.595  -2.678  23.683  0.00  0.00    +0.059 C 
BRANCH  16  17
ATOM     17  C   UNL     1       8.236  -3.247  24.087  0.00  0.00    +0.146 C 
ATOM     18  C   UNL     1       8.226  -4.750  23.906  0.00  0.00    +0.234 C 
ATOM     19  O   UNL     1       9.052  -5.519  24.376  0.00  0.00    -0.274 OA
ATOM     20  N   UNL     1       7.160  -5.167  23.170  0.00  0.00    -0.246 N 
ATOM     21  H   UNL     1       7.001  -6.146  22.997  0.00  0.00    +0.158 HD
ATOM     22  C   UNL     1       6.311  -4.241  22.674  0.00  0.00    +0.279 C 
ATOM     23  O   UNL     1       5.301  -4.481  22.038  0.00  0.00    -0.263 OA
ATOM     24  S   UNL     1       6.860  -2.634  23.060  0.00  0.00    -0.054 S 
ENDBRANCH  16  17
ENDBRANCH   4  16
TORSDOF 5
ENDMDL
MODEL 6
REMARK VINA RESULT:      -6.8      3.176      7.471
REMARK  Name = 
REMARK  6 active torsions:
REMARK  status: ('A' for Active; 'I' for Inactive)
REMARK    1  A    between atoms: C_1  and  C_2
REMARK    2  A    between atoms: C_2  and  C_3
REMARK    3  A    between atoms: C_3  and  O_4
REMARK    4  A    between atoms: O_4  and  C_5
REMARK    5  A    between atoms: C_8  and  C_9
REMARK    6  A    between atoms: C_9  and  C_10
REMARK                            x       y       z     vdW  Elec       q    Type
REMARK                         _______ _______ _______ _____ _____    ______ ____
ROOT
ATOM      1  C   UNL     1       9.803  -2.066  23.681  0.00  0.00    +0.121 A 
ATOM      2  C   UNL     1       9.734  -1.862  22.303  0.00  0.00    +0.046 A 
ATOM      3  C   UNL     1       9.791  -0.563  21.779  0.00  0.00    +0.007 A 
ATOM      4  C   UNL     1       9.918   0.542  22.631  0.00  0.00    -0.046 A 
ATOM      5  C   UNL     1      10.058   0.321  24.004  0.00  0.00    +0.007 A 
ATOM      6  C   UNL     1      10.018  -0.971  24.520  0.00  0.00    +0.046 A 
ENDROOT
BRANCH   1   7
ATOM      7  O   UNL     1       9.617  -3.356  24.112  0.00  0.00    -0.491 OA
BRANCH   7   8
ATOM      8  C   UNL     1       8.472  -3.536  24.951  0.00  0.00    +0.235 C 
BRANCH   8  10
ATOM      9  C   UNL     1       6.473  -4.934  25.320  0.00  0.00    +0.014 C 
ATOM     10  C   UNL     1       7.298  -4.228  24.223  0.00  0.00    +0.002 C 
ATOM     11  C   UNL     1       6.428  -3.179  23.492  0.00  0.00    +0.010 C 
ATOM     12  C   UNL     1       5.330  -3.808  22.634  0.00  0.00    +0.001 C 
ATOM     13  C   UNL     1       5.896  -4.830  21.653  0.00  0.00    +0.000 C 
ATOM     14  C   UNL     1       6.749  -5.885  22.348  0.00  0.00    +0.001 C 
ATOM     15  C   UNL     1       7.844  -5.249  23.202  0.00  0.00    +0.010 C 
ENDBRANCH   8  10
ENDBRANCH   7   8
ENDBRANCH   1   7
BRANCH   4  16
ATOM     16  C   UNL     1       9.761   1.948  22.098  0.00  0.00    +0.059 C 
BRANCH  16  17
ATOM     17  C   UNL     1       8.412   2.617  22.355  0.00  0.00    +0.146 C 
ATOM     18  C   UNL     1       8.412   3.284  23.714  0.00  0.00    +0.234 C 
ATOM     19  O   UNL     1       9.250   4.085  24.102  0.00  0.00    -0.274 OA
ATOM     20  N   UNL     1       7.340   2.911  24.465  0.00  0.00    -0.246 N 
ATOM     21  H   UNL     1       7.188   3.302  25.380  0.00  0.00    +0.158 HD
ATOM     22  C   UNL     1       6.477   2.003  23.959  0.00  0.00    +0.279 C 
ATOM     23  O   UNL     1       5.461   1.616  24.507  0.00  0.00    -0.263 OA
ATOM     24  S   UNL     1       7.018   1.442  22.401  0.00  0.00    -0.054 S 
ENDBRANCH  16  17
ENDBRANCH   4  16
TORSDOF 5
ENDMDL
MODEL 7
REMARK VINA RESULT:      -6.7      2.270      3.222
REMARK  Name = 
REMARK  6 active torsions:
REMARK  status: ('A' for Active; 'I' for Inactive)
REMARK    1  A    between atoms: C_1  and  C_2
REMARK    2  A    between atoms: C_2  and  C_3
REMARK    3  A    between atoms: C_3  and  O_4
REMARK    4  A    between atoms: O_4  and  C_5
REMARK    5  A    between atoms: C_8  and  C_9
REMARK    6  A    between atoms: C_9  and  C_10
REMARK                            x       y       z     vdW  Elec       q    Type
REMARK                         _______ _______ _______ _____ _____    ______ ____
ROOT
ATOM      1  C   UNL     1       9.915   1.805  23.429  0.00  0.00    +0.121 A 
ATOM      2  C   UNL     1       9.961   1.048  22.259  0.00  0.00    +0.046 A 
ATOM      3  C   UNL     1       9.770  -0.340  22.309  0.00  0.00    +0.007 A 
ATOM      4  C   UNL     1       9.533  -0.981  23.533  0.00  0.00    -0.046 A 
ATOM      5  C   UNL     1       9.418  -0.204  24.688  0.00  0.00    +0.007 A 
ATOM      6  C   UNL     1       9.590   1.176  24.632  0.00  0.00    +0.046 A 
ENDROOT
BRANCH   1   7
ATOM      7  O   UNL     1      10.231   3.135  23.302  0.00  0.00    -0.491 OA
BRANCH   7   8
ATOM      8  C   UNL     1       9.224   4.027  23.789  0.00  0.00    +0.235 C 
BRANCH   8  10
ATOM      9  C   UNL     1       9.223   6.404  23.129  0.00  0.00    +0.014 C 
ATOM     10  C   UNL     1       9.786   5.414  24.171  0.00  0.00    +0.002 C 
ATOM     11  C   UNL     1       9.316   5.809  25.591  0.00  0.00    +0.010 C 
ATOM     12  C   UNL     1       9.950   7.108  26.090  0.00  0.00    +0.001 C 
ATOM     13  C   UNL     1      11.473   7.059  26.010  0.00  0.00    +0.000 C 
ATOM     14  C   UNL     1      11.966   6.684  24.617  0.00  0.00    +0.001 C 
ATOM     15  C   UNL     1      11.328   5.386  24.126  0.00  0.00    +0.010 C 
ENDBRANCH   8  10
ENDBRANCH   7   8
ENDBRANCH   1   7
BRANCH   4  16
ATOM     16  C   UNL     1       9.545  -2.489  23.627  0.00  0.00    +0.059 C 
BRANCH  16  17
ATOM     17  C   UNL     1       8.189  -3.160  23.840  0.00  0.00    +0.146 C 
ATOM     18  C   UNL     1       8.330  -4.664  23.748  0.00  0.00    +0.234 C 
ATOM     19  O   UNL     1       9.126  -5.333  24.391  0.00  0.00    -0.274 OA
ATOM     20  N   UNL     1       7.439  -5.208  22.876  0.00  0.00    -0.246 N 
ATOM     21  H   UNL     1       7.391  -6.204  22.738  0.00  0.00    +0.158 HD
ATOM     22  C   UNL     1       6.612  -4.385  22.195  0.00  0.00    +0.279 C 
ATOM     23  O   UNL     1       5.744  -4.744  21.420  0.00  0.00    -0.263 OA
ATOM     24  S   UNL     1       6.957  -2.719  22.569  0.00  0.00    -0.054 S 
ENDBRANCH  16  17
ENDBRANCH   4  16
TORSDOF 5
ENDMDL
MODEL 8
REMARK VINA RESULT:      -6.7      3.879      8.150
REMARK  Name = 
REMARK  6 active torsions:
REMARK  status: ('A' for Active; 'I' for Inactive)
REMARK    1  A    between atoms: C_1  and  C_2
REMARK    2  A    between atoms: C_2  and  C_3
REMARK    3  A    between atoms: C_3  and  O_4
REMARK    4  A    between atoms: O_4  and  C_5
REMARK    5  A    between atoms: C_8  and  C_9
REMARK    6  A    between atoms: C_9  and  C_10
REMARK                            x       y       z     vdW  Elec       q    Type
REMARK                         _______ _______ _______ _____ _____    ______ ____
ROOT
ATOM      1  C   UNL     1      10.039  -0.412  22.935  0.00  0.00    +0.121 A 
ATOM      2  C   UNL     1       9.653   0.260  21.775  0.00  0.00    +0.046 A 
ATOM      3  C   UNL     1       9.257   1.602  21.838  0.00  0.00    +0.007 A 
ATOM      4  C   UNL     1       9.242   2.283  23.063  0.00  0.00    -0.046 A 
ATOM      5  C   UNL     1       9.698   1.621  24.205  0.00  0.00    +0.007 A 
ATOM      6  C   UNL     1      10.108   0.293  24.137  0.00  0.00    +0.046 A 
ENDROOT
BRANCH   1   7
ATOM      7  O   UNL     1      10.294  -1.755  22.799  0.00  0.00    -0.491 OA
BRANCH   7   8
ATOM      8  C   UNL     1       9.880  -2.547  23.917  0.00  0.00    +0.235 C 
BRANCH   8  10
ATOM      9  C   UNL     1       7.573  -2.263  24.743  0.00  0.00    +0.014 C 
ATOM     10  C   UNL     1       8.440  -3.087  23.768  0.00  0.00    +0.002 C 
ATOM     11  C   UNL     1       7.943  -2.894  22.316  0.00  0.00    +0.010 C 
ATOM     12  C   UNL     1       6.578  -3.535  22.062  0.00  0.00    +0.001 C 
ATOM     13  C   UNL     1       6.566  -5.009  22.455  0.00  0.00    +0.000 C 
ATOM     14  C   UNL     1       7.040  -5.229  23.887  0.00  0.00    +0.001 C 
ATOM     15  C   UNL     1       8.403  -4.587  24.132  0.00  0.00    +0.010 C 
ENDBRANCH   8  10
ENDBRANCH   7   8
ENDBRANCH   1   7
BRANCH   4  16
ATOM     16  C   UNL     1       8.613   3.653  23.175  0.00  0.00    +0.059 C 
BRANCH  16  17
ATOM     17  C   UNL     1       7.428   3.925  22.251  0.00  0.00    +0.146 C 
ATOM     18  C   UNL     1       7.083   5.399  22.265  0.00  0.00    +0.234 C 
ATOM     19  O   UNL     1       7.875   6.306  22.053  0.00  0.00    -0.274 OA
ATOM     20  N   UNL     1       5.763   5.612  22.518  0.00  0.00    -0.246 N 
ATOM     21  H   UNL     1       5.380   6.543  22.523  0.00  0.00    +0.158 HD
ATOM     22  C   UNL     1       4.969   4.546  22.762  0.00  0.00    +0.279 C 
ATOM     23  O   UNL     1       3.768   4.594  22.960  0.00  0.00    -0.263 OA
ATOM     24  S   UNL     1       5.899   3.074  22.763  0.00  0.00    -0.054 S 
ENDBRANCH  16  17
ENDBRANCH   4  16
TORSDOF 5
ENDMDL
MODEL 9
REMARK VINA RESULT:      -6.5      3.891      8.513
REMARK  Name = 
REMARK  6 active torsions:
REMARK  status: ('A' for Active; 'I' for Inactive)
REMARK    1  A    between atoms: C_1  and  C_2
REMARK    2  A    between atoms: C_2  and  C_3
REMARK    3  A    between atoms: C_3  and  O_4
REMARK    4  A    between atoms: O_4  and  C_5
REMARK    5  A    between atoms: C_8  and  C_9
REMARK    6  A    between atoms: C_9  and  C_10
REMARK                            x       y       z     vdW  Elec       q    Type
REMARK                         _______ _______ _______ _____ _____    ______ ____
ROOT
ATOM      1  C   UNL     1       9.270  -1.110  22.735  0.00  0.00    +0.121 A 
ATOM      2  C   UNL     1       9.574  -0.835  24.068  0.00  0.00    +0.046 A 
ATOM      3  C   UNL     1      10.113   0.408  24.426  0.00  0.00    +0.007 A 
ATOM      4  C   UNL     1      10.352   1.386  23.451  0.00  0.00    -0.046 A 
ATOM      5  C   UNL     1       9.976   1.125  22.131  0.00  0.00    +0.007 A 
ATOM      6  C   UNL     1       9.425  -0.104  21.781  0.00  0.00    +0.046 A 
ENDROOT
BRANCH   1   7
ATOM      7  O   UNL     1       8.861  -2.392  22.461  0.00  0.00    -0.491 OA
BRANCH   7   8
ATOM      8  C   UNL     1       7.586  -2.733  23.014  0.00  0.00    +0.235 C 
BRANCH   8  10
ATOM      9  C   UNL     1       7.380  -5.184  22.829  0.00  0.00    +0.014 C 
ATOM     10  C   UNL     1       7.618  -4.039  23.837  0.00  0.00    +0.002 C 
ATOM     11  C   UNL     1       8.995  -4.206  24.522  0.00  0.00    +0.010 C 
ATOM     12  C   UNL     1       9.050  -5.407  25.467  0.00  0.00    +0.001 C 
ATOM     13  C   UNL     1       7.927  -5.363  26.498  0.00  0.00    +0.000 C 
ATOM     14  C   UNL     1       6.555  -5.211  25.852  0.00  0.00    +0.001 C 
ATOM     15  C   UNL     1       6.509  -4.011  24.910  0.00  0.00    +0.010 C 
ENDBRANCH   8  10
ENDBRANCH   7   8
ENDBRANCH   1   7
BRANCH   4  16
ATOM     16  C   UNL     1      11.129   2.637  23.789  0.00  0.00    +0.059 C 
BRANCH  16  17
ATOM     17  C   UNL     1      10.519   3.956  23.316  0.00  0.00    +0.146 C 
ATOM     18  C   UNL     1      11.526   5.077  23.456  0.00  0.00    +0.234 C 
ATOM     19  O   UNL     1      12.659   5.062  22.998  0.00  0.00    -0.274 OA
ATOM     20  N   UNL     1      11.016   6.139  24.138  0.00  0.00    -0.246 N 
ATOM     21  H   UNL     1      11.560   6.974  24.278  0.00  0.00    +0.158 HD
ATOM     22  C   UNL     1       9.758   6.054  24.625  0.00  0.00    +0.279 C 
ATOM     23  O   UNL     1       9.170   6.943  25.214  0.00  0.00    -0.263 OA
ATOM     24  S   UNL     1       9.079   4.483  24.305  0.00  0.00    -0.054 S 
ENDBRANCH  16  17
ENDBRANCH   4  16
TORSDOF 5
ENDMDL
