MODEL 1
REMARK VINA RESULT:      -6.8      0.000      0.000
REMARK  Name = 
REMARK  4 active torsions:
REMARK  status: ('A' for Active; 'I' for Inactive)
REMARK    1  A    between atoms: C_2  and  C_3
REMARK    2  A    between atoms: C_3  and  C_4
REMARK    3  A    between atoms: N_10  and  C_11
REMARK    4  A    between atoms: C_24  and  C_26
REMARK                            x       y       z     vdW  Elec       q    Type
REMARK                         _______ _______ _______ _____ _____    ______ ____
ROOT
ATOM      1  C   UNL     1       8.358  -2.247  24.245  0.00  0.00    +0.253 A 
ATOM      2  N   UNL     1       7.181  -1.780  24.647  0.00  0.00    -0.195 NA
ATOM      3  C   UNL     1       6.081  -2.516  24.389  0.00  0.00    +0.137 A 
ATOM      4  N   UNL     1       4.849  -2.087  24.946  0.00  0.00    -0.282 N 
ATOM      5  H   UNL     1       4.067  -2.172  24.311  0.00  0.00    +0.155 HD
ATOM      6  C   UNL     1       4.665  -1.264  26.008  0.00  0.00    +0.146 A 
ATOM      7  C   UNL     1       5.678  -0.905  26.920  0.00  0.00    +0.068 A 
ATOM      8  C   UNL     1       5.081  -0.137  27.880  0.00  0.00    +0.041 A 
ATOM      9  N   UNL     1       3.772  -0.055  27.515  0.00  0.00    -0.280 N 
ATOM     10  H   UNL     1       3.017   0.431  27.983  0.00  0.00    +0.189 HD
ATOM     11  N   UNL     1       3.489  -0.736  26.376  0.00  0.00    -0.158 NA
ATOM     12  C   UNL     1       6.165  -3.738  23.688  0.00  0.00    +0.041 A 
ATOM     13  C   UNL     1       7.464  -4.111  23.314  0.00  0.00    +0.078 A 
ATOM     14  C   UNL     1       7.674  -5.322  22.674  0.00  0.00    +0.028 A 
ATOM     15  C   UNL     1       6.623  -6.179  22.364  0.00  0.00    +0.002 A 
ATOM     16  C   UNL     1       5.325  -5.817  22.705  0.00  0.00    +0.001 A 
ATOM     17  C   UNL     1       5.092  -4.615  23.375  0.00  0.00    +0.013 A 
ATOM     18  N   UNL     1       8.538  -3.372  23.558  0.00  0.00    -0.211 NA
ENDROOT
BRANCH   1  23
ATOM     19  C   UNL     1      10.040   2.269  22.687  0.00  0.00    +0.048 C 
ATOM     20  C   UNL     1       9.308   1.172  21.953  0.00  0.00    -0.016 C 
ATOM     21  C   UNL     1       9.195  -0.079  22.414  0.00  0.00    +0.024 C 
ATOM     22  C   UNL     1       9.779  -0.453  23.738  0.00  0.00    +0.067 C 
ATOM     23  N   UNL     1       9.458  -1.437  24.515  0.00  0.00    -0.211 NA
ATOM     24  C   UNL     1      10.878   0.447  24.199  0.00  0.00    +0.024 C 
ATOM     25  C   UNL     1      10.988   1.692  23.712  0.00  0.00    -0.016 C 
BRANCH  19  26
ATOM     26  C   UNL     1       9.073   3.243  23.385  0.00  0.00    +0.130 C 
BRANCH  26  28
ATOM     27  N   UNL     1       6.677   3.472  21.993  0.00  0.00    -0.197 NA
ATOM     28  C   UNL     1       7.763   3.367  22.625  0.00  0.00    +0.063 C 
ENDBRANCH  26  28
ENDBRANCH  19  26
ENDBRANCH   1  23
BRANCH   8  29
ATOM     29  C   UNL     1       5.847   0.402  29.063  0.00  0.00    +0.037 C 
ATOM     30  C   UNL     1       5.875   1.893  29.288  0.00  0.00    +0.010 C 
ATOM     31  C   UNL     1       7.129   1.175  28.920  0.00  0.00    +0.010 C 
ENDBRANCH   8  29
TORSDOF 4
ENDMDL
MODEL 2
REMARK VINA RESULT:      -6.7      2.180      6.237
REMARK  Name = 
REMARK  4 active torsions:
REMARK  status: ('A' for Active; 'I' for Inactive)
REMARK    1  A    between atoms: C_2  and  C_3
REMARK    2  A    between atoms: C_3  and  C_4
REMARK    3  A    between atoms: N_10  and  C_11
REMARK    4  A    between atoms: C_24  and  C_26
REMARK                            x       y       z     vdW  Elec       q    Type
REMARK                         _______ _______ _______ _____ _____    ______ ____
ROOT
ATOM      1  C   UNL     1       6.983  -0.828  23.342  0.00  0.00    +0.253 A 
ATOM      2  N   UNL     1       7.004  -0.542  24.640  0.00  0.00    -0.195 NA
ATOM      3  C   UNL     1       7.900   0.363  25.079  0.00  0.00    +0.137 A 
ATOM      4  N   UNL     1       7.823   0.771  26.436  0.00  0.00    -0.282 N 
ATOM      5  H   UNL     1       8.724   0.861  26.883  0.00  0.00    +0.155 HD
ATOM      6  C   UNL     1       6.755   0.678  27.266  0.00  0.00    +0.146 A 
ATOM      7  C   UNL     1       5.438   0.405  26.841  0.00  0.00    +0.068 A 
ATOM      8  C   UNL     1       4.649   0.474  27.954  0.00  0.00    +0.041 A 
ATOM      9  N   UNL     1       5.495   0.765  28.980  0.00  0.00    -0.280 N 
ATOM     10  H   UNL     1       5.275   0.896  29.960  0.00  0.00    +0.189 HD
ATOM     11  N   UNL     1       6.787   0.898  28.587  0.00  0.00    -0.158 NA
ATOM     12  C   UNL     1       8.813   0.978  24.196  0.00  0.00    +0.041 A 
ATOM     13  C   UNL     1       8.690   0.583  22.857  0.00  0.00    +0.078 A 
ATOM     14  C   UNL     1       9.493   1.168  21.890  0.00  0.00    +0.028 A 
ATOM     15  C   UNL     1      10.448   2.126  22.213  0.00  0.00    +0.002 A 
ATOM     16  C   UNL     1      10.603   2.515  23.539  0.00  0.00    +0.001 A 
ATOM     17  C   UNL     1       9.785   1.961  24.526  0.00  0.00    +0.013 A 
ATOM     18  N   UNL     1       7.815  -0.322  22.436  0.00  0.00    -0.211 NA
ENDROOT
BRANCH   1  23
ATOM     19  C   UNL     1       5.988  -5.652  24.516  0.00  0.00    +0.048 C 
ATOM     20  C   UNL     1       7.293  -4.901  24.416  0.00  0.00    -0.016 C 
ATOM     21  C   UNL     1       7.420  -3.716  23.807  0.00  0.00    +0.024 C 
ATOM     22  C   UNL     1       6.228  -3.042  23.207  0.00  0.00    +0.067 C 
ATOM     23  N   UNL     1       6.055  -1.787  22.945  0.00  0.00    -0.211 NA
ATOM     24  C   UNL     1       5.103  -3.967  22.877  0.00  0.00    +0.024 C 
ATOM     25  C   UNL     1       5.001  -5.160  23.483  0.00  0.00    -0.016 C 
BRANCH  19  26
ATOM     26  C   UNL     1       5.356  -5.531  25.915  0.00  0.00    +0.130 C 
BRANCH  26  28
ATOM     27  N   UNL     1       7.265  -5.797  27.919  0.00  0.00    -0.197 NA
ATOM     28  C   UNL     1       6.400  -5.677  27.011  0.00  0.00    +0.063 C 
ENDBRANCH  26  28
ENDBRANCH  19  26
ENDBRANCH   1  23
BRANCH   8  29
ATOM     29  C   UNL     1       3.154   0.282  27.886  0.00  0.00    +0.037 C 
ATOM     30  C   UNL     1       2.507  -0.697  28.834  0.00  0.00    +0.010 C 
ATOM     31  C   UNL     1       2.518  -0.979  27.369  0.00  0.00    +0.010 C 
ENDBRANCH   8  29
TORSDOF 4
ENDMDL
MODEL 3
REMARK VINA RESULT:      -6.6      1.839      6.004
REMARK  Name = 
REMARK  4 active torsions:
REMARK  status: ('A' for Active; 'I' for Inactive)
REMARK    1  A    between atoms: C_2  and  C_3
REMARK    2  A    between atoms: C_3  and  C_4
REMARK    3  A    between atoms: N_10  and  C_11
REMARK    4  A    between atoms: C_24  and  C_26
REMARK                            x       y       z     vdW  Elec       q    Type
REMARK                         _______ _______ _______ _____ _____    ______ ____
ROOT
ATOM      1  C   UNL     1       5.569   0.640  24.945  0.00  0.00    +0.253 A 
ATOM      2  N   UNL     1       6.063  -0.544  25.289  0.00  0.00    -0.195 NA
ATOM      3  C   UNL     1       5.637  -1.104  26.439  0.00  0.00    +0.137 A 
ATOM      4  N   UNL     1       6.055  -2.428  26.729  0.00  0.00    -0.282 N 
ATOM      5  H   UNL     1       6.306  -2.570  27.698  0.00  0.00    +0.155 HD
ATOM      6  C   UNL     1       6.509  -3.360  25.856  0.00  0.00    +0.146 A 
ATOM      7  C   UNL     1       6.388  -3.263  24.454  0.00  0.00    +0.068 A 
ATOM      8  C   UNL     1       6.890  -4.425  23.940  0.00  0.00    +0.041 A 
ATOM      9  N   UNL     1       7.295  -5.152  25.017  0.00  0.00    -0.280 N 
ATOM     10  H   UNL     1       7.719  -6.072  25.032  0.00  0.00    +0.189 HD
ATOM     11  N   UNL     1       7.072  -4.527  26.200  0.00  0.00    -0.158 NA
ATOM     12  C   UNL     1       4.710  -0.445  27.274  0.00  0.00    +0.041 A 
ATOM     13  C   UNL     1       4.274   0.800  26.800  0.00  0.00    +0.078 A 
ATOM     14  C   UNL     1       3.317   1.509  27.507  0.00  0.00    +0.028 A 
ATOM     15  C   UNL     1       2.786   1.034  28.702  0.00  0.00    +0.002 A 
ATOM     16  C   UNL     1       3.222  -0.188  29.203  0.00  0.00    +0.001 A 
ATOM     17  C   UNL     1       4.165  -0.934  28.492  0.00  0.00    +0.013 A 
ATOM     18  N   UNL     1       4.712   1.350  25.674  0.00  0.00    -0.211 NA
ENDROOT
BRANCH   1  23
ATOM     19  C   UNL     1       9.953   0.519  22.414  0.00  0.00    +0.048 C 
ATOM     20  C   UNL     1       9.658   0.528  23.894  0.00  0.00    -0.016 C 
ATOM     21  C   UNL     1       8.470   0.862  24.410  0.00  0.00    +0.024 C 
ATOM     22  C   UNL     1       7.330   1.221  23.512  0.00  0.00    +0.067 C 
ATOM     23  N   UNL     1       6.060   1.184  23.762  0.00  0.00    -0.211 NA
ATOM     24  C   UNL     1       7.742   1.680  22.152  0.00  0.00    +0.024 C 
ATOM     25  C   UNL     1       8.945   1.352  21.658  0.00  0.00    -0.016 C 
BRANCH  19  26
ATOM     26  C   UNL     1       9.964  -0.908  21.836  0.00  0.00    +0.130 C 
BRANCH  26  28
ATOM     27  N   UNL     1      10.097  -2.822  23.848  0.00  0.00    -0.197 NA
ATOM     28  C   UNL     1      10.038  -1.954  22.936  0.00  0.00    +0.063 C 
ENDBRANCH  26  28
ENDBRANCH  19  26
ENDBRANCH   1  23
BRANCH   8  29
ATOM     29  C   UNL     1       6.888  -4.708  22.457  0.00  0.00    +0.037 C 
ATOM     30  C   UNL     1       5.806  -5.593  21.892  0.00  0.00    +0.010 C 
ATOM     31  C   UNL     1       7.223  -6.058  21.886  0.00  0.00    +0.010 C 
ENDBRANCH   8  29
TORSDOF 4
ENDMDL
MODEL 4
REMARK VINA RESULT:      -6.6      2.077      5.632
REMARK  Name = 
REMARK  4 active torsions:
REMARK  status: ('A' for Active; 'I' for Inactive)
REMARK    1  A    between atoms: C_2  and  C_3
REMARK    2  A    between atoms: C_3  and  C_4
REMARK    3  A    between atoms: N_10  and  C_11
REMARK    4  A    between atoms: C_24  and  C_26
REMARK                            x       y       z     vdW  Elec       q    Type
REMARK                         _______ _______ _______ _____ _____    ______ ____
ROOT
ATOM      1  C   UNL     1       7.368  -2.187  26.181  0.00  0.00    +0.253 A 
ATOM      2  N   UNL     1       6.652  -3.300  26.062  0.00  0.00    -0.195 NA
ATOM      3  C   UNL     1       5.431  -3.337  26.633  0.00  0.00    +0.137 A 
ATOM      4  N   UNL     1       4.614  -4.468  26.380  0.00  0.00    -0.282 N 
ATOM      5  H   UNL     1       4.115  -4.797  27.196  0.00  0.00    +0.155 HD
ATOM      6  C   UNL     1       4.714  -5.347  25.352  0.00  0.00    +0.146 A 
ATOM      7  C   UNL     1       5.488  -5.130  24.194  0.00  0.00    +0.068 A 
ATOM      8  C   UNL     1       5.264  -6.198  23.372  0.00  0.00    +0.041 A 
ATOM      9  N   UNL     1       4.399  -7.001  24.050  0.00  0.00    -0.280 N 
ATOM     10  H   UNL     1       4.002  -7.886  23.759  0.00  0.00    +0.189 HD
ATOM     11  N   UNL     1       4.044  -6.504  25.262  0.00  0.00    -0.158 NA
ATOM     12  C   UNL     1       4.929  -2.238  27.361  0.00  0.00    +0.041 A 
ATOM     13  C   UNL     1       5.788  -1.131  27.418  0.00  0.00    +0.078 A 
ATOM     14  C   UNL     1       5.375   0.029  28.054  0.00  0.00    +0.028 A 
ATOM     15  C   UNL     1       4.131   0.123  28.671  0.00  0.00    +0.002 A 
ATOM     16  C   UNL     1       3.274  -0.972  28.648  0.00  0.00    +0.001 A 
ATOM     17  C   UNL     1       3.657  -2.141  27.987  0.00  0.00    +0.013 A 
ATOM     18  N   UNL     1       6.994  -1.109  26.866  0.00  0.00    -0.211 NA
ENDROOT
BRANCH   1  23
ATOM     19  C   UNL     1       9.293  -1.141  21.616  0.00  0.00    +0.048 C 
ATOM     20  C   UNL     1       7.973  -1.749  22.024  0.00  0.00    -0.016 C 
ATOM     21  C   UNL     1       7.730  -2.237  23.246  0.00  0.00    +0.024 C 
ATOM     22  C   UNL     1       8.778  -2.170  24.309  0.00  0.00    +0.067 C 
ATOM     23  N   UNL     1       8.630  -2.210  25.595  0.00  0.00    -0.211 NA
ATOM     24  C   UNL     1      10.172  -2.042  23.789  0.00  0.00    +0.024 C 
ATOM     25  C   UNL     1      10.397  -1.568  22.554  0.00  0.00    -0.016 C 
BRANCH  19  26
ATOM     26  C   UNL     1       9.233   0.397  21.573  0.00  0.00    +0.130 C 
BRANCH  26  28
ATOM     27  N   UNL     1       7.821   1.421  23.738  0.00  0.00    -0.197 NA
ATOM     28  C   UNL     1       8.462   0.957  22.757  0.00  0.00    +0.063 C 
ENDBRANCH  26  28
ENDBRANCH  19  26
ENDBRANCH   1  23
BRANCH   8  29
ATOM     29  C   UNL     1       5.893  -6.298  22.004  0.00  0.00    +0.037 C 
ATOM     30  C   UNL     1       7.353  -5.952  21.851  0.00  0.00    +0.010 C 
ATOM     31  C   UNL     1       6.316  -5.093  21.210  0.00  0.00    +0.010 C 
ENDBRANCH   8  29
TORSDOF 4
ENDMDL
MODEL 5
REMARK VINA RESULT:      -6.5      2.166      5.618
REMARK  Name = 
REMARK  4 active torsions:
REMARK  status: ('A' for Active; 'I' for Inactive)
REMARK    1  A    between atoms: C_2  and  C_3
REMARK    2  A    between atoms: C_3  and  C_4
REMARK    3  A    between atoms: N_10  and  C_11
REMARK    4  A    between atoms: C_24  and  C_26
REMARK                            x       y       z     vdW  Elec       q    Type
REMARK                         _______ _______ _______ _____ _____    ______ ____
ROOT
ATOM      1  C   UNL     1       7.413  -0.696  26.908  0.00  0.00    +0.253 A 
ATOM      2  N   UNL     1       6.866  -1.899  26.768  0.00  0.00    -0.195 NA
ATOM      3  C   UNL     1       5.593  -2.072  27.178  0.00  0.00    +0.137 A 
ATOM      4  N   UNL     1       4.968  -3.313  26.895  0.00  0.00    -0.282 N 
ATOM      5  H   UNL     1       4.408  -3.667  27.658  0.00  0.00    +0.155 HD
ATOM      6  C   UNL     1       5.318  -4.218  25.947  0.00  0.00    +0.146 A 
ATOM      7  C   UNL     1       6.210  -3.953  24.887  0.00  0.00    +0.068 A 
ATOM      8  C   UNL     1       6.236  -5.079  24.113  0.00  0.00    +0.041 A 
ATOM      9  N   UNL     1       5.395  -5.958  24.724  0.00  0.00    -0.280 N 
ATOM     10  H   UNL     1       5.156  -6.901  24.442  0.00  0.00    +0.189 HD
ATOM     11  N   UNL     1       4.818  -5.457  25.845  0.00  0.00    -0.158 NA
ATOM     12  C   UNL     1       4.862  -1.017  27.763  0.00  0.00    +0.041 A 
ATOM     13  C   UNL     1       5.558   0.196  27.858  0.00  0.00    +0.078 A 
ATOM     14  C   UNL     1       4.919   1.319  28.360  0.00  0.00    +0.028 A 
ATOM     15  C   UNL     1       3.601   1.275  28.804  0.00  0.00    +0.002 A 
ATOM     16  C   UNL     1       2.900   0.076  28.740  0.00  0.00    +0.001 A 
ATOM     17  C   UNL     1       3.515  -1.061  28.211  0.00  0.00    +0.013 A 
ATOM     18  N   UNL     1       6.817   0.353  27.468  0.00  0.00    -0.211 NA
ENDROOT
BRANCH   1  23
ATOM     19  C   UNL     1       9.879   1.751  23.223  0.00  0.00    +0.048 C 
ATOM     20  C   UNL     1       8.516   1.104  23.249  0.00  0.00    -0.016 C 
ATOM     21  C   UNL     1       8.125   0.240  24.193  0.00  0.00    +0.024 C 
ATOM     22  C   UNL     1       9.038  -0.109  25.324  0.00  0.00    +0.067 C 
ATOM     23  N   UNL     1       8.736  -0.578  26.492  0.00  0.00    -0.211 NA
ATOM     24  C   UNL     1      10.485   0.122  25.036  0.00  0.00    +0.024 C 
ATOM     25  C   UNL     1      10.860   0.977  24.073  0.00  0.00    -0.016 C 
BRANCH  19  26
ATOM     26  C   UNL     1       9.836   3.212  23.706  0.00  0.00    +0.130 C 
BRANCH  26  28
ATOM     27  N   UNL     1      12.255   4.507  23.257  0.00  0.00    -0.197 NA
ATOM     28  C   UNL     1      11.158   3.919  23.460  0.00  0.00    +0.063 C 
ENDBRANCH  26  28
ENDBRANCH  19  26
ENDBRANCH   1  23
BRANCH   8  29
ATOM     29  C   UNL     1       7.054  -5.159  22.847  0.00  0.00    +0.037 C 
ATOM     30  C   UNL     1       6.364  -4.933  21.525  0.00  0.00    +0.010 C 
ATOM     31  C   UNL     1       6.913  -6.280  21.855  0.00  0.00    +0.010 C 
ENDBRANCH   8  29
TORSDOF 4
ENDMDL
MODEL 6
REMARK VINA RESULT:      -6.5      1.927      7.253
REMARK  Name = 
REMARK  4 active torsions:
REMARK  status: ('A' for Active; 'I' for Inactive)
REMARK    1  A    between atoms: C_2  and  C_3
REMARK    2  A    between atoms: C_3  and  C_4
REMARK    3  A    between atoms: N_10  and  C_11
REMARK    4  A    between atoms: C_24  and  C_26
REMARK                            x       y       z     vdW  Elec       q    Type
REMARK                         _______ _______ _______ _____ _____    ______ ____
ROOT
ATOM      1  C   UNL     1       5.705   0.062  25.961  0.00  0.00    +0.253 A 
ATOM      2  N   UNL     1       6.408   1.101  25.522  0.00  0.00    -0.195 NA
ATOM      3  C   UNL     1       6.858   1.995  26.425  0.00  0.00    +0.137 A 
ATOM      4  N   UNL     1       7.727   3.019  25.970  0.00  0.00    -0.282 N 
ATOM      5  H   UNL     1       7.532   3.925  26.374  0.00  0.00    +0.155 HD
ATOM      6  C   UNL     1       8.481   3.022  24.843  0.00  0.00    +0.146 A 
ATOM      7  C   UNL     1       8.740   1.881  24.056  0.00  0.00    +0.068 A 
ATOM      8  C   UNL     1       9.593   2.278  23.066  0.00  0.00    +0.041 A 
ATOM      9  N   UNL     1       9.801   3.606  23.278  0.00  0.00    -0.280 N 
ATOM     10  H   UNL     1      10.379   4.247  22.747  0.00  0.00    +0.189 HD
ATOM     11  N   UNL     1       9.135   4.087  24.359  0.00  0.00    -0.158 NA
ATOM     12  C   UNL     1       6.573   1.853  27.800  0.00  0.00    +0.041 A 
ATOM     13  C   UNL     1       5.816   0.720  28.128  0.00  0.00    +0.078 A 
ATOM     14  C   UNL     1       5.529   0.445  29.455  0.00  0.00    +0.028 A 
ATOM     15  C   UNL     1       5.947   1.283  30.484  0.00  0.00    +0.002 A 
ATOM     16  C   UNL     1       6.678   2.425  30.178  0.00  0.00    +0.001 A 
ATOM     17  C   UNL     1       7.005   2.707  28.850  0.00  0.00    +0.013 A 
ATOM     18  N   UNL     1       5.364  -0.146  27.230  0.00  0.00    -0.211 NA
ENDROOT
BRANCH   1  23
ATOM     19  C   UNL     1       7.488  -4.063  23.626  0.00  0.00    +0.048 C 
ATOM     20  C   UNL     1       8.184  -2.815  24.110  0.00  0.00    -0.016 C 
ATOM     21  C   UNL     1       7.540  -1.687  24.437  0.00  0.00    +0.024 C 
ATOM     22  C   UNL     1       6.048  -1.622  24.367  0.00  0.00    +0.067 C 
ATOM     23  N   UNL     1       5.245  -0.817  24.985  0.00  0.00    -0.211 NA
ATOM     24  C   UNL     1       5.433  -2.630  23.454  0.00  0.00    +0.024 C 
ATOM     25  C   UNL     1       6.100  -3.745  23.121  0.00  0.00    -0.016 C 
BRANCH  19  26
ATOM     26  C   UNL     1       7.392  -5.136  24.726  0.00  0.00    +0.130 C 
BRANCH  26  28
ATOM     27  N   UNL     1       9.066  -4.550  26.867  0.00  0.00    -0.197 NA
ATOM     28  C   UNL     1       8.307  -4.815  25.897  0.00  0.00    +0.063 C 
ENDBRANCH  26  28
ENDBRANCH  19  26
ENDBRANCH   1  23
BRANCH   8  29
ATOM     29  C   UNL     1      10.137   1.310  22.044  0.00  0.00    +0.037 C 
ATOM     30  C   UNL     1       9.165   0.454  21.270  0.00  0.00    +0.010 C 
ATOM     31  C   UNL     1      10.106  -0.181  22.237  0.00  0.00    +0.010 C 
ENDBRANCH   8  29
TORSDOF 4
ENDMDL
MODEL 7
REMARK VINA RESULT:      -6.5      1.966      5.152
REMARK  Name = 
REMARK  4 active torsions:
REMARK  status: ('A' for Active; 'I' for Inactive)
REMARK    1  A    between atoms: C_2  and  C_3
REMARK    2  A    between atoms: C_3  and  C_4
REMARK    3  A    between atoms: N_10  and  C_11
REMARK    4  A    between atoms: C_24  and  C_26
REMARK                            x       y       z     vdW  Elec       q    Type
REMARK                         _______ _______ _______ _____ _____    ______ ____
ROOT
ATOM      1  C   UNL     1       5.537  -2.160  24.485  0.00  0.00    +0.253 A 
ATOM      2  N   UNL     1       6.646  -1.676  23.936  0.00  0.00    -0.195 NA
ATOM      3  C   UNL     1       7.347  -2.473  23.105  0.00  0.00    +0.137 A 
ATOM      4  N   UNL     1       8.445  -1.906  22.410  0.00  0.00    -0.282 N 
ATOM      5  H   UNL     1       9.253  -2.512  22.365  0.00  0.00    +0.155 HD
ATOM      6  C   UNL     1       8.675  -0.593  22.159  0.00  0.00    +0.146 A 
ATOM      7  C   UNL     1       7.713   0.426  22.313  0.00  0.00    +0.068 A 
ATOM      8  C   UNL     1       8.302   1.583  21.888  0.00  0.00    +0.041 A 
ATOM      9  N   UNL     1       9.564   1.231  21.517  0.00  0.00    -0.280 N 
ATOM     10  H   UNL     1      10.299   1.822  21.147  0.00  0.00    +0.189 HD
ATOM     11  N   UNL     1       9.818  -0.093  21.670  0.00  0.00    -0.158 NA
ATOM     12  C   UNL     1       6.936  -3.796  22.839  0.00  0.00    +0.041 A 
ATOM     13  C   UNL     1       5.755  -4.185  23.488  0.00  0.00    +0.078 A 
ATOM     14  C   UNL     1       5.223  -5.443  23.253  0.00  0.00    +0.028 A 
ATOM     15  C   UNL     1       5.844  -6.354  22.405  0.00  0.00    +0.002 A 
ATOM     16  C   UNL     1       7.028  -5.998  21.770  0.00  0.00    +0.001 A 
ATOM     17  C   UNL     1       7.567  -4.725  21.969  0.00  0.00    +0.013 A 
ATOM     18  N   UNL     1       5.081  -3.399  24.317  0.00  0.00    -0.211 NA
ENDROOT
BRANCH   1  23
ATOM     19  C   UNL     1       6.821   1.569  27.660  0.00  0.00    +0.048 C 
ATOM     20  C   UNL     1       7.529   0.289  27.292  0.00  0.00    -0.016 C 
ATOM     21  C   UNL     1       6.931  -0.735  26.671  0.00  0.00    +0.024 C 
ATOM     22  C   UNL     1       5.494  -0.640  26.268  0.00  0.00    +0.067 C 
ATOM     23  N   UNL     1       4.865  -1.306  25.354  0.00  0.00    -0.211 NA
ATOM     24  C   UNL     1       4.706   0.364  27.043  0.00  0.00    +0.024 C 
ATOM     25  C   UNL     1       5.323   1.374  27.676  0.00  0.00    -0.016 C 
BRANCH  19  26
ATOM     26  C   UNL     1       7.170   2.720  26.699  0.00  0.00    +0.130 C 
BRANCH  26  28
ATOM     27  N   UNL     1       7.213   5.170  28.014  0.00  0.00    -0.197 NA
ATOM     28  C   UNL     1       7.193   4.059  27.418  0.00  0.00    +0.063 C 
ENDBRANCH  26  28
ENDBRANCH  19  26
ENDBRANCH   1  23
BRANCH   8  29
ATOM     29  C   UNL     1       7.558   2.895  21.860  0.00  0.00    +0.037 C 
ATOM     30  C   UNL     1       7.811   3.894  22.961  0.00  0.00    +0.010 C 
ATOM     31  C   UNL     1       6.476   3.239  22.846  0.00  0.00    +0.010 C 
ENDBRANCH   8  29
TORSDOF 4
ENDMDL
MODEL 8
REMARK VINA RESULT:      -6.5      2.552      7.515
REMARK  Name = 
REMARK  4 active torsions:
REMARK  status: ('A' for Active; 'I' for Inactive)
REMARK    1  A    between atoms: C_2  and  C_3
REMARK    2  A    between atoms: C_3  and  C_4
REMARK    3  A    between atoms: N_10  and  C_11
REMARK    4  A    between atoms: C_24  and  C_26
REMARK                            x       y       z     vdW  Elec       q    Type
REMARK                         _______ _______ _______ _____ _____    ______ ____
ROOT
ATOM      1  C   UNL     1       7.659   2.967  24.703  0.00  0.00    +0.253 A 
ATOM      2  N   UNL     1       8.260   1.929  24.131  0.00  0.00    -0.195 NA
ATOM      3  C   UNL     1       9.495   2.108  23.620  0.00  0.00    +0.137 A 
ATOM      4  N   UNL     1      10.188   0.967  23.142  0.00  0.00    -0.282 N 
ATOM      5  H   UNL     1      10.687   1.129  22.278  0.00  0.00    +0.155 HD
ATOM      6  C   UNL     1       9.961  -0.331  23.461  0.00  0.00    +0.146 A 
ATOM      7  C   UNL     1       9.163  -0.756  24.544  0.00  0.00    +0.068 A 
ATOM      8  C   UNL     1       9.249  -2.119  24.577  0.00  0.00    +0.041 A 
ATOM      9  N   UNL     1      10.061  -2.456  23.538  0.00  0.00    -0.280 N 
ATOM     10  H   UNL     1      10.359  -3.379  23.246  0.00  0.00    +0.189 HD
ATOM     11  N   UNL     1      10.512  -1.383  22.841  0.00  0.00    -0.158 NA
ATOM     12  C   UNL     1      10.129   3.367  23.664  0.00  0.00    +0.041 A 
ATOM     13  C   UNL     1       9.384   4.378  24.287  0.00  0.00    +0.078 A 
ATOM     14  C   UNL     1       9.933   5.641  24.442  0.00  0.00    +0.028 A 
ATOM     15  C   UNL     1      11.205   5.951  23.970  0.00  0.00    +0.002 A 
ATOM     16  C   UNL     1      11.951   4.969  23.328  0.00  0.00    +0.001 A 
ATOM     17  C   UNL     1      11.430   3.682  23.186  0.00  0.00    +0.013 A 
ATOM     18  N   UNL     1       8.163   4.196  24.772  0.00  0.00    -0.211 NA
ENDROOT
BRANCH   1  23
ATOM     19  C   UNL     1       5.658   1.176  28.996  0.00  0.00    +0.048 C 
ATOM     20  C   UNL     1       6.917   0.802  28.254  0.00  0.00    -0.016 C 
ATOM     21  C   UNL     1       7.160   1.151  26.985  0.00  0.00    +0.024 C 
ATOM     22  C   UNL     1       6.176   1.986  26.229  0.00  0.00    +0.067 C 
ATOM     23  N   UNL     1       6.377   2.734  25.192  0.00  0.00    -0.211 NA
ATOM     24  C   UNL     1       4.783   1.926  26.765  0.00  0.00    +0.024 C 
ATOM     25  C   UNL     1       4.557   1.556  28.035  0.00  0.00    -0.016 C 
BRANCH  19  26
ATOM     26  C   UNL     1       5.890   2.337  29.981  0.00  0.00    +0.130 C 
BRANCH  26  28
ATOM     27  N   UNL     1       7.238   4.445  28.769  0.00  0.00    -0.197 NA
ATOM     28  C   UNL     1       6.627   3.489  29.319  0.00  0.00    +0.063 C 
ENDBRANCH  26  28
ENDBRANCH  19  26
ENDBRANCH   1  23
BRANCH   8  29
ATOM     29  C   UNL     1       8.556  -2.937  25.640  0.00  0.00    +0.037 C 
ATOM     30  C   UNL     1       7.342  -3.745  25.254  0.00  0.00    +0.010 C 
ATOM     31  C   UNL     1       7.198  -2.586  26.182  0.00  0.00    +0.010 C 
ENDBRANCH   8  29
TORSDOF 4
ENDMDL
MODEL 9
REMARK VINA RESULT:      -6.4      2.471      5.261
REMARK  Name = 
REMARK  4 active torsions:
REMARK  status: ('A' for Active; 'I' for Inactive)
REMARK    1  A    between atoms: C_2  and  C_3
REMARK    2  A    between atoms: C_3  and  C_4
REMARK    3  A    between atoms: N_10  and  C_11
REMARK    4  A    between atoms: C_24  and  C_26
REMARK                            x       y       z     vdW  Elec       q    Type
REMARK                         _______ _______ _______ _____ _____    ______ ____
ROOT
ATOM      1  C   UNL     1       5.523  -1.394  25.268  0.00  0.00    +0.253 A 
ATOM      2  N   UNL     1       6.635  -1.585  24.566  0.00  0.00    -0.195 NA
ATOM      3  C   UNL     1       6.707  -2.667  23.766  0.00  0.00    +0.137 A 
ATOM      4  N   UNL     1       7.833  -2.788  22.912  0.00  0.00    -0.282 N 
ATOM      5  H   UNL     1       8.201  -3.728  22.859  0.00  0.00    +0.155 HD
ATOM      6  C   UNL     1       8.665  -1.801  22.497  0.00  0.00    +0.146 A 
ATOM      7  C   UNL     1       8.391  -0.424  22.627  0.00  0.00    +0.068 A 
ATOM      8  C   UNL     1       9.424   0.235  22.023  0.00  0.00    +0.041 A 
ATOM      9  N   UNL     1      10.263  -0.739  21.576  0.00  0.00    -0.280 N 
ATOM     10  H   UNL     1      11.138  -0.636  21.076  0.00  0.00    +0.189 HD
ATOM     11  N   UNL     1       9.822  -1.993  21.850  0.00  0.00    -0.158 NA
ATOM     12  C   UNL     1       5.645  -3.592  23.688  0.00  0.00    +0.041 A 
ATOM     13  C   UNL     1       4.534  -3.279  24.485  0.00  0.00    +0.078 A 
ATOM     14  C   UNL     1       3.407  -4.083  24.441  0.00  0.00    +0.028 A 
ATOM     15  C   UNL     1       3.350  -5.222  23.645  0.00  0.00    +0.002 A 
ATOM     16  C   UNL     1       4.449  -5.565  22.866  0.00  0.00    +0.001 A 
ATOM     17  C   UNL     1       5.585  -4.753  22.871  0.00  0.00    +0.013 A 
ATOM     18  N   UNL     1       4.479  -2.220  25.282  0.00  0.00    -0.211 NA
ENDROOT
BRANCH   1  23
ATOM     19  C   UNL     1       4.488   3.534  24.735  0.00  0.00    +0.048 C 
ATOM     20  C   UNL     1       5.136   2.546  23.797  0.00  0.00    -0.016 C 
ATOM     21  C   UNL     1       5.611   1.357  24.186  0.00  0.00    +0.024 C 
ATOM     22  C   UNL     1       5.488   0.924  25.611  0.00  0.00    +0.067 C 
ATOM     23  N   UNL     1       5.510  -0.276  26.096  0.00  0.00    -0.211 NA
ATOM     24  C   UNL     1       5.318   2.047  26.581  0.00  0.00    +0.024 C 
ATOM     25  C   UNL     1       4.858   3.238  26.170  0.00  0.00    -0.016 C 
BRANCH  19  26
ATOM     26  C   UNL     1       2.954   3.539  24.601  0.00  0.00    +0.130 C 
BRANCH  26  28
ATOM     27  N   UNL     1       2.165   3.361  21.941  0.00  0.00    -0.197 NA
ATOM     28  C   UNL     1       2.523   3.441  23.147  0.00  0.00    +0.063 C 
ENDBRANCH  26  28
ENDBRANCH  19  26
ENDBRANCH   1  23
BRANCH   8  29
ATOM     29  C   UNL     1       9.460   1.741  21.921  0.00  0.00    +0.037 C 
ATOM     30  C   UNL     1      10.350   2.509  22.867  0.00  0.00    +0.010 C 
ATOM     31  C   UNL     1       8.868   2.642  22.968  0.00  0.00    +0.010 C 
ENDBRANCH   8  29
TORSDOF 4
ENDMDL
