MODEL 1
REMARK VINA RESULT:      -7.3      0.000      0.000
REMARK  Name = 
REMARK  7 active torsions:
REMARK  status: ('A' for Active; 'I' for Inactive)
REMARK    1  A    between atoms: C_2  and  C_3
REMARK    2  A    between atoms: C_7  and  C_9
REMARK    3  A    between atoms: C_11  and  C_13
REMARK    4  A    between atoms: C_14  and  N_15
REMARK    5  A    between atoms: C_16  and  C_18
REMARK    6  A    between atoms: C_18  and  C_19
REMARK    7  A    between atoms: C_19  and  C_20
REMARK                            x       y       z     vdW  Elec       q    Type
REMARK                         _______ _______ _______ _____ _____    ______ ____
ROOT
ATOM      1  C   UNL     1       7.073   1.331  26.100  0.00  0.00    +0.059 A 
ATOM      2  C   UNL     1       6.704   2.594  26.569  0.00  0.00    +0.030 A 
ATOM      3  C   UNL     1       6.518   2.842  27.930  0.00  0.00    +0.019 A 
ATOM      4 BR   UNL     1       5.781   4.493  28.484  0.00  0.00    -0.050 Br
ATOM      5  C   UNL     1       6.810   1.866  28.870  0.00  0.00    +0.017 A 
ATOM      6  C   UNL     1       7.319   0.642  28.438  0.00  0.00    +0.025 A 
ATOM      7  C   UNL     1       7.481   0.377  27.066  0.00  0.00    +0.046 A 
ENDROOT
BRANCH   1  15
ATOM      8  C   UNL     1       9.005   0.573  21.662  0.00  0.00    +0.004 C 
ATOM      9  C   UNL     1       9.357  -0.831  22.162  0.00  0.00    +0.009 C 
ATOM     10  C   UNL     1      10.128   1.602  21.877  0.00  0.00    +0.009 C 
ATOM     11  C   UNL     1      10.231   2.164  23.307  0.00  0.00    +0.004 C 
ATOM     12  C   UNL     1      10.953   1.195  24.247  0.00  0.00    +0.009 C 
ATOM     13  C   UNL     1       8.838   2.583  23.809  0.00  0.00    +0.111 C 
ATOM     14  N   UNL     1       7.879   1.483  23.677  0.00  0.00    -0.297 N 
ATOM     15  C   UNL     1       6.971   0.984  24.632  0.00  0.00    +0.248 C 
ATOM     16  O   UNL     1       6.044   0.272  24.244  0.00  0.00    -0.270 OA
ATOM     17  C   UNL     1       7.689   1.052  22.286  0.00  0.00    +0.111 C 
ENDBRANCH   1  15
BRANCH   7  18
ATOM     18  N   UNL     1       8.082  -0.864  26.752  0.00  0.00    -0.285 N 
ATOM     19  H   UNL     1       8.786  -0.846  26.022  0.00  0.00    +0.155 HD
ATOM     20  C   UNL     1       7.295  -2.007  26.679  0.00  0.00    +0.218 C 
ATOM     21  O   UNL     1       6.074  -2.042  26.792  0.00  0.00    -0.275 OA
BRANCH  20  22
ATOM     22  C   UNL     1       8.106  -3.247  26.341  0.00  0.00    +0.105 C 
BRANCH  22  23
ATOM     23  C   UNL     1       8.713  -3.078  24.955  0.00  0.00    +0.105 C 
BRANCH  23  24
ATOM     24  C   UNL     1       8.381  -4.282  24.085  0.00  0.00    +0.216 C 
ATOM     25  N   UNL     1       7.385  -4.118  23.144  0.00  0.00    -0.297 N 
ATOM     26  C   UNL     1       6.395  -3.039  23.126  0.00  0.00    +0.136 C 
ATOM     27  C   UNL     1       4.984  -3.638  23.154  0.00  0.00    +0.179 C 
ATOM     28  O   UNL     1       4.791  -4.574  22.080  0.00  0.00    -0.377 OA
ATOM     29  C   UNL     1       5.739  -5.654  22.165  0.00  0.00    +0.179 C 
ATOM     30  C   UNL     1       7.174  -5.128  22.108  0.00  0.00    +0.136 C 
ATOM     31  O   UNL     1       8.987  -5.348  24.226  0.00  0.00    -0.276 OA
ENDBRANCH  23  24
ENDBRANCH  22  23
ENDBRANCH  20  22
ENDBRANCH   7  18
TORSDOF 5
ENDMDL
MODEL 2
REMARK VINA RESULT:      -7.2      3.607      6.758
REMARK  Name = 
REMARK  7 active torsions:
REMARK  status: ('A' for Active; 'I' for Inactive)
REMARK    1  A    between atoms: C_2  and  C_3
REMARK    2  A    between atoms: C_7  and  C_9
REMARK    3  A    between atoms: C_11  and  C_13
REMARK    4  A    between atoms: C_14  and  N_15
REMARK    5  A    between atoms: C_16  and  C_18
REMARK    6  A    between atoms: C_18  and  C_19
REMARK    7  A    between atoms: C_19  and  C_20
REMARK                            x       y       z     vdW  Elec       q    Type
REMARK                         _______ _______ _______ _____ _____    ______ ____
ROOT
ATOM      1  C   UNL     1       7.622  -2.267  23.585  0.00  0.00    +0.059 A 
ATOM      2  C   UNL     1       7.870  -3.494  22.966  0.00  0.00    +0.030 A 
ATOM      3  C   UNL     1       6.840  -4.398  22.698  0.00  0.00    +0.019 A 
ATOM      4 BR   UNL     1       7.262  -6.138  22.089  0.00  0.00    -0.050 Br
ATOM      5  C   UNL     1       5.519  -4.050  22.934  0.00  0.00    +0.017 A 
ATOM      6  C   UNL     1       5.232  -2.775  23.418  0.00  0.00    +0.025 A 
ATOM      7  C   UNL     1       6.267  -1.871  23.717  0.00  0.00    +0.046 A 
ENDROOT
BRANCH   1  15
ATOM      8  C   UNL     1      10.435   1.741  23.718  0.00  0.00    +0.004 C 
ATOM      9  C   UNL     1       9.306   2.389  24.524  0.00  0.00    +0.009 C 
ATOM     10  C   UNL     1      10.324   1.978  22.203  0.00  0.00    +0.009 C 
ATOM     11  C   UNL     1       9.317   1.069  21.474  0.00  0.00    +0.004 C 
ATOM     12  C   UNL     1       7.878   1.564  21.646  0.00  0.00    +0.009 C 
ATOM     13  C   UNL     1       9.519  -0.393  21.906  0.00  0.00    +0.111 C 
ATOM     14  N   UNL     1       9.478  -0.520  23.365  0.00  0.00    -0.297 N 
ATOM     15  C   UNL     1       8.752  -1.437  24.151  0.00  0.00    +0.248 C 
ATOM     16  O   UNL     1       9.080  -1.590  25.328  0.00  0.00    -0.270 OA
ATOM     17  C   UNL     1      10.536   0.245  24.038  0.00  0.00    +0.111 C 
ENDBRANCH   1  15
BRANCH   7  18
ATOM     18  N   UNL     1       5.852  -0.581  24.120  0.00  0.00    -0.285 N 
ATOM     19  H   UNL     1       6.309   0.198  23.660  0.00  0.00    +0.155 HD
ATOM     20  C   UNL     1       5.630  -0.324  25.467  0.00  0.00    +0.218 C 
ATOM     21  O   UNL     1       5.833  -1.109  26.388  0.00  0.00    -0.275 OA
BRANCH  20  22
ATOM     22  C   UNL     1       5.182   1.107  25.717  0.00  0.00    +0.105 C 
BRANCH  22  23
ATOM     23  C   UNL     1       5.586   1.966  24.527  0.00  0.00    +0.105 C 
BRANCH  23  24
ATOM     24  C   UNL     1       4.398   2.780  24.037  0.00  0.00    +0.216 C 
ATOM     25  N   UNL     1       4.665   3.813  23.161  0.00  0.00    -0.297 N 
ATOM     26  C   UNL     1       5.979   4.416  22.927  0.00  0.00    +0.136 C 
ATOM     27  C   UNL     1       5.910   5.921  23.216  0.00  0.00    +0.179 C 
ATOM     28  O   UNL     1       4.873   6.555  22.449  0.00  0.00    -0.377 OA
ATOM     29  C   UNL     1       3.588   5.980  22.750  0.00  0.00    +0.179 C 
ATOM     30  C   UNL     1       3.576   4.480  22.451  0.00  0.00    +0.136 C 
ATOM     31  O   UNL     1       3.253   2.514  24.414  0.00  0.00    -0.276 OA
ENDBRANCH  23  24
ENDBRANCH  22  23
ENDBRANCH  20  22
ENDBRANCH   7  18
TORSDOF 5
ENDMDL
MODEL 3
REMARK VINA RESULT:      -7.0      2.205      4.395
REMARK  Name = 
REMARK  7 active torsions:
REMARK  status: ('A' for Active; 'I' for Inactive)
REMARK    1  A    between atoms: C_2  and  C_3
REMARK    2  A    between atoms: C_7  and  C_9
REMARK    3  A    between atoms: C_11  and  C_13
REMARK    4  A    between atoms: C_14  and  N_15
REMARK    5  A    between atoms: C_16  and  C_18
REMARK    6  A    between atoms: C_18  and  C_19
REMARK    7  A    between atoms: C_19  and  C_20
REMARK                            x       y       z     vdW  Elec       q    Type
REMARK                         _______ _______ _______ _____ _____    ______ ____
ROOT
ATOM      1  C   UNL     1       8.566   2.984  23.471  0.00  0.00    +0.059 A 
ATOM      2  C   UNL     1       8.588   4.329  23.847  0.00  0.00    +0.030 A 
ATOM      3  C   UNL     1       9.789   5.025  23.996  0.00  0.00    +0.019 A 
ATOM      4 BR   UNL     1       9.771   6.763  24.744  0.00  0.00    -0.050 Br
ATOM      5  C   UNL     1      10.994   4.431  23.658  0.00  0.00    +0.017 A 
ATOM      6  C   UNL     1      10.989   3.136  23.142  0.00  0.00    +0.025 A 
ATOM      7  C   UNL     1       9.785   2.419  23.018  0.00  0.00    +0.046 A 
ENDROOT
BRANCH   1  15
ATOM      8  C   UNL     1       4.706   1.326  25.991  0.00  0.00    +0.004 C 
ATOM      9  C   UNL     1       4.020   2.644  25.620  0.00  0.00    +0.009 C 
ATOM     10  C   UNL     1       5.450   1.377  27.336  0.00  0.00    +0.009 C 
ATOM     11  C   UNL     1       6.833   2.053  27.290  0.00  0.00    +0.004 C 
ATOM     12  C   UNL     1       6.718   3.580  27.309  0.00  0.00    +0.009 C 
ATOM     13  C   UNL     1       7.644   1.513  26.100  0.00  0.00    +0.111 C 
ATOM     14  N   UNL     1       6.888   1.634  24.851  0.00  0.00    -0.297 N 
ATOM     15  C   UNL     1       7.309   2.155  23.612  0.00  0.00    +0.248 C 
ATOM     16  O   UNL     1       6.645   1.892  22.608  0.00  0.00    -0.270 OA
ATOM     17  C   UNL     1       5.635   0.867  24.862  0.00  0.00    +0.111 C 
ENDBRANCH   1  15
BRANCH   7  18
ATOM     18  N   UNL     1       9.893   1.149  22.405  0.00  0.00    -0.285 N 
ATOM     19  H   UNL     1       9.184   0.926  21.716  0.00  0.00    +0.155 HD
ATOM     20  C   UNL     1      10.226   0.043  23.177  0.00  0.00    +0.218 C 
ATOM     21  O   UNL     1      10.372   0.040  24.395  0.00  0.00    -0.275 OA
BRANCH  20  22
ATOM     22  C   UNL     1      10.306  -1.233  22.355  0.00  0.00    +0.105 C 
BRANCH  22  23
ATOM     23  C   UNL     1       8.903  -1.794  22.175  0.00  0.00    +0.105 C 
BRANCH  23  24
ATOM     24  C   UNL     1       8.716  -3.034  23.038  0.00  0.00    +0.216 C 
ATOM     25  N   UNL     1       7.613  -3.819  22.773  0.00  0.00    -0.297 N 
ATOM     26  C   UNL     1       6.439  -3.411  21.999  0.00  0.00    +0.136 C 
ATOM     27  C   UNL     1       5.179  -3.562  22.860  0.00  0.00    +0.179 C 
ATOM     28  O   UNL     1       5.055  -4.897  23.378  0.00  0.00    -0.377 OA
ATOM     29  C   UNL     1       6.196  -5.242  24.185  0.00  0.00    +0.179 C 
ATOM     30  C   UNL     1       7.489  -5.146  23.375  0.00  0.00    +0.136 C 
ATOM     31  O   UNL     1       9.526  -3.310  23.927  0.00  0.00    -0.276 OA
ENDBRANCH  23  24
ENDBRANCH  22  23
ENDBRANCH  20  22
ENDBRANCH   7  18
TORSDOF 5
ENDMDL
MODEL 4
REMARK VINA RESULT:      -6.8      2.125      3.386
REMARK  Name = 
REMARK  7 active torsions:
REMARK  status: ('A' for Active; 'I' for Inactive)
REMARK    1  A    between atoms: C_2  and  C_3
REMARK    2  A    between atoms: C_7  and  C_9
REMARK    3  A    between atoms: C_11  and  C_13
REMARK    4  A    between atoms: C_14  and  N_15
REMARK    5  A    between atoms: C_16  and  C_18
REMARK    6  A    between atoms: C_18  and  C_19
REMARK    7  A    between atoms: C_19  and  C_20
REMARK                            x       y       z     vdW  Elec       q    Type
REMARK                         _______ _______ _______ _____ _____    ______ ____
ROOT
ATOM      1  C   UNL     1       8.173   3.257  24.034  0.00  0.00    +0.059 A 
ATOM      2  C   UNL     1       9.082   4.304  24.202  0.00  0.00    +0.030 A 
ATOM      3  C   UNL     1       8.879   5.300  25.159  0.00  0.00    +0.019 A 
ATOM      4 BR   UNL     1      10.006   6.819  25.176  0.00  0.00    -0.050 Br
ATOM      5  C   UNL     1       7.825   5.211  26.054  0.00  0.00    +0.017 A 
ATOM      6  C   UNL     1       6.985   4.101  26.003  0.00  0.00    +0.025 A 
ATOM      7  C   UNL     1       7.167   3.110  25.022  0.00  0.00    +0.046 A 
ENDROOT
BRANCH   1  15
ATOM      8  C   UNL     1       9.270  -0.930  21.738  0.00  0.00    +0.004 C 
ATOM      9  C   UNL     1       7.957  -1.474  22.309  0.00  0.00    +0.009 C 
ATOM     10  C   UNL     1      10.490  -1.204  22.633  0.00  0.00    +0.009 C 
ATOM     11  C   UNL     1      10.646  -0.251  23.832  0.00  0.00    +0.004 C 
ATOM     12  C   UNL     1       9.723  -0.640  24.990  0.00  0.00    +0.009 C 
ATOM     13  C   UNL     1      10.472   1.207  23.372  0.00  0.00    +0.111 C 
ATOM     14  N   UNL     1       9.214   1.381  22.641  0.00  0.00    -0.297 N 
ATOM     15  C   UNL     1       8.224   2.369  22.811  0.00  0.00    +0.248 C 
ATOM     16  O   UNL     1       7.399   2.534  21.912  0.00  0.00    -0.270 OA
ATOM     17  C   UNL     1       9.141   0.565  21.422  0.00  0.00    +0.111 C 
ENDBRANCH   1  15
BRANCH   7  18
ATOM     18  N   UNL     1       6.308   1.990  25.119  0.00  0.00    -0.285 N 
ATOM     19  H   UNL     1       5.316   2.180  25.025  0.00  0.00    +0.155 HD
ATOM     20  C   UNL     1       6.556   1.020  26.082  0.00  0.00    +0.218 C 
ATOM     21  O   UNL     1       7.434   1.070  26.938  0.00  0.00    -0.275 OA
BRANCH  20  22
ATOM     22  C   UNL     1       5.541  -0.111  26.038  0.00  0.00    +0.105 C 
BRANCH  22  23
ATOM     23  C   UNL     1       6.259  -1.429  26.294  0.00  0.00    +0.105 C 
BRANCH  23  24
ATOM     24  C   UNL     1       5.912  -2.437  25.208  0.00  0.00    +0.216 C 
ATOM     25  N   UNL     1       6.669  -3.591  25.161  0.00  0.00    -0.297 N 
ATOM     26  C   UNL     1       7.966  -3.789  25.811  0.00  0.00    +0.136 C 
ATOM     27  C   UNL     1       9.014  -4.170  24.758  0.00  0.00    +0.179 C 
ATOM     28  O   UNL     1       8.601  -5.319  24.000  0.00  0.00    -0.377 OA
ATOM     29  C   UNL     1       7.355  -5.067  23.324  0.00  0.00    +0.179 C 
ATOM     30  C   UNL     1       6.252  -4.713  24.322  0.00  0.00    +0.136 C 
ATOM     31  O   UNL     1       4.993  -2.218  24.415  0.00  0.00    -0.276 OA
ENDBRANCH  23  24
ENDBRANCH  22  23
ENDBRANCH  20  22
ENDBRANCH   7  18
TORSDOF 5
ENDMDL
MODEL 5
REMARK VINA RESULT:      -6.7      2.242      2.682
REMARK  Name = 
REMARK  7 active torsions:
REMARK  status: ('A' for Active; 'I' for Inactive)
REMARK    1  A    between atoms: C_2  and  C_3
REMARK    2  A    between atoms: C_7  and  C_9
REMARK    3  A    between atoms: C_11  and  C_13
REMARK    4  A    between atoms: C_14  and  N_15
REMARK    5  A    between atoms: C_16  and  C_18
REMARK    6  A    between atoms: C_18  and  C_19
REMARK    7  A    between atoms: C_19  and  C_20
REMARK                            x       y       z     vdW  Elec       q    Type
REMARK                         _______ _______ _______ _____ _____    ______ ____
ROOT
ATOM      1  C   UNL     1       5.939   0.779  24.833  0.00  0.00    +0.059 A 
ATOM      2  C   UNL     1       5.036   1.522  25.597  0.00  0.00    +0.030 A 
ATOM      3  C   UNL     1       4.206   0.915  26.541  0.00  0.00    +0.019 A 
ATOM      4 BR   UNL     1       2.837   1.928  27.365  0.00  0.00    -0.050 Br
ATOM      5  C   UNL     1       4.338  -0.433  26.831  0.00  0.00    +0.017 A 
ATOM      6  C   UNL     1       5.330  -1.170  26.186  0.00  0.00    +0.025 A 
ATOM      7  C   UNL     1       6.150  -0.571  25.214  0.00  0.00    +0.046 A 
ENDROOT
BRANCH   1  15
ATOM      8  C   UNL     1       9.848   1.772  22.052  0.00  0.00    +0.004 C 
ATOM      9  C   UNL     1       9.703   0.348  21.510  0.00  0.00    +0.009 C 
ATOM     10  C   UNL     1      10.792   1.877  23.262  0.00  0.00    +0.009 C 
ATOM     11  C   UNL     1      10.176   1.455  24.608  0.00  0.00    +0.004 C 
ATOM     12  C   UNL     1      10.155  -0.068  24.769  0.00  0.00    +0.009 C 
ATOM     13  C   UNL     1       8.794   2.109  24.783  0.00  0.00    +0.111 C 
ATOM     14  N   UNL     1       7.933   1.835  23.630  0.00  0.00    -0.297 N 
ATOM     15  C   UNL     1       6.602   1.375  23.611  0.00  0.00    +0.248 C 
ATOM     16  O   UNL     1       5.952   1.499  22.573  0.00  0.00    -0.270 OA
ATOM     17  C   UNL     1       8.472   2.369  22.372  0.00  0.00    +0.111 C 
ENDBRANCH   1  15
BRANCH   7  18
ATOM     18  N   UNL     1       7.174  -1.393  24.689  0.00  0.00    -0.285 N 
ATOM     19  H   UNL     1       8.112  -1.009  24.718  0.00  0.00    +0.155 HD
ATOM     20  C   UNL     1       6.947  -2.106  23.518  0.00  0.00    +0.218 C 
ATOM     21  O   UNL     1       5.936  -2.038  22.825  0.00  0.00    -0.275 OA
BRANCH  20  22
ATOM     22  C   UNL     1       8.149  -2.940  23.107  0.00  0.00    +0.105 C 
BRANCH  22  23
ATOM     23  C   UNL     1       8.147  -4.237  23.904  0.00  0.00    +0.105 C 
BRANCH  23  24
ATOM     24  C   UNL     1       7.055  -5.167  23.395  0.00  0.00    +0.216 C 
ATOM     25  N   UNL     1       5.936  -5.311  24.190  0.00  0.00    -0.297 N 
ATOM     26  C   UNL     1       5.839  -4.944  25.604  0.00  0.00    +0.136 C 
ATOM     27  C   UNL     1       5.436  -6.174  26.427  0.00  0.00    +0.179 C 
ATOM     28  O   UNL     1       4.222  -6.762  25.930  0.00  0.00    -0.377 OA
ATOM     29  C   UNL     1       4.374  -7.169  24.558  0.00  0.00    +0.179 C 
ATOM     30  C   UNL     1       4.743  -5.978  23.671  0.00  0.00    +0.136 C 
ATOM     31  O   UNL     1       7.180  -5.755  22.318  0.00  0.00    -0.276 OA
ENDBRANCH  23  24
ENDBRANCH  22  23
ENDBRANCH  20  22
ENDBRANCH   7  18
TORSDOF 5
ENDMDL
MODEL 6
REMARK VINA RESULT:      -6.7      1.539      2.048
REMARK  Name = 
REMARK  7 active torsions:
REMARK  status: ('A' for Active; 'I' for Inactive)
REMARK    1  A    between atoms: C_2  and  C_3
REMARK    2  A    between atoms: C_7  and  C_9
REMARK    3  A    between atoms: C_11  and  C_13
REMARK    4  A    between atoms: C_14  and  N_15
REMARK    5  A    between atoms: C_16  and  C_18
REMARK    6  A    between atoms: C_18  and  C_19
REMARK    7  A    between atoms: C_19  and  C_20
REMARK                            x       y       z     vdW  Elec       q    Type
REMARK                         _______ _______ _______ _____ _____    ______ ____
ROOT
ATOM      1  C   UNL     1       7.265   1.436  26.198  0.00  0.00    +0.059 A 
ATOM      2  C   UNL     1       7.232   2.830  26.286  0.00  0.00    +0.030 A 
ATOM      3  C   UNL     1       6.178   3.496  26.913  0.00  0.00    +0.019 A 
ATOM      4 BR   UNL     1       6.060   5.380  26.785  0.00  0.00    -0.050 Br
ATOM      5  C   UNL     1       5.188   2.785  27.573  0.00  0.00    +0.017 A 
ATOM      6  C   UNL     1       5.274   1.395  27.624  0.00  0.00    +0.025 A 
ATOM      7  C   UNL     1       6.317   0.717  26.970  0.00  0.00    +0.046 A 
ENDROOT
BRANCH   1  15
ATOM      8  C   UNL     1       9.538   0.907  21.891  0.00  0.00    +0.004 C 
ATOM      9  C   UNL     1      10.506   1.988  22.378  0.00  0.00    +0.009 C 
ATOM     10  C   UNL     1       8.346   1.462  21.093  0.00  0.00    +0.009 C 
ATOM     11  C   UNL     1       7.211   2.057  21.947  0.00  0.00    +0.004 C 
ATOM     12  C   UNL     1       7.541   3.475  22.421  0.00  0.00    +0.009 C 
ATOM     13  C   UNL     1       6.855   1.094  23.093  0.00  0.00    +0.111 C 
ATOM     14  N   UNL     1       8.046   0.734  23.866  0.00  0.00    -0.297 N 
ATOM     15  C   UNL     1       8.226   0.736  25.263  0.00  0.00    +0.248 C 
ATOM     16  O   UNL     1       9.179   0.115  25.733  0.00  0.00    -0.270 OA
ATOM     17  C   UNL     1       9.063   0.041  23.063  0.00  0.00    +0.111 C 
ENDBRANCH   1  15
BRANCH   7  18
ATOM     18  N   UNL     1       6.349  -0.684  27.162  0.00  0.00    -0.285 N 
ATOM     19  H   UNL     1       7.246  -1.078  27.420  0.00  0.00    +0.155 HD
ATOM     20  C   UNL     1       5.657  -1.510  26.284  0.00  0.00    +0.218 C 
ATOM     21  O   UNL     1       5.059  -1.143  25.278  0.00  0.00    -0.275 OA
BRANCH  20  22
ATOM     22  C   UNL     1       5.794  -2.980  26.646  0.00  0.00    +0.105 C 
BRANCH  22  23
ATOM     23  C   UNL     1       7.084  -3.520  26.045  0.00  0.00    +0.105 C 
BRANCH  23  24
ATOM     24  C   UNL     1       6.785  -4.693  25.122  0.00  0.00    +0.216 C 
ATOM     25  N   UNL     1       6.887  -4.463  23.765  0.00  0.00    -0.297 N 
ATOM     26  C   UNL     1       6.915  -3.148  23.121  0.00  0.00    +0.136 C 
ATOM     27  C   UNL     1       5.769  -3.050  22.106  0.00  0.00    +0.179 C 
ATOM     28  O   UNL     1       5.819  -4.126  21.155  0.00  0.00    -0.377 OA
ATOM     29  C   UNL     1       5.726  -5.401  21.817  0.00  0.00    +0.179 C 
ATOM     30  C   UNL     1       6.864  -5.580  22.823  0.00  0.00    +0.136 C 
ATOM     31  O   UNL     1       6.468  -5.793  25.583  0.00  0.00    -0.276 OA
ENDBRANCH  23  24
ENDBRANCH  22  23
ENDBRANCH  20  22
ENDBRANCH   7  18
TORSDOF 5
ENDMDL
MODEL 7
REMARK VINA RESULT:      -6.6      2.808      6.441
REMARK  Name = 
REMARK  7 active torsions:
REMARK  status: ('A' for Active; 'I' for Inactive)
REMARK    1  A    between atoms: C_2  and  C_3
REMARK    2  A    between atoms: C_7  and  C_9
REMARK    3  A    between atoms: C_11  and  C_13
REMARK    4  A    between atoms: C_14  and  N_15
REMARK    5  A    between atoms: C_16  and  C_18
REMARK    6  A    between atoms: C_18  and  C_19
REMARK    7  A    between atoms: C_19  and  C_20
REMARK                            x       y       z     vdW  Elec       q    Type
REMARK                         _______ _______ _______ _____ _____    ______ ____
ROOT
ATOM      1  C   UNL     1       7.645  -2.241  25.492  0.00  0.00    +0.059 A 
ATOM      2  C   UNL     1       7.265  -3.206  26.428  0.00  0.00    +0.030 A 
ATOM      3  C   UNL     1       6.781  -4.455  26.034  0.00  0.00    +0.019 A 
ATOM      4 BR   UNL     1       6.053  -5.623  27.331  0.00  0.00    -0.050 Br
ATOM      5  C   UNL     1       6.773  -4.817  24.696  0.00  0.00    +0.017 A 
ATOM      6  C   UNL     1       7.281  -3.927  23.752  0.00  0.00    +0.025 A 
ATOM      7  C   UNL     1       7.744  -2.657  24.139  0.00  0.00    +0.046 A 
ENDROOT
BRANCH   1  15
ATOM      8  C   UNL     1       6.373   1.859  27.851  0.00  0.00    +0.004 C 
ATOM      9  C   UNL     1       6.979   1.214  29.100  0.00  0.00    +0.009 C 
ATOM     10  C   UNL     1       4.867   1.591  27.689  0.00  0.00    +0.009 C 
ATOM     11  C   UNL     1       4.510   0.208  27.115  0.00  0.00    +0.004 C 
ATOM     12  C   UNL     1       4.578  -0.885  28.186  0.00  0.00    +0.009 C 
ATOM     13  C   UNL     1       5.376  -0.089  25.879  0.00  0.00    +0.111 C 
ATOM     14  N   UNL     1       6.800   0.071  26.184  0.00  0.00    -0.297 N 
ATOM     15  C   UNL     1       7.868  -0.803  25.901  0.00  0.00    +0.248 C 
ATOM     16  O   UNL     1       9.017  -0.363  25.955  0.00  0.00    -0.270 OA
ATOM     17  C   UNL     1       7.148   1.438  26.597  0.00  0.00    +0.111 C 
ENDBRANCH   1  15
BRANCH   7  18
ATOM     18  N   UNL     1       8.313  -1.874  23.108  0.00  0.00    -0.285 N 
ATOM     19  H   UNL     1       7.807  -1.858  22.230  0.00  0.00    +0.155 HD
ATOM     20  C   UNL     1       9.688  -1.902  22.908  0.00  0.00    +0.218 C 
ATOM     21  O   UNL     1      10.483  -2.618  23.508  0.00  0.00    -0.275 OA
BRANCH  20  22
ATOM     22  C   UNL     1      10.125  -0.997  21.767  0.00  0.00    +0.105 C 
BRANCH  22  23
ATOM     23  C   UNL     1       9.007  -0.009  21.464  0.00  0.00    +0.105 C 
BRANCH  23  24
ATOM     24  C   UNL     1       9.324   1.348  22.075  0.00  0.00    +0.216 C 
ATOM     25  N   UNL     1       8.339   1.932  22.846  0.00  0.00    -0.297 N 
ATOM     26  C   UNL     1       6.924   1.554  22.856  0.00  0.00    +0.136 C 
ATOM     27  C   UNL     1       6.065   2.773  22.499  0.00  0.00    +0.179 C 
ATOM     28  O   UNL     1       6.341   3.881  23.371  0.00  0.00    -0.377 OA
ATOM     29  C   UNL     1       7.726   4.267  23.289  0.00  0.00    +0.179 C 
ATOM     30  C   UNL     1       8.642   3.102  23.668  0.00  0.00    +0.136 C 
ATOM     31  O   UNL     1      10.417   1.887  21.881  0.00  0.00    -0.276 OA
ENDBRANCH  23  24
ENDBRANCH  22  23
ENDBRANCH  20  22
ENDBRANCH   7  18
TORSDOF 5
ENDMDL
MODEL 8
REMARK VINA RESULT:      -6.6      1.788      2.134
REMARK  Name = 
REMARK  7 active torsions:
REMARK  status: ('A' for Active; 'I' for Inactive)
REMARK    1  A    between atoms: C_2  and  C_3
REMARK    2  A    between atoms: C_7  and  C_9
REMARK    3  A    between atoms: C_11  and  C_13
REMARK    4  A    between atoms: C_14  and  N_15
REMARK    5  A    between atoms: C_16  and  C_18
REMARK    6  A    between atoms: C_18  and  C_19
REMARK    7  A    between atoms: C_19  and  C_20
REMARK                            x       y       z     vdW  Elec       q    Type
REMARK                         _______ _______ _______ _____ _____    ______ ____
ROOT
ATOM      1  C   UNL     1       6.925   1.742  26.168  0.00  0.00    +0.059 A 
ATOM      2  C   UNL     1       7.019   3.011  26.745  0.00  0.00    +0.030 A 
ATOM      3  C   UNL     1       6.823   3.207  28.113  0.00  0.00    +0.019 A 
ATOM      4 BR   UNL     1       6.717   4.967  28.796  0.00  0.00    -0.050 Br
ATOM      5  C   UNL     1       6.645   2.125  28.960  0.00  0.00    +0.017 A 
ATOM      6  C   UNL     1       6.691   0.836  28.432  0.00  0.00    +0.025 A 
ATOM      7  C   UNL     1       6.859   0.634  27.050  0.00  0.00    +0.046 A 
ENDROOT
BRANCH   1  15
ATOM      8  C   UNL     1       8.873   1.004  21.734  0.00  0.00    +0.004 C 
ATOM      9  C   UNL     1       8.877  -0.486  22.090  0.00  0.00    +0.009 C 
ATOM     10  C   UNL     1      10.184   1.725  22.092  0.00  0.00    +0.009 C 
ATOM     11  C   UNL     1      10.333   2.107  23.576  0.00  0.00    +0.004 C 
ATOM     12  C   UNL     1      10.771   0.912  24.428  0.00  0.00    +0.009 C 
ATOM     13  C   UNL     1       9.043   2.780  24.078  0.00  0.00    +0.111 C 
ATOM     14  N   UNL     1       7.872   1.944  23.800  0.00  0.00    -0.297 N 
ATOM     15  C   UNL     1       6.827   1.573  24.668  0.00  0.00    +0.248 C 
ATOM     16  O   UNL     1       5.787   1.130  24.179  0.00  0.00    -0.270 OA
ATOM     17  C   UNL     1       7.666   1.705  22.365  0.00  0.00    +0.111 C 
ENDBRANCH   1  15
BRANCH   7  18
ATOM     18  N   UNL     1       6.975  -0.715  26.641  0.00  0.00    -0.285 N 
ATOM     19  H   UNL     1       6.252  -1.344  26.972  0.00  0.00    +0.155 HD
ATOM     20  C   UNL     1       8.224  -1.324  26.637  0.00  0.00    +0.218 C 
ATOM     21  O   UNL     1       9.268  -0.816  27.035  0.00  0.00    -0.275 OA
BRANCH  20  22
ATOM     22  C   UNL     1       8.162  -2.766  26.162  0.00  0.00    +0.105 C 
BRANCH  22  23
ATOM     23  C   UNL     1       6.839  -2.995  25.444  0.00  0.00    +0.105 C 
BRANCH  23  24
ATOM     24  C   UNL     1       5.999  -4.013  26.200  0.00  0.00    +0.216 C 
ATOM     25  N   UNL     1       5.885  -5.269  25.641  0.00  0.00    -0.297 N 
ATOM     26  C   UNL     1       6.195  -5.618  24.253  0.00  0.00    +0.136 C 
ATOM     27  C   UNL     1       4.956  -6.231  23.589  0.00  0.00    +0.179 C 
ATOM     28  O   UNL     1       4.463  -7.355  24.338  0.00  0.00    -0.377 OA
ATOM     29  C   UNL     1       4.109  -6.963  25.678  0.00  0.00    +0.179 C 
ATOM     30  C   UNL     1       5.313  -6.372  26.412  0.00  0.00    +0.136 C 
ATOM     31  O   UNL     1       5.452  -3.712  27.265  0.00  0.00    -0.276 OA
ENDBRANCH  23  24
ENDBRANCH  22  23
ENDBRANCH  20  22
ENDBRANCH   7  18
TORSDOF 5
ENDMDL
MODEL 9
REMARK VINA RESULT:      -6.6      4.363      8.140
REMARK  Name = 
REMARK  7 active torsions:
REMARK  status: ('A' for Active; 'I' for Inactive)
REMARK    1  A    between atoms: C_2  and  C_3
REMARK    2  A    between atoms: C_7  and  C_9
REMARK    3  A    between atoms: C_11  and  C_13
REMARK    4  A    between atoms: C_14  and  N_15
REMARK    5  A    between atoms: C_16  and  C_18
REMARK    6  A    between atoms: C_18  and  C_19
REMARK    7  A    between atoms: C_19  and  C_20
REMARK                            x       y       z     vdW  Elec       q    Type
REMARK                         _______ _______ _______ _____ _____    ______ ____
ROOT
ATOM      1  C   UNL     1       5.302  -5.933  25.658  0.00  0.00    +0.059 A 
ATOM      2  C   UNL     1       4.229  -6.725  25.244  0.00  0.00    +0.030 A 
ATOM      3  C   UNL     1       3.712  -6.635  23.951  0.00  0.00    +0.019 A 
ATOM      4 BR   UNL     1       2.110  -7.546  23.523  0.00  0.00    -0.050 Br
ATOM      5  C   UNL     1       4.328  -5.837  23.000  0.00  0.00    +0.017 A 
ATOM      6  C   UNL     1       5.487  -5.146  23.346  0.00  0.00    +0.025 A 
ATOM      7  C   UNL     1       5.996  -5.209  24.655  0.00  0.00    +0.046 A 
ENDROOT
BRANCH   1  15
ATOM      8  C   UNL     1       4.143  -5.296  30.375  0.00  0.00    +0.004 C 
ATOM      9  C   UNL     1       3.812  -6.791  30.396  0.00  0.00    +0.009 C 
ATOM     10  C   UNL     1       2.934  -4.403  30.050  0.00  0.00    +0.009 C 
ATOM     11  C   UNL     1       2.572  -4.317  28.555  0.00  0.00    +0.004 C 
ATOM     12  C   UNL     1       1.777  -5.542  28.093  0.00  0.00    +0.009 C 
ATOM     13  C   UNL     1       3.838  -4.055  27.721  0.00  0.00    +0.111 C 
ATOM     14  N   UNL     1       4.877  -5.044  28.018  0.00  0.00    -0.297 N 
ATOM     15  C   UNL     1       5.656  -5.802  27.123  0.00  0.00    +0.248 C 
ATOM     16  O   UNL     1       6.677  -6.344  27.546  0.00  0.00    -0.270 OA
ATOM     17  C   UNL     1       5.310  -5.016  29.422  0.00  0.00    +0.111 C 
ENDBRANCH   1  15
BRANCH   7  18
ATOM     18  N   UNL     1       7.222  -4.536  24.866  0.00  0.00    -0.285 N 
ATOM     19  H   UNL     1       7.928  -5.048  25.383  0.00  0.00    +0.155 HD
ATOM     20  C   UNL     1       7.212  -3.188  25.206  0.00  0.00    +0.218 C 
ATOM     21  O   UNL     1       6.211  -2.513  25.421  0.00  0.00    -0.275 OA
BRANCH  20  22
ATOM     22  C   UNL     1       8.613  -2.627  25.385  0.00  0.00    +0.105 C 
BRANCH  22  23
ATOM     23  C   UNL     1       9.449  -2.984  24.164  0.00  0.00    +0.105 C 
BRANCH  23  24
ATOM     24  C   UNL     1       8.980  -2.188  22.954  0.00  0.00    +0.216 C 
ATOM     25  N   UNL     1       9.668  -1.028  22.664  0.00  0.00    -0.297 N 
ATOM     26  C   UNL     1      10.562  -0.313  23.577  0.00  0.00    +0.136 C 
ATOM     27  C   UNL     1      10.068   1.128  23.753  0.00  0.00    +0.179 C 
ATOM     28  O   UNL     1       9.934   1.795  22.487  0.00  0.00    -0.377 OA
ATOM     29  C   UNL     1       9.000   1.100  21.639  0.00  0.00    +0.179 C 
ATOM     30  C   UNL     1       9.452  -0.340  21.392  0.00  0.00    +0.136 C 
ATOM     31  O   UNL     1       8.027  -2.579  22.274  0.00  0.00    -0.276 OA
ENDBRANCH  23  24
ENDBRANCH  22  23
ENDBRANCH  20  22
ENDBRANCH   7  18
TORSDOF 5
ENDMDL
