MODEL 1
REMARK VINA RESULT:      -6.3      0.000      0.000
REMARK  Name = 
REMARK  8 active torsions:
REMARK  status: ('A' for Active; 'I' for Inactive)
REMARK    1  A    between atoms: N_1  and  C_2
REMARK    2  A    between atoms: C_2  and  C_3
REMARK    3  A    between atoms: C_3  and  C_4
REMARK    4  A    between atoms: C_4  and  C_5
REMARK    5  A    between atoms: C_5  and  N_6
REMARK    6  A    between atoms: C_7  and  C_9
REMARK    7  A    between atoms: C_12  and  S_15
REMARK    8  A    between atoms: S_15  and  N_16
REMARK                            x       y       z     vdW  Elec       q    Type
REMARK                         _______ _______ _______ _____ _____    ______ ____
ROOT
ATOM      1  C   UNL     1       9.686  -0.520  23.868  0.00  0.00    +0.037 A 
ATOM      2  C   UNL     1       8.980  -0.608  25.076  0.00  0.00    +0.015 A 
ATOM      3  C   UNL     1       8.704  -1.860  25.632  0.00  0.00    +0.029 A 
ATOM      4  C   UNL     1       9.158  -3.016  24.987  0.00  0.00    +0.105 A 
ATOM      5  C   UNL     1       9.904  -2.932  23.807  0.00  0.00    +0.029 A 
ATOM      6  C   UNL     1      10.178  -1.681  23.254  0.00  0.00    +0.015 A 
ENDROOT
BRANCH   1   9
ATOM      7  N   UNL     1       9.864   1.876  24.117  0.00  0.00    -0.311 N 
ATOM      8  H   UNL     1       9.793   1.703  25.111  0.00  0.00    +0.149 HD
ATOM      9  C   UNL     1       9.858   0.815  23.236  0.00  0.00    +0.244 C 
ATOM     10  O   UNL     1      10.027   0.917  22.029  0.00  0.00    -0.270 OA
BRANCH   7  11
ATOM     11  C   UNL     1      10.026   3.246  23.684  0.00  0.00    +0.104 C 
BRANCH  11  12
ATOM     12  C   UNL     1      11.480   3.584  23.370  0.00  0.00    +0.020 C 
BRANCH  12  13
ATOM     13  C   UNL     1      11.766   5.087  23.464  0.00  0.00    +0.016 C 
BRANCH  13  14
ATOM     14  C   UNL     1      12.907   5.489  22.533  0.00  0.00    +0.078 C 
BRANCH  14  15
ATOM     15  N   UNL     1      14.189   5.119  23.121  0.00  0.00    -0.330 NA
ATOM     16  H   UNL     1      14.049   4.807  24.082  0.00  0.00    +0.118 HD
ATOM     17  H   UNL     1      14.572   4.319  22.617  0.00  0.00    +0.118 HD
ENDBRANCH  14  15
ENDBRANCH  13  14
ENDBRANCH  12  13
ENDBRANCH  11  12
ENDBRANCH   7  11
ENDBRANCH   1   9
BRANCH   4  18
ATOM     18  S   UNL     1       8.705  -4.611  25.606  0.00  0.00    +0.056 S 
ATOM     19  O   UNL     1       7.697  -5.179  24.742  0.00  0.00    -0.153 OA
ATOM     20  O   UNL     1       8.542  -4.536  27.039  0.00  0.00    -0.153 OA
BRANCH  18  21
ATOM     21  N   UNL     1      10.101  -5.499  25.340  0.00  0.00    -0.204 NA
ATOM     22  H   UNL     1      10.871  -5.104  25.878  0.00  0.00    +0.144 HD
ATOM     23  H   UNL     1      10.286  -5.558  24.338  0.00  0.00    +0.144 HD
ENDBRANCH  18  21
ENDBRANCH   4  18
TORSDOF 8
ENDMDL
MODEL 2
REMARK VINA RESULT:      -6.1      2.321      2.632
REMARK  Name = 
REMARK  8 active torsions:
REMARK  status: ('A' for Active; 'I' for Inactive)
REMARK    1  A    between atoms: N_1  and  C_2
REMARK    2  A    between atoms: C_2  and  C_3
REMARK    3  A    between atoms: C_3  and  C_4
REMARK    4  A    between atoms: C_4  and  C_5
REMARK    5  A    between atoms: C_5  and  N_6
REMARK    6  A    between atoms: C_7  and  C_9
REMARK    7  A    between atoms: C_12  and  S_15
REMARK    8  A    between atoms: S_15  and  N_16
REMARK                            x       y       z     vdW  Elec       q    Type
REMARK                         _______ _______ _______ _____ _____    ______ ____
ROOT
ATOM      1  C   UNL     1       9.556  -0.494  24.979  0.00  0.00    +0.037 A 
ATOM      2  C   UNL     1       8.917  -0.855  26.173  0.00  0.00    +0.015 A 
ATOM      3  C   UNL     1       8.574  -2.189  26.404  0.00  0.00    +0.029 A 
ATOM      4  C   UNL     1       8.897  -3.160  25.448  0.00  0.00    +0.105 A 
ATOM      5  C   UNL     1       9.578  -2.812  24.277  0.00  0.00    +0.029 A 
ATOM      6  C   UNL     1       9.917  -1.478  24.048  0.00  0.00    +0.015 A 
ENDROOT
BRANCH   1   9
ATOM      7  N   UNL     1       8.723   1.774  24.967  0.00  0.00    -0.311 N 
ATOM      8  H   UNL     1       7.873   1.385  25.352  0.00  0.00    +0.149 HD
ATOM      9  C   UNL     1       9.796   0.948  24.705  0.00  0.00    +0.244 C 
ATOM     10  O   UNL     1      10.891   1.336  24.323  0.00  0.00    -0.270 OA
BRANCH   7  11
ATOM     11  C   UNL     1       8.775   3.205  24.766  0.00  0.00    +0.104 C 
BRANCH  11  12
ATOM     12  C   UNL     1       8.507   3.595  23.315  0.00  0.00    +0.020 C 
BRANCH  12  13
ATOM     13  C   UNL     1       7.440   2.712  22.659  0.00  0.00    +0.016 C 
BRANCH  13  14
ATOM     14  C   UNL     1       8.037   1.875  21.530  0.00  0.00    +0.078 C 
BRANCH  14  15
ATOM     15  N   UNL     1       9.489   2.001  21.526  0.00  0.00    -0.330 NA
ATOM     16  H   UNL     1       9.905   1.185  21.078  0.00  0.00    +0.118 HD
ATOM     17  H   UNL     1       9.756   2.803  20.954  0.00  0.00    +0.118 HD
ENDBRANCH  14  15
ENDBRANCH  13  14
ENDBRANCH  12  13
ENDBRANCH  11  12
ENDBRANCH   7  11
ENDBRANCH   1   9
BRANCH   4  18
ATOM     18  S   UNL     1       8.356  -4.830  25.664  0.00  0.00    +0.056 S 
ATOM     19  O   UNL     1       7.373  -5.138  24.652  0.00  0.00    -0.153 OA
ATOM     20  O   UNL     1       8.123  -5.077  27.068  0.00  0.00    -0.153 OA
BRANCH  18  21
ATOM     21  N   UNL     1       9.730  -5.699  25.258  0.00  0.00    -0.204 NA
ATOM     22  H   UNL     1      10.391  -5.685  26.034  0.00  0.00    +0.144 HD
ATOM     23  H   UNL     1      10.115  -5.345  24.382  0.00  0.00    +0.144 HD
ENDBRANCH  18  21
ENDBRANCH   4  18
TORSDOF 8
ENDMDL
MODEL 3
REMARK VINA RESULT:      -6.0      3.256      3.948
REMARK  Name = 
REMARK  8 active torsions:
REMARK  status: ('A' for Active; 'I' for Inactive)
REMARK    1  A    between atoms: N_1  and  C_2
REMARK    2  A    between atoms: C_2  and  C_3
REMARK    3  A    between atoms: C_3  and  C_4
REMARK    4  A    between atoms: C_4  and  C_5
REMARK    5  A    between atoms: C_5  and  N_6
REMARK    6  A    between atoms: C_7  and  C_9
REMARK    7  A    between atoms: C_12  and  S_15
REMARK    8  A    between atoms: S_15  and  N_16
REMARK                            x       y       z     vdW  Elec       q    Type
REMARK                         _______ _______ _______ _____ _____    ______ ____
ROOT
ATOM      1  C   UNL     1       8.545  -2.556  23.329  0.00  0.00    +0.037 A 
ATOM      2  C   UNL     1       7.358  -2.183  22.683  0.00  0.00    +0.015 A 
ATOM      3  C   UNL     1       6.290  -3.080  22.615  0.00  0.00    +0.029 A 
ATOM      4  C   UNL     1       6.407  -4.339  23.217  0.00  0.00    +0.105 A 
ATOM      5  C   UNL     1       7.572  -4.698  23.903  0.00  0.00    +0.029 A 
ATOM      6  C   UNL     1       8.637  -3.800  23.968  0.00  0.00    +0.015 A 
ENDROOT
BRANCH   1   9
ATOM      7  N   UNL     1       9.712  -0.650  24.247  0.00  0.00    -0.311 N 
ATOM      8  H   UNL     1       8.976  -0.630  24.942  0.00  0.00    +0.149 HD
ATOM      9  C   UNL     1       9.708  -1.631  23.277  0.00  0.00    +0.244 C 
ATOM     10  O   UNL     1      10.597  -1.791  22.452  0.00  0.00    -0.270 OA
BRANCH   7  11
ATOM     11  C   UNL     1      10.766   0.334  24.356  0.00  0.00    +0.104 C 
BRANCH  11  12
ATOM     12  C   UNL     1      10.241   1.760  24.214  0.00  0.00    +0.020 C 
BRANCH  12  13
ATOM     13  C   UNL     1      10.290   2.260  22.766  0.00  0.00    +0.016 C 
BRANCH  13  14
ATOM     14  C   UNL     1       8.974   1.982  22.044  0.00  0.00    +0.078 C 
BRANCH  14  15
ATOM     15  N   UNL     1       9.129   0.852  21.136  0.00  0.00    -0.330 NA
ATOM     16  H   UNL     1       9.214   1.189  20.177  0.00  0.00    +0.118 HD
ATOM     17  H   UNL     1      10.004   0.370  21.345  0.00  0.00    +0.118 HD
ENDBRANCH  14  15
ENDBRANCH  13  14
ENDBRANCH  12  13
ENDBRANCH  11  12
ENDBRANCH   7  11
ENDBRANCH   1   9
BRANCH   4  18
ATOM     18  S   UNL     1       5.117  -5.535  23.028  0.00  0.00    +0.056 S 
ATOM     19  O   UNL     1       3.893  -4.852  22.680  0.00  0.00    -0.153 OA
ATOM     20  O   UNL     1       5.189  -6.488  24.111  0.00  0.00    -0.153 OA
BRANCH  18  21
ATOM     21  N   UNL     1       5.600  -6.356  21.649  0.00  0.00    -0.204 NA
ATOM     22  H   UNL     1       6.379  -5.867  21.210  0.00  0.00    +0.144 HD
ATOM     23  H   UNL     1       4.799  -6.494  21.032  0.00  0.00    +0.144 HD
ENDBRANCH  18  21
ENDBRANCH   4  18
TORSDOF 8
ENDMDL
MODEL 4
REMARK VINA RESULT:      -5.9      2.730      3.350
REMARK  Name = 
REMARK  8 active torsions:
REMARK  status: ('A' for Active; 'I' for Inactive)
REMARK    1  A    between atoms: N_1  and  C_2
REMARK    2  A    between atoms: C_2  and  C_3
REMARK    3  A    between atoms: C_3  and  C_4
REMARK    4  A    between atoms: C_4  and  C_5
REMARK    5  A    between atoms: C_5  and  N_6
REMARK    6  A    between atoms: C_7  and  C_9
REMARK    7  A    between atoms: C_12  and  S_15
REMARK    8  A    between atoms: S_15  and  N_16
REMARK                            x       y       z     vdW  Elec       q    Type
REMARK                         _______ _______ _______ _____ _____    ______ ____
ROOT
ATOM      1  C   UNL     1       8.793  -2.671  23.542  0.00  0.00    +0.037 A 
ATOM      2  C   UNL     1       9.534  -3.382  24.496  0.00  0.00    +0.015 A 
ATOM      3  C   UNL     1       8.878  -4.188  25.429  0.00  0.00    +0.029 A 
ATOM      4  C   UNL     1       7.483  -4.297  25.386  0.00  0.00    +0.105 A 
ATOM      5  C   UNL     1       6.742  -3.627  24.407  0.00  0.00    +0.029 A 
ATOM      6  C   UNL     1       7.400  -2.822  23.477  0.00  0.00    +0.015 A 
ENDROOT
BRANCH   1   9
ATOM      7  N   UNL     1       8.758  -0.643  22.230  0.00  0.00    -0.311 N 
ATOM      8  H   UNL     1       7.814  -0.526  22.573  0.00  0.00    +0.149 HD
ATOM      9  C   UNL     1       9.506  -1.726  22.642  0.00  0.00    +0.244 C 
ATOM     10  O   UNL     1      10.681  -1.906  22.354  0.00  0.00    -0.270 OA
BRANCH   7  11
ATOM     11  C   UNL     1       9.288   0.382  21.358  0.00  0.00    +0.104 C 
BRANCH  11  12
ATOM     12  C   UNL     1       9.140   1.780  21.954  0.00  0.00    +0.020 C 
BRANCH  12  13
ATOM     13  C   UNL     1      10.213   2.085  23.004  0.00  0.00    +0.016 C 
BRANCH  13  14
ATOM     14  C   UNL     1       9.619   2.095  24.411  0.00  0.00    +0.078 C 
BRANCH  14  15
ATOM     15  N   UNL     1       9.880   0.824  25.074  0.00  0.00    -0.330 NA
ATOM     16  H   UNL     1       9.691   0.054  24.432  0.00  0.00    +0.118 HD
ATOM     17  H   UNL     1      10.872   0.762  25.304  0.00  0.00    +0.118 HD
ENDBRANCH  14  15
ENDBRANCH  13  14
ENDBRANCH  12  13
ENDBRANCH  11  12
ENDBRANCH   7  11
ENDBRANCH   1   9
BRANCH   4  18
ATOM     18  S   UNL     1       6.627  -5.206  26.640  0.00  0.00    +0.056 S 
ATOM     19  O   UNL     1       5.919  -6.302  26.023  0.00  0.00    -0.153 OA
ATOM     20  O   UNL     1       5.983  -4.280  27.543  0.00  0.00    -0.153 OA
BRANCH  18  21
ATOM     21  N   UNL     1       7.892  -5.893  27.499  0.00  0.00    -0.204 NA
ATOM     22  H   UNL     1       7.693  -6.876  27.681  0.00  0.00    +0.144 HD
ATOM     23  H   UNL     1       8.073  -5.347  28.342  0.00  0.00    +0.144 HD
ENDBRANCH  18  21
ENDBRANCH   4  18
TORSDOF 8
ENDMDL
MODEL 5
REMARK VINA RESULT:      -5.9      3.538      8.209
REMARK  Name = 
REMARK  8 active torsions:
REMARK  status: ('A' for Active; 'I' for Inactive)
REMARK    1  A    between atoms: N_1  and  C_2
REMARK    2  A    between atoms: C_2  and  C_3
REMARK    3  A    between atoms: C_3  and  C_4
REMARK    4  A    between atoms: C_4  and  C_5
REMARK    5  A    between atoms: C_5  and  N_6
REMARK    6  A    between atoms: C_7  and  C_9
REMARK    7  A    between atoms: C_12  and  S_15
REMARK    8  A    between atoms: S_15  and  N_16
REMARK                            x       y       z     vdW  Elec       q    Type
REMARK                         _______ _______ _______ _____ _____    ______ ____
ROOT
ATOM      1  C   UNL     1       9.477  -1.909  24.005  0.00  0.00    +0.037 A 
ATOM      2  C   UNL     1       9.970  -1.379  22.805  0.00  0.00    +0.015 A 
ATOM      3  C   UNL     1      10.100   0.004  22.655  0.00  0.00    +0.029 A 
ATOM      4  C   UNL     1       9.759   0.848  23.719  0.00  0.00    +0.105 A 
ATOM      5  C   UNL     1       9.311   0.321  24.935  0.00  0.00    +0.029 A 
ATOM      6  C   UNL     1       9.181  -1.060  25.081  0.00  0.00    +0.015 A 
ENDROOT
BRANCH   1   9
ATOM      7  N   UNL     1       8.037  -3.794  23.544  0.00  0.00    -0.311 N 
ATOM      8  H   UNL     1       7.428  -3.124  23.094  0.00  0.00    +0.149 HD
ATOM      9  C   UNL     1       9.231  -3.373  24.092  0.00  0.00    +0.244 C 
ATOM     10  O   UNL     1      10.071  -4.119  24.576  0.00  0.00    -0.270 OA
BRANCH   7  11
ATOM     11  C   UNL     1       7.633  -5.182  23.531  0.00  0.00    +0.104 C 
BRANCH  11  12
ATOM     12  C   UNL     1       7.283  -5.669  22.128  0.00  0.00    +0.020 C 
BRANCH  12  13
ATOM     13  C   UNL     1       5.812  -6.077  22.000  0.00  0.00    +0.016 C 
BRANCH  13  14
ATOM     14  C   UNL     1       5.092  -5.967  23.341  0.00  0.00    +0.078 C 
BRANCH  14  15
ATOM     15  N   UNL     1       4.589  -7.273  23.749  0.00  0.00    -0.330 NA
ATOM     16  H   UNL     1       4.679  -7.933  22.978  0.00  0.00    +0.118 HD
ATOM     17  H   UNL     1       5.173  -7.637  24.502  0.00  0.00    +0.118 HD
ENDBRANCH  14  15
ENDBRANCH  13  14
ENDBRANCH  12  13
ENDBRANCH  11  12
ENDBRANCH   7  11
ENDBRANCH   1   9
BRANCH   4  18
ATOM     18  S   UNL     1       9.792   2.604  23.502  0.00  0.00    +0.056 S 
ATOM     19  O   UNL     1      11.166   3.039  23.418  0.00  0.00    -0.153 OA
ATOM     20  O   UNL     1       8.842   3.212  24.404  0.00  0.00    -0.153 OA
BRANCH  18  21
ATOM     21  N   UNL     1       9.153   2.778  21.962  0.00  0.00    -0.204 NA
ATOM     22  H   UNL     1       8.140   2.876  22.017  0.00  0.00    +0.144 HD
ATOM     23  H   UNL     1       9.462   2.006  21.371  0.00  0.00    +0.144 HD
ENDBRANCH  18  21
ENDBRANCH   4  18
TORSDOF 8
ENDMDL
MODEL 6
REMARK VINA RESULT:      -5.9      3.326      7.733
REMARK  Name = 
REMARK  8 active torsions:
REMARK  status: ('A' for Active; 'I' for Inactive)
REMARK    1  A    between atoms: N_1  and  C_2
REMARK    2  A    between atoms: C_2  and  C_3
REMARK    3  A    between atoms: C_3  and  C_4
REMARK    4  A    between atoms: C_4  and  C_5
REMARK    5  A    between atoms: C_5  and  N_6
REMARK    6  A    between atoms: C_7  and  C_9
REMARK    7  A    between atoms: C_12  and  S_15
REMARK    8  A    between atoms: S_15  and  N_16
REMARK                            x       y       z     vdW  Elec       q    Type
REMARK                         _______ _______ _______ _____ _____    ______ ____
ROOT
ATOM      1  C   UNL     1       9.345  -2.164  24.037  0.00  0.00    +0.037 A 
ATOM      2  C   UNL     1       9.895  -1.740  22.820  0.00  0.00    +0.015 A 
ATOM      3  C   UNL     1      10.134  -0.381  22.598  0.00  0.00    +0.029 A 
ATOM      4  C   UNL     1       9.843   0.543  23.608  0.00  0.00    +0.105 A 
ATOM      5  C   UNL     1       9.338   0.120  24.842  0.00  0.00    +0.029 A 
ATOM      6  C   UNL     1       9.100  -1.237  25.060  0.00  0.00    +0.015 A 
ENDROOT
BRANCH   1   9
ATOM      7  N   UNL     1       7.720  -3.931  23.763  0.00  0.00    -0.311 N 
ATOM      8  H   UNL     1       7.133  -3.224  23.339  0.00  0.00    +0.149 HD
ATOM      9  C   UNL     1       8.986  -3.598  24.197  0.00  0.00    +0.244 C 
ATOM     10  O   UNL     1       9.798  -4.399  24.639  0.00  0.00    -0.270 OA
BRANCH   7  11
ATOM     11  C   UNL     1       7.201  -5.279  23.834  0.00  0.00    +0.104 C 
BRANCH  11  12
ATOM     12  C   UNL     1       6.210  -5.456  24.980  0.00  0.00    +0.020 C 
BRANCH  12  13
ATOM     13  C   UNL     1       6.325  -4.348  26.032  0.00  0.00    +0.016 C 
BRANCH  13  14
ATOM     14  C   UNL     1       6.825  -4.902  27.363  0.00  0.00    +0.078 C 
BRANCH  14  15
ATOM     15  N   UNL     1       8.094  -5.594  27.174  0.00  0.00    -0.330 NA
ATOM     16  H   UNL     1       8.417  -5.971  28.065  0.00  0.00    +0.118 HD
ATOM     17  H   UNL     1       7.951  -6.398  26.562  0.00  0.00    +0.118 HD
ENDBRANCH  14  15
ENDBRANCH  13  14
ENDBRANCH  12  13
ENDBRANCH  11  12
ENDBRANCH   7  11
ENDBRANCH   1   9
BRANCH   4  18
ATOM     18  S   UNL     1      10.015   2.277  23.298  0.00  0.00    +0.056 S 
ATOM     19  O   UNL     1      11.309   2.710  23.769  0.00  0.00    -0.153 OA
ATOM     20  O   UNL     1       8.792   2.950  23.670  0.00  0.00    -0.153 OA
BRANCH  18  21
ATOM     21  N   UNL     1      10.087   2.328  21.625  0.00  0.00    -0.204 NA
ATOM     22  H   UNL     1      11.051   2.460  21.323  0.00  0.00    +0.144 HD
ATOM     23  H   UNL     1       9.443   3.038  21.274  0.00  0.00    +0.144 HD
ENDBRANCH  18  21
ENDBRANCH   4  18
TORSDOF 8
ENDMDL
MODEL 7
REMARK VINA RESULT:      -5.8      2.218      2.704
REMARK  Name = 
REMARK  8 active torsions:
REMARK  status: ('A' for Active; 'I' for Inactive)
REMARK    1  A    between atoms: N_1  and  C_2
REMARK    2  A    between atoms: C_2  and  C_3
REMARK    3  A    between atoms: C_3  and  C_4
REMARK    4  A    between atoms: C_4  and  C_5
REMARK    5  A    between atoms: C_5  and  N_6
REMARK    6  A    between atoms: C_7  and  C_9
REMARK    7  A    between atoms: C_12  and  S_15
REMARK    8  A    between atoms: S_15  and  N_16
REMARK                            x       y       z     vdW  Elec       q    Type
REMARK                         _______ _______ _______ _____ _____    ______ ____
ROOT
ATOM      1  C   UNL     1       8.844   1.756  24.282  0.00  0.00    +0.037 A 
ATOM      2  C   UNL     1       9.951   1.028  24.738  0.00  0.00    +0.015 A 
ATOM      3  C   UNL     1       9.947  -0.367  24.664  0.00  0.00    +0.029 A 
ATOM      4  C   UNL     1       8.842  -1.025  24.110  0.00  0.00    +0.105 A 
ATOM      5  C   UNL     1       7.755  -0.300  23.610  0.00  0.00    +0.029 A 
ATOM      6  C   UNL     1       7.762   1.092  23.686  0.00  0.00    +0.015 A 
ENDROOT
BRANCH   1   9
ATOM      7  N   UNL     1       9.370   3.965  23.456  0.00  0.00    -0.311 N 
ATOM      8  H   UNL     1       9.710   3.493  22.629  0.00  0.00    +0.149 HD
ATOM      9  C   UNL     1       8.824   3.228  24.487  0.00  0.00    +0.244 C 
ATOM     10  O   UNL     1       8.308   3.712  25.485  0.00  0.00    -0.270 OA
BRANCH   7  11
ATOM     11  C   UNL     1       9.430   5.409  23.478  0.00  0.00    +0.104 C 
BRANCH  11  12
ATOM     12  C   UNL     1      10.835   5.924  23.781  0.00  0.00    +0.020 C 
BRANCH  12  13
ATOM     13  C   UNL     1      11.916   4.874  23.504  0.00  0.00    +0.016 C 
BRANCH  13  14
ATOM     14  C   UNL     1      12.962   5.406  22.527  0.00  0.00    +0.078 C 
BRANCH  14  15
ATOM     15  N   UNL     1      14.302   5.114  23.020  0.00  0.00    -0.330 NA
ATOM     16  H   UNL     1      14.251   4.780  23.982  0.00  0.00    +0.118 HD
ATOM     17  H   UNL     1      14.700   4.347  22.476  0.00  0.00    +0.118 HD
ENDBRANCH  14  15
ENDBRANCH  13  14
ENDBRANCH  12  13
ENDBRANCH  11  12
ENDBRANCH   7  11
ENDBRANCH   1   9
BRANCH   4  18
ATOM     18  S   UNL     1       8.762  -2.792  24.129  0.00  0.00    +0.056 S 
ATOM     19  O   UNL     1       7.824  -3.208  25.145  0.00  0.00    -0.153 OA
ATOM     20  O   UNL     1      10.100  -3.330  24.047  0.00  0.00    -0.153 OA
BRANCH  18  21
ATOM     21  N   UNL     1       8.033  -3.126  22.657  0.00  0.00    -0.204 NA
ATOM     22  H   UNL     1       8.339  -2.450  21.958  0.00  0.00    +0.144 HD
ATOM     23  H   UNL     1       7.020  -3.167  22.776  0.00  0.00    +0.144 HD
ENDBRANCH  18  21
ENDBRANCH   4  18
TORSDOF 8
ENDMDL
MODEL 8
REMARK VINA RESULT:      -5.8      3.584      4.524
REMARK  Name = 
REMARK  8 active torsions:
REMARK  status: ('A' for Active; 'I' for Inactive)
REMARK    1  A    between atoms: N_1  and  C_2
REMARK    2  A    between atoms: C_2  and  C_3
REMARK    3  A    between atoms: C_3  and  C_4
REMARK    4  A    between atoms: C_4  and  C_5
REMARK    5  A    between atoms: C_5  and  N_6
REMARK    6  A    between atoms: C_7  and  C_9
REMARK    7  A    between atoms: C_12  and  S_15
REMARK    8  A    between atoms: S_15  and  N_16
REMARK                            x       y       z     vdW  Elec       q    Type
REMARK                         _______ _______ _______ _____ _____    ______ ____
ROOT
ATOM      1  C   UNL     1       7.742  -3.072  23.048  0.00  0.00    +0.037 A 
ATOM      2  C   UNL     1       7.880  -4.316  23.679  0.00  0.00    +0.015 A 
ATOM      3  C   UNL     1       6.754  -5.111  23.906  0.00  0.00    +0.029 A 
ATOM      4  C   UNL     1       5.498  -4.665  23.478  0.00  0.00    +0.105 A 
ATOM      5  C   UNL     1       5.361  -3.446  22.807  0.00  0.00    +0.029 A 
ATOM      6  C   UNL     1       6.487  -2.655  22.582  0.00  0.00    +0.015 A 
ENDROOT
BRANCH   1   9
ATOM      7  N   UNL     1       8.844  -1.215  21.965  0.00  0.00    -0.311 N 
ATOM      8  H   UNL     1       7.991  -1.118  21.430  0.00  0.00    +0.149 HD
ATOM      9  C   UNL     1       8.936  -2.194  22.931  0.00  0.00    +0.244 C 
ATOM     10  O   UNL     1       9.888  -2.332  23.687  0.00  0.00    -0.270 OA
BRANCH   7  11
ATOM     11  C   UNL     1       9.905  -0.266  21.714  0.00  0.00    +0.104 C 
BRANCH  11  12
ATOM     12  C   UNL     1       9.455   1.176  21.932  0.00  0.00    +0.020 C 
BRANCH  12  13
ATOM     13  C   UNL     1       9.372   1.545  23.417  0.00  0.00    +0.016 C 
BRANCH  13  14
ATOM     14  C   UNL     1      10.650   1.151  24.153  0.00  0.00    +0.078 C 
BRANCH  14  15
ATOM     15  N   UNL     1      10.328   0.328  25.312  0.00  0.00    -0.330 NA
ATOM     16  H   UNL     1       9.826  -0.508  25.013  0.00  0.00    +0.118 HD
ATOM     17  H   UNL     1      11.193  -0.001  25.742  0.00  0.00    +0.118 HD
ENDBRANCH  14  15
ENDBRANCH  13  14
ENDBRANCH  12  13
ENDBRANCH  11  12
ENDBRANCH   7  11
ENDBRANCH   1   9
BRANCH   4  18
ATOM     18  S   UNL     1       4.045  -5.596  23.875  0.00  0.00    +0.056 S 
ATOM     19  O   UNL     1       3.079  -5.429  22.815  0.00  0.00    -0.153 OA
ATOM     20  O   UNL     1       3.713  -5.388  25.265  0.00  0.00    -0.153 OA
BRANCH  18  21
ATOM     21  N   UNL     1       4.598  -7.174  23.757  0.00  0.00    -0.204 NA
ATOM     22  H   UNL     1       3.823  -7.796  23.531  0.00  0.00    +0.144 HD
ATOM     23  H   UNL     1       5.096  -7.429  24.610  0.00  0.00    +0.144 HD
ENDBRANCH  18  21
ENDBRANCH   4  18
TORSDOF 8
ENDMDL
MODEL 9
REMARK VINA RESULT:      -5.7      3.317      4.329
REMARK  Name = 
REMARK  8 active torsions:
REMARK  status: ('A' for Active; 'I' for Inactive)
REMARK    1  A    between atoms: N_1  and  C_2
REMARK    2  A    between atoms: C_2  and  C_3
REMARK    3  A    between atoms: C_3  and  C_4
REMARK    4  A    between atoms: C_4  and  C_5
REMARK    5  A    between atoms: C_5  and  N_6
REMARK    6  A    between atoms: C_7  and  C_9
REMARK    7  A    between atoms: C_12  and  S_15
REMARK    8  A    between atoms: S_15  and  N_16
REMARK                            x       y       z     vdW  Elec       q    Type
REMARK                         _______ _______ _______ _____ _____    ______ ____
ROOT
ATOM      1  C   UNL     1      10.501   2.291  23.271  0.00  0.00    +0.037 A 
ATOM      2  C   UNL     1      10.592   1.512  24.432  0.00  0.00    +0.015 A 
ATOM      3  C   UNL     1      10.203   0.171  24.404  0.00  0.00    +0.029 A 
ATOM      4  C   UNL     1       9.749  -0.390  23.204  0.00  0.00    +0.105 A 
ATOM      5  C   UNL     1       9.702   0.370  22.031  0.00  0.00    +0.029 A 
ATOM      6  C   UNL     1      10.090   1.710  22.063  0.00  0.00    +0.015 A 
ENDROOT
BRANCH   1   9
ATOM      7  N   UNL     1       9.704   4.554  23.559  0.00  0.00    -0.311 N 
ATOM      8  H   UNL     1       8.788   4.137  23.669  0.00  0.00    +0.149 HD
ATOM      9  C   UNL     1      10.803   3.745  23.360  0.00  0.00    +0.244 C 
ATOM     10  O   UNL     1      11.957   4.147  23.305  0.00  0.00    -0.270 OA
BRANCH   7  11
ATOM     11  C   UNL     1       9.806   5.991  23.678  0.00  0.00    +0.104 C 
BRANCH  11  12
ATOM     12  C   UNL     1       8.471   6.687  23.430  0.00  0.00    +0.020 C 
BRANCH  12  13
ATOM     13  C   UNL     1       7.757   6.159  22.182  0.00  0.00    +0.016 C 
BRANCH  13  14
ATOM     14  C   UNL     1       6.615   7.085  21.768  0.00  0.00    +0.078 C 
BRANCH  14  15
ATOM     15  N   UNL     1       5.332   6.436  22.005  0.00  0.00    -0.330 NA
ATOM     16  H   UNL     1       5.473   5.436  22.154  0.00  0.00    +0.118 HD
ATOM     17  H   UNL     1       4.928   6.796  22.869  0.00  0.00    +0.118 HD
ENDBRANCH  14  15
ENDBRANCH  13  14
ENDBRANCH  12  13
ENDBRANCH  11  12
ENDBRANCH   7  11
ENDBRANCH   1   9
BRANCH   4  18
ATOM     18  S   UNL     1       9.130  -2.047  23.180  0.00  0.00    +0.056 S 
ATOM     19  O   UNL     1      10.170  -2.943  23.629  0.00  0.00    -0.153 OA
ATOM     20  O   UNL     1       8.399  -2.264  21.954  0.00  0.00    -0.153 OA
BRANCH  18  21
ATOM     21  N   UNL     1       7.986  -2.011  24.405  0.00  0.00    -0.204 NA
ATOM     22  H   UNL     1       8.211  -2.713  25.109  0.00  0.00    +0.144 HD
ATOM     23  H   UNL     1       7.052  -2.110  24.007  0.00  0.00    +0.144 HD
ENDBRANCH  18  21
ENDBRANCH   4  18
TORSDOF 8
ENDMDL
