MODEL 1
REMARK VINA RESULT:      -6.5      0.000      0.000
REMARK  Name = 
REMARK  7 active torsions:
REMARK  status: ('A' for Active; 'I' for Inactive)
REMARK    1  A    between atoms: C_1  and  C_2
REMARK    2  A    between atoms: C_2  and  C_3
REMARK    3  A    between atoms: C_6  and  C_9
REMARK    4  A    between atoms: C_9  and  C_11
REMARK    5  A    between atoms: C_11  and  C_12
REMARK    6  A    between atoms: C_11  and  C_13
REMARK    7  A    between atoms: C_13  and  N_14
REMARK                            x       y       z     vdW  Elec       q    Type
REMARK                         _______ _______ _______ _____ _____    ______ ____
ROOT
ATOM      1  C   UNL     1       9.534  -1.888  23.189  0.00  0.00    +0.167 C 
ATOM      2  O   UNL     1      10.397  -2.761  23.082  0.00  0.00    -0.292 OA
ENDROOT
BRANCH   1   6
ATOM      3  C   UNL     1      10.325   2.322  23.347  0.00  0.00    -0.048 A 
ATOM      4  C   UNL     1      10.459   1.525  24.495  0.00  0.00    +0.004 A 
ATOM      5  C   UNL     1      10.265   0.143  24.425  0.00  0.00    +0.011 A 
ATOM      6  C   UNL     1       9.924  -0.450  23.208  0.00  0.00    +0.018 A 
ATOM      7  C   UNL     1       9.889   0.328  22.043  0.00  0.00    +0.011 A 
ATOM      8  C   UNL     1      10.072   1.706  22.117  0.00  0.00    +0.004 A 
BRANCH   3  10
ATOM      9  C   UNL     1      11.801   4.332  23.343  0.00  0.00    +0.009 C 
ATOM     10  C   UNL     1      10.368   3.822  23.442  0.00  0.00    +0.032 C 
ENDBRANCH   3  10
ENDBRANCH   1   6
BRANCH   1  11
ATOM     11  C   UNL     1       8.047  -2.215  23.336  0.00  0.00    +0.071 C 
ATOM     12  C   UNL     1       7.225  -0.967  23.012  0.00  0.00    +0.017 C 
BRANCH  11  13
ATOM     13  C   UNL     1       7.646  -3.402  22.439  0.00  0.00    +0.095 C 
BRANCH  13  14
ATOM     14  N   UNL     1       7.571  -4.727  23.094  0.00  0.00    -0.302 NA
ATOM     15  C   UNL     1       7.294  -5.791  22.110  0.00  0.00    +0.084 C 
ATOM     16  C   UNL     1       5.850  -5.801  21.588  0.00  0.00    +0.015 C 
ATOM     17  C   UNL     1       4.822  -5.770  22.717  0.00  0.00    +0.002 C 
ATOM     18  C   UNL     1       5.159  -4.709  23.759  0.00  0.00    +0.015 C 
ATOM     19  C   UNL     1       6.615  -4.832  24.204  0.00  0.00    +0.084 C 
ENDBRANCH  13  14
ENDBRANCH  11  13
ENDBRANCH   1  11
TORSDOF 5
ENDMDL
MODEL 2
REMARK VINA RESULT:      -6.4      1.402      2.327
REMARK  Name = 
REMARK  7 active torsions:
REMARK  status: ('A' for Active; 'I' for Inactive)
REMARK    1  A    between atoms: C_1  and  C_2
REMARK    2  A    between atoms: C_2  and  C_3
REMARK    3  A    between atoms: C_6  and  C_9
REMARK    4  A    between atoms: C_9  and  C_11
REMARK    5  A    between atoms: C_11  and  C_12
REMARK    6  A    between atoms: C_11  and  C_13
REMARK    7  A    between atoms: C_13  and  N_14
REMARK                            x       y       z     vdW  Elec       q    Type
REMARK                         _______ _______ _______ _____ _____    ______ ____
ROOT
ATOM      1  C   UNL     1       9.523  -1.798  23.115  0.00  0.00    +0.167 C 
ATOM      2  O   UNL     1      10.370  -2.689  23.041  0.00  0.00    -0.292 OA
ENDROOT
BRANCH   1   6
ATOM      3  C   UNL     1      10.411   2.390  23.319  0.00  0.00    -0.048 A 
ATOM      4  C   UNL     1      10.653   1.553  24.420  0.00  0.00    +0.004 A 
ATOM      5  C   UNL     1      10.424   0.177  24.327  0.00  0.00    +0.011 A 
ATOM      6  C   UNL     1       9.941  -0.369  23.137  0.00  0.00    +0.018 A 
ATOM      7  C   UNL     1       9.796   0.448  22.007  0.00  0.00    +0.011 A 
ATOM      8  C   UNL     1      10.013   1.820  22.105  0.00  0.00    +0.004 A 
BRANCH   3  10
ATOM      9  C   UNL     1      11.923   4.373  23.236  0.00  0.00    +0.009 C 
ATOM     10  C   UNL     1      10.495   3.886  23.455  0.00  0.00    +0.032 C 
ENDBRANCH   3  10
ENDBRANCH   1   6
BRANCH   1  11
ATOM     11  C   UNL     1       8.025  -2.094  23.216  0.00  0.00    +0.071 C 
ATOM     12  C   UNL     1       7.595  -2.919  22.003  0.00  0.00    +0.017 C 
BRANCH  11  13
ATOM     13  C   UNL     1       7.687  -2.813  24.536  0.00  0.00    +0.095 C 
BRANCH  13  14
ATOM     14  N   UNL     1       7.470  -4.275  24.452  0.00  0.00    -0.302 NA
ATOM     15  C   UNL     1       6.207  -4.662  25.111  0.00  0.00    +0.084 C 
ATOM     16  C   UNL     1       6.259  -4.607  26.646  0.00  0.00    +0.015 C 
ATOM     17  C   UNL     1       7.466  -5.351  27.214  0.00  0.00    +0.002 C 
ATOM     18  C   UNL     1       8.752  -4.988  26.479  0.00  0.00    +0.015 C 
ATOM     19  C   UNL     1       8.562  -5.109  24.968  0.00  0.00    +0.084 C 
ENDBRANCH  13  14
ENDBRANCH  11  13
ENDBRANCH   1  11
TORSDOF 5
ENDMDL
MODEL 3
REMARK VINA RESULT:      -6.4      1.575      2.471
REMARK  Name = 
REMARK  7 active torsions:
REMARK  status: ('A' for Active; 'I' for Inactive)
REMARK    1  A    between atoms: C_1  and  C_2
REMARK    2  A    between atoms: C_2  and  C_3
REMARK    3  A    between atoms: C_6  and  C_9
REMARK    4  A    between atoms: C_9  and  C_11
REMARK    5  A    between atoms: C_11  and  C_12
REMARK    6  A    between atoms: C_11  and  C_13
REMARK    7  A    between atoms: C_13  and  N_14
REMARK                            x       y       z     vdW  Elec       q    Type
REMARK                         _______ _______ _______ _____ _____    ______ ____
ROOT
ATOM      1  C   UNL     1       8.862  -2.705  25.405  0.00  0.00    +0.167 C 
ATOM      2  O   UNL     1       8.538  -2.574  26.587  0.00  0.00    -0.292 OA
ENDROOT
BRANCH   1   6
ATOM      3  C   UNL     1      10.149   0.741  23.205  0.00  0.00    -0.048 A 
ATOM      4  C   UNL     1       9.996   0.798  24.599  0.00  0.00    +0.004 A 
ATOM      5  C   UNL     1       9.640  -0.344  25.321  0.00  0.00    +0.011 A 
ATOM      6  C   UNL     1       9.424  -1.550  24.651  0.00  0.00    +0.018 A 
ATOM      7  C   UNL     1       9.675  -1.634  23.274  0.00  0.00    +0.011 A 
ATOM      8  C   UNL     1      10.018  -0.492  22.556  0.00  0.00    +0.004 A 
BRANCH   3  10
ATOM      9  C   UNL     1      10.686   3.174  23.311  0.00  0.00    +0.009 C 
ATOM     10  C   UNL     1      10.368   1.993  22.402  0.00  0.00    +0.032 C 
ENDBRANCH   3  10
ENDBRANCH   1   6
BRANCH   1  11
ATOM     11  C   UNL     1       8.686  -4.022  24.646  0.00  0.00    +0.071 C 
ATOM     12  C   UNL     1       9.498  -5.115  25.343  0.00  0.00    +0.017 C 
BRANCH  11  13
ATOM     13  C   UNL     1       7.198  -4.408  24.538  0.00  0.00    +0.095 C 
BRANCH  13  14
ATOM     14  N   UNL     1       6.458  -3.857  23.380  0.00  0.00    -0.302 NA
ATOM     15  C   UNL     1       5.081  -4.386  23.331  0.00  0.00    +0.084 C 
ATOM     16  C   UNL     1       4.989  -5.852  22.884  0.00  0.00    +0.015 C 
ATOM     17  C   UNL     1       5.761  -6.117  21.593  0.00  0.00    +0.002 C 
ATOM     18  C   UNL     1       7.158  -5.508  21.635  0.00  0.00    +0.015 C 
ATOM     19  C   UNL     1       7.097  -4.045  22.071  0.00  0.00    +0.084 C 
ENDBRANCH  13  14
ENDBRANCH  11  13
ENDBRANCH   1  11
TORSDOF 5
ENDMDL
MODEL 4
REMARK VINA RESULT:      -6.4      1.312      1.849
REMARK  Name = 
REMARK  7 active torsions:
REMARK  status: ('A' for Active; 'I' for Inactive)
REMARK    1  A    between atoms: C_1  and  C_2
REMARK    2  A    between atoms: C_2  and  C_3
REMARK    3  A    between atoms: C_6  and  C_9
REMARK    4  A    between atoms: C_9  and  C_11
REMARK    5  A    between atoms: C_11  and  C_12
REMARK    6  A    between atoms: C_11  and  C_13
REMARK    7  A    between atoms: C_13  and  N_14
REMARK                            x       y       z     vdW  Elec       q    Type
REMARK                         _______ _______ _______ _____ _____    ______ ____
ROOT
ATOM      1  C   UNL     1       7.796  -0.817  23.023  0.00  0.00    +0.167 C 
ATOM      2  O   UNL     1       6.595  -0.819  23.299  0.00  0.00    -0.292 OA
ENDROOT
BRANCH   1   6
ATOM      3  C   UNL     1      10.308   2.650  23.223  0.00  0.00    -0.048 A 
ATOM      4  C   UNL     1      10.208   1.907  22.036  0.00  0.00    +0.004 A 
ATOM      5  C   UNL     1       9.338   0.816  21.954  0.00  0.00    +0.011 A 
ATOM      6  C   UNL     1       8.570   0.455  23.063  0.00  0.00    +0.018 A 
ATOM      7  C   UNL     1       8.593   1.255  24.214  0.00  0.00    +0.011 A 
ATOM      8  C   UNL     1       9.469   2.334  24.297  0.00  0.00    +0.004 A 
BRANCH   3  10
ATOM      9  C   UNL     1      10.723   5.051  23.755  0.00  0.00    +0.009 C 
ATOM     10  C   UNL     1      11.357   3.718  23.377  0.00  0.00    +0.032 C 
ENDBRANCH   3  10
ENDBRANCH   1   6
BRANCH   1  11
ATOM     11  C   UNL     1       8.544  -2.083  22.601  0.00  0.00    +0.071 C 
ATOM     12  C   UNL     1       9.498  -2.497  23.723  0.00  0.00    +0.017 C 
BRANCH  11  13
ATOM     13  C   UNL     1       7.565  -3.218  22.247  0.00  0.00    +0.095 C 
BRANCH  13  14
ATOM     14  N   UNL     1       7.433  -4.308  23.239  0.00  0.00    -0.302 NA
ATOM     15  C   UNL     1       7.491  -5.630  22.586  0.00  0.00    +0.084 C 
ATOM     16  C   UNL     1       6.226  -5.994  21.795  0.00  0.00    +0.015 C 
ATOM     17  C   UNL     1       4.952  -5.806  22.616  0.00  0.00    +0.002 C 
ATOM     18  C   UNL     1       4.937  -4.462  23.337  0.00  0.00    +0.015 C 
ATOM     19  C   UNL     1       6.244  -4.244  24.098  0.00  0.00    +0.084 C 
ENDBRANCH  13  14
ENDBRANCH  11  13
ENDBRANCH   1  11
TORSDOF 5
ENDMDL
MODEL 5
REMARK VINA RESULT:      -6.3      3.446      6.442
REMARK  Name = 
REMARK  7 active torsions:
REMARK  status: ('A' for Active; 'I' for Inactive)
REMARK    1  A    between atoms: C_1  and  C_2
REMARK    2  A    between atoms: C_2  and  C_3
REMARK    3  A    between atoms: C_6  and  C_9
REMARK    4  A    between atoms: C_9  and  C_11
REMARK    5  A    between atoms: C_11  and  C_12
REMARK    6  A    between atoms: C_11  and  C_13
REMARK    7  A    between atoms: C_13  and  N_14
REMARK                            x       y       z     vdW  Elec       q    Type
REMARK                         _______ _______ _______ _____ _____    ______ ____
ROOT
ATOM      1  C   UNL     1      10.655   3.641  23.540  0.00  0.00    +0.167 C 
ATOM      2  O   UNL     1      11.712   4.218  23.280  0.00  0.00    -0.292 OA
ENDROOT
BRANCH   1   6
ATOM      3  C   UNL     1       9.921  -0.532  22.889  0.00  0.00    -0.048 A 
ATOM      4  C   UNL     1       9.735   0.397  21.854  0.00  0.00    +0.004 A 
ATOM      5  C   UNL     1      10.039   1.747  22.050  0.00  0.00    +0.011 A 
ATOM      6  C   UNL     1      10.519   2.179  23.287  0.00  0.00    +0.018 A 
ATOM      7  C   UNL     1      10.801   1.239  24.289  0.00  0.00    +0.011 A 
ATOM      8  C   UNL     1      10.488  -0.103  24.095  0.00  0.00    +0.004 A 
BRANCH   3  10
ATOM      9  C   UNL     1       7.969  -1.995  22.369  0.00  0.00    +0.009 C 
ATOM     10  C   UNL     1       9.445  -1.951  22.746  0.00  0.00    +0.032 C 
ENDBRANCH   3  10
ENDBRANCH   1   6
BRANCH   1  11
ATOM     11  C   UNL     1       9.433   4.374  24.098  0.00  0.00    +0.071 C 
ATOM     12  C   UNL     1       9.808   5.831  24.374  0.00  0.00    +0.017 C 
BRANCH  11  13
ATOM     13  C   UNL     1       8.235   4.273  23.135  0.00  0.00    +0.095 C 
BRANCH  13  14
ATOM     14  N   UNL     1       6.910   4.049  23.756  0.00  0.00    -0.302 NA
ATOM     15  C   UNL     1       7.039   3.322  25.034  0.00  0.00    +0.084 C 
ATOM     16  C   UNL     1       7.384   1.833  24.876  0.00  0.00    +0.015 C 
ATOM     17  C   UNL     1       6.457   1.122  23.892  0.00  0.00    +0.002 C 
ATOM     18  C   UNL     1       6.283   1.917  22.603  0.00  0.00    +0.015 C 
ATOM     19  C   UNL     1       5.920   3.369  22.910  0.00  0.00    +0.084 C 
ENDBRANCH  13  14
ENDBRANCH  11  13
ENDBRANCH   1  11
TORSDOF 5
ENDMDL
MODEL 6
REMARK VINA RESULT:      -6.2      2.440      3.879
REMARK  Name = 
REMARK  7 active torsions:
REMARK  status: ('A' for Active; 'I' for Inactive)
REMARK    1  A    between atoms: C_1  and  C_2
REMARK    2  A    between atoms: C_2  and  C_3
REMARK    3  A    between atoms: C_6  and  C_9
REMARK    4  A    between atoms: C_9  and  C_11
REMARK    5  A    between atoms: C_11  and  C_12
REMARK    6  A    between atoms: C_11  and  C_13
REMARK    7  A    between atoms: C_13  and  N_14
REMARK                            x       y       z     vdW  Elec       q    Type
REMARK                         _______ _______ _______ _____ _____    ______ ____
ROOT
ATOM      1  C   UNL     1       9.215  -3.428  24.403  0.00  0.00    +0.167 C 
ATOM      2  O   UNL     1      10.092  -4.275  24.575  0.00  0.00    -0.292 OA
ENDROOT
BRANCH   1   6
ATOM      3  C   UNL     1       9.816   0.352  22.474  0.00  0.00    -0.048 A 
ATOM      4  C   UNL     1      10.135   0.183  23.830  0.00  0.00    +0.004 A 
ATOM      5  C   UNL     1      10.000  -1.068  24.439  0.00  0.00    +0.011 A 
ATOM      6  C   UNL     1       9.534  -2.155  23.697  0.00  0.00    +0.018 A 
ATOM      7  C   UNL     1       9.312  -2.012  22.320  0.00  0.00    +0.011 A 
ATOM      8  C   UNL     1       9.437  -0.763  21.719  0.00  0.00    +0.004 A 
BRANCH   3  10
ATOM      9  C   UNL     1       8.405   2.334  21.922  0.00  0.00    +0.009 C 
ATOM     10  C   UNL     1       9.799   1.722  21.852  0.00  0.00    +0.032 C 
ENDBRANCH   3  10
ENDBRANCH   1   6
BRANCH   1  11
ATOM     11  C   UNL     1       7.784  -3.608  24.914  0.00  0.00    +0.071 C 
ATOM     12  C   UNL     1       7.575  -5.071  25.310  0.00  0.00    +0.017 C 
BRANCH  11  13
ATOM     13  C   UNL     1       7.488  -2.658  26.090  0.00  0.00    +0.095 C 
BRANCH  13  14
ATOM     14  N   UNL     1       6.140  -2.047  26.119  0.00  0.00    -0.302 NA
ATOM     15  C   UNL     1       5.666  -1.744  24.755  0.00  0.00    +0.084 C 
ATOM     16  C   UNL     1       6.362  -0.539  24.103  0.00  0.00    +0.015 C 
ATOM     17  C   UNL     1       6.363   0.692  25.007  0.00  0.00    +0.002 C 
ATOM     18  C   UNL     1       6.793   0.349  26.429  0.00  0.00    +0.015 C 
ATOM     19  C   UNL     1       6.006  -0.849  26.957  0.00  0.00    +0.084 C 
ENDBRANCH  13  14
ENDBRANCH  11  13
ENDBRANCH   1  11
TORSDOF 5
ENDMDL
MODEL 7
REMARK VINA RESULT:      -6.2      1.891      2.872
REMARK  Name = 
REMARK  7 active torsions:
REMARK  status: ('A' for Active; 'I' for Inactive)
REMARK    1  A    between atoms: C_1  and  C_2
REMARK    2  A    between atoms: C_2  and  C_3
REMARK    3  A    between atoms: C_6  and  C_9
REMARK    4  A    between atoms: C_9  and  C_11
REMARK    5  A    between atoms: C_11  and  C_12
REMARK    6  A    between atoms: C_11  and  C_13
REMARK    7  A    between atoms: C_13  and  N_14
REMARK                            x       y       z     vdW  Elec       q    Type
REMARK                         _______ _______ _______ _____ _____    ______ ____
ROOT
ATOM      1  C   UNL     1       8.909  -3.382  23.820  0.00  0.00    +0.167 C 
ATOM      2  O   UNL     1       9.652  -4.102  24.490  0.00  0.00    -0.292 OA
ENDROOT
BRANCH   1   6
ATOM      3  C   UNL     1       9.960   0.579  22.563  0.00  0.00    -0.048 A 
ATOM      4  C   UNL     1      10.144   0.179  23.896  0.00  0.00    +0.004 A 
ATOM      5  C   UNL     1       9.862  -1.133  24.288  0.00  0.00    +0.011 A 
ATOM      6  C   UNL     1       9.384  -2.050  23.351  0.00  0.00    +0.018 A 
ATOM      7  C   UNL     1       9.296  -1.682  22.001  0.00  0.00    +0.011 A 
ATOM      8  C   UNL     1       9.566  -0.372  21.615  0.00  0.00    +0.004 A 
BRANCH   3  10
ATOM      9  C   UNL     1      10.665   2.850  23.313  0.00  0.00    +0.009 C 
ATOM     10  C   UNL     1      10.100   2.022  22.165  0.00  0.00    +0.032 C 
ENDBRANCH   3  10
ENDBRANCH   1   6
BRANCH   1  11
ATOM     11  C   UNL     1       7.478  -3.785  23.461  0.00  0.00    +0.071 C 
ATOM     12  C   UNL     1       7.513  -5.058  22.613  0.00  0.00    +0.017 C 
BRANCH  11  13
ATOM     13  C   UNL     1       6.618  -3.974  24.726  0.00  0.00    +0.095 C 
BRANCH  13  14
ATOM     14  N   UNL     1       6.656  -5.314  25.353  0.00  0.00    -0.302 NA
ATOM     15  C   UNL     1       5.326  -5.955  25.315  0.00  0.00    +0.084 C 
ATOM     16  C   UNL     1       4.314  -5.355  26.302  0.00  0.00    +0.015 C 
ATOM     17  C   UNL     1       4.872  -5.256  27.720  0.00  0.00    +0.002 C 
ATOM     18  C   UNL     1       6.272  -4.652  27.736  0.00  0.00    +0.015 C 
ATOM     19  C   UNL     1       7.175  -5.358  26.726  0.00  0.00    +0.084 C 
ENDBRANCH  13  14
ENDBRANCH  11  13
ENDBRANCH   1  11
TORSDOF 5
ENDMDL
MODEL 8
REMARK VINA RESULT:      -6.2      1.905      3.584
REMARK  Name = 
REMARK  7 active torsions:
REMARK  status: ('A' for Active; 'I' for Inactive)
REMARK    1  A    between atoms: C_1  and  C_2
REMARK    2  A    between atoms: C_2  and  C_3
REMARK    3  A    between atoms: C_6  and  C_9
REMARK    4  A    between atoms: C_9  and  C_11
REMARK    5  A    between atoms: C_11  and  C_12
REMARK    6  A    between atoms: C_11  and  C_13
REMARK    7  A    between atoms: C_13  and  N_14
REMARK                            x       y       z     vdW  Elec       q    Type
REMARK                         _______ _______ _______ _____ _____    ______ ____
ROOT
ATOM      1  C   UNL     1       9.584  -1.726  23.082  0.00  0.00    +0.167 C 
ATOM      2  O   UNL     1      10.418  -2.611  22.885  0.00  0.00    -0.292 OA
ENDROOT
BRANCH   1   6
ATOM      3  C   UNL     1      10.478   2.459  23.314  0.00  0.00    -0.048 A 
ATOM      4  C   UNL     1      10.779   1.603  24.385  0.00  0.00    +0.004 A 
ATOM      5  C   UNL     1      10.547   0.229  24.280  0.00  0.00    +0.011 A 
ATOM      6  C   UNL     1      10.002  -0.296  23.107  0.00  0.00    +0.018 A 
ATOM      7  C   UNL     1       9.795   0.541  22.002  0.00  0.00    +0.011 A 
ATOM      8  C   UNL     1      10.016   1.911  22.113  0.00  0.00    +0.004 A 
BRANCH   3  10
ATOM      9  C   UNL     1      11.995   4.438  23.252  0.00  0.00    +0.009 C 
ATOM     10  C   UNL     1      10.568   3.952  23.473  0.00  0.00    +0.032 C 
ENDBRANCH   3  10
ENDBRANCH   1   6
BRANCH   1  11
ATOM     11  C   UNL     1       8.106  -2.032  23.335  0.00  0.00    +0.071 C 
ATOM     12  C   UNL     1       7.708  -3.275  22.539  0.00  0.00    +0.017 C 
BRANCH  11  13
ATOM     13  C   UNL     1       7.825  -2.212  24.839  0.00  0.00    +0.095 C 
BRANCH  13  14
ATOM     14  N   UNL     1       6.590  -1.581  25.358  0.00  0.00    -0.302 NA
ATOM     15  C   UNL     1       6.159  -0.467  24.491  0.00  0.00    +0.084 C 
ATOM     16  C   UNL     1       7.032   0.792  24.610  0.00  0.00    +0.015 C 
ATOM     17  C   UNL     1       7.233   1.226  26.060  0.00  0.00    +0.002 C 
ATOM     18  C   UNL     1       7.614   0.052  26.954  0.00  0.00    +0.015 C 
ATOM     19  C   UNL     1       6.651  -1.117  26.750  0.00  0.00    +0.084 C 
ENDBRANCH  13  14
ENDBRANCH  11  13
ENDBRANCH   1  11
TORSDOF 5
ENDMDL
MODEL 9
REMARK VINA RESULT:      -6.1      3.255      4.977
REMARK  Name = 
REMARK  7 active torsions:
REMARK  status: ('A' for Active; 'I' for Inactive)
REMARK    1  A    between atoms: C_1  and  C_2
REMARK    2  A    between atoms: C_2  and  C_3
REMARK    3  A    between atoms: C_6  and  C_9
REMARK    4  A    between atoms: C_9  and  C_11
REMARK    5  A    between atoms: C_11  and  C_12
REMARK    6  A    between atoms: C_11  and  C_13
REMARK    7  A    between atoms: C_13  and  N_14
REMARK                            x       y       z     vdW  Elec       q    Type
REMARK                         _______ _______ _______ _____ _____    ______ ____
ROOT
ATOM      1  C   UNL     1       7.011  -5.486  26.905  0.00  0.00    +0.167 C 
ATOM      2  O   UNL     1       7.280  -5.805  28.064  0.00  0.00    -0.292 OA
ENDROOT
BRANCH   1   6
ATOM      3  C   UNL     1       9.291  -2.744  24.527  0.00  0.00    -0.048 A 
ATOM      4  C   UNL     1       8.202  -2.294  25.291  0.00  0.00    +0.004 A 
ATOM      5  C   UNL     1       7.502  -3.179  26.116  0.00  0.00    +0.011 A 
ATOM      6  C   UNL     1       7.880  -4.522  26.174  0.00  0.00    +0.018 A 
ATOM      7  C   UNL     1       9.027  -4.951  25.491  0.00  0.00    +0.011 A 
ATOM      8  C   UNL     1       9.715  -4.070  24.661  0.00  0.00    +0.004 A 
BRANCH   3  10
ATOM      9  C   UNL     1       9.101  -1.745  22.249  0.00  0.00    +0.009 C 
ATOM     10  C   UNL     1       9.945  -1.844  23.515  0.00  0.00    +0.032 C 
ENDBRANCH   3  10
ENDBRANCH   1   6
BRANCH   1  11
ATOM     11  C   UNL     1       5.781  -6.023  26.169  0.00  0.00    +0.071 C 
ATOM     12  C   UNL     1       4.874  -6.742  27.168  0.00  0.00    +0.017 C 
BRANCH  11  13
ATOM     13  C   UNL     1       5.032  -4.893  25.438  0.00  0.00    +0.095 C 
BRANCH  13  14
ATOM     14  N   UNL     1       4.496  -5.218  24.098  0.00  0.00    -0.302 NA
ATOM     15  C   UNL     1       5.386  -6.153  23.383  0.00  0.00    +0.084 C 
ATOM     16  C   UNL     1       6.686  -5.513  22.872  0.00  0.00    +0.015 C 
ATOM     17  C   UNL     1       6.433  -4.230  22.083  0.00  0.00    +0.002 C 
ATOM     18  C   UNL     1       5.460  -3.305  22.805  0.00  0.00    +0.015 C 
ATOM     19  C   UNL     1       4.207  -4.066  23.233  0.00  0.00    +0.084 C 
ENDBRANCH  13  14
ENDBRANCH  11  13
ENDBRANCH   1  11
TORSDOF 5
ENDMDL
