MODEL 1
REMARK VINA RESULT:      -7.0      0.000      0.000
REMARK  Name = 
REMARK  7 active torsions:
REMARK  status: ('A' for Active; 'I' for Inactive)
REMARK    1  A    between atoms: C_5  and  C_6
REMARK    2  A    between atoms: CA_7  and  C_25
REMARK    3  A    between atoms: CA_11  and  N_13
REMARK    4  A    between atoms: C_14  and  CA_16
REMARK    5  A    between atoms: CA_16  and  N_18
REMARK    6  A    between atoms: CA_16  and  C_19
REMARK    7  A    between atoms: C_25  and  O_26
REMARK                            x       y       z     vdW  Elec       q    Type
REMARK                         _______ _______ _______ _____ _____    ______ ____
ROOT
ATOM      1  C   UNL     1       7.670  -5.282  25.534  0.00  0.00    +0.169 C 
ATOM      2  CA  UNL     1       8.683  -4.574  24.574  0.00  0.00    +0.191 C 
ATOM      3  C   UNL     1       7.557  -4.805  23.504  0.00  0.00    +0.244 C 
ATOM      4  O   UNL     1       7.373  -4.657  22.318  0.00  0.00    -0.273 OA
ATOM      5  N   UNL     1       6.690  -5.181  24.467  0.00  0.00    -0.249 N 
ATOM      6  CA  UNL     1       5.348  -5.411  24.607  0.00  0.00    +0.122 C 
ATOM      7  C   UNL     1       4.808  -5.440  25.860  0.00  0.00    -0.034 C 
ATOM      8  C   UNL     1       3.328  -5.628  26.137  0.00  0.00    +0.042 C 
ATOM      9  C   UNL     1       5.586  -5.236  27.145  0.00  0.00    +0.103 C 
ATOM     10  S   UNL     1       7.114  -4.299  26.949  0.00  0.00    -0.131 S 
ENDROOT
BRANCH   2  11
ATOM     11  N   UNL     1       8.980  -3.162  24.893  0.00  0.00    -0.300 N 
ATOM     12  H   UNL     1       8.547  -2.707  25.701  0.00  0.00    +0.150 HD
ATOM     13  C   UNL     1       9.763  -2.323  24.132  0.00  0.00    +0.235 C 
ATOM     14  O   UNL     1      10.347  -2.683  23.116  0.00  0.00    -0.274 OA
BRANCH  13  15
ATOM     15  CA  UNL     1       9.794  -0.867  24.689  0.00  0.00    +0.164 C 
BRANCH  15  16
ATOM     16  C   UNL     1       9.351   0.080  23.594  0.00  0.00    -0.044 C 
ATOM     17  C   UNL     1       7.854   0.117  23.355  0.00  0.00    +0.059 C 
ATOM     18  C   UNL     1       7.410   1.201  22.412  0.00  0.00    -0.026 C 
ATOM     19  C   UNL     1       8.264   1.975  21.726  0.00  0.00    -0.027 C 
ATOM     20  C   UNL     1       9.754   1.834  21.825  0.00  0.00    +0.054 C 
ATOM     21  C   UNL     1      10.194   0.855  22.875  0.00  0.00    -0.021 C 
ENDBRANCH  15  16
BRANCH  15  22
ATOM     22  N   UNL     1       8.914  -0.790  25.884  0.00  0.00    -0.317 NA
ATOM     23  H1  UNL     1       8.293  -1.600  25.870  0.00  0.00    +0.119 HD
ATOM     24  H2  UNL     1       9.507  -0.916  26.706  0.00  0.00    +0.119 HD
ENDBRANCH  15  22
ENDBRANCH  13  15
ENDBRANCH   2  11
BRANCH   6  25
ATOM     25  C   UNL     1       4.450  -5.603  23.394  0.00  0.00    +0.351 C 
ATOM     26  OXT UNL     1       3.974  -4.677  22.750  0.00  0.00    -0.244 OA
BRANCH  25  27
ATOM     27  O   UNL     1       4.091  -6.862  23.085  0.00  0.00    -0.476 OA
ATOM     28  H   UNL     1       3.881  -7.473  23.824  0.00  0.00    +0.295 HD
ENDBRANCH  25  27
ENDBRANCH   6  25
TORSDOF 6
ENDMDL
MODEL 2
REMARK VINA RESULT:      -6.9      2.952      4.153
REMARK  Name = 
REMARK  7 active torsions:
REMARK  status: ('A' for Active; 'I' for Inactive)
REMARK    1  A    between atoms: C_5  and  C_6
REMARK    2  A    between atoms: CA_7  and  C_25
REMARK    3  A    between atoms: CA_11  and  N_13
REMARK    4  A    between atoms: C_14  and  CA_16
REMARK    5  A    between atoms: CA_16  and  N_18
REMARK    6  A    between atoms: CA_16  and  C_19
REMARK    7  A    between atoms: C_25  and  O_26
REMARK                            x       y       z     vdW  Elec       q    Type
REMARK                         _______ _______ _______ _____ _____    ______ ____
ROOT
ATOM      1  C   UNL     1       7.835  -1.530  25.443  0.00  0.00    +0.169 C 
ATOM      2  CA  UNL     1       9.181  -0.850  25.024  0.00  0.00    +0.191 C 
ATOM      3  C   UNL     1       9.388  -2.171  24.200  0.00  0.00    +0.244 C 
ATOM      4  O   UNL     1      10.229  -2.704  23.515  0.00  0.00    -0.273 OA
ATOM      5  N   UNL     1       8.113  -2.545  24.441  0.00  0.00    -0.249 N 
ATOM      6  CA  UNL     1       7.216  -3.479  23.998  0.00  0.00    +0.122 C 
ATOM      7  C   UNL     1       5.889  -3.297  24.255  0.00  0.00    -0.034 C 
ATOM      8  C   UNL     1       4.798  -4.232  23.765  0.00  0.00    +0.042 C 
ATOM      9  C   UNL     1       5.304  -2.120  25.011  0.00  0.00    +0.103 C 
ATOM     10  S   UNL     1       6.330  -0.637  24.985  0.00  0.00    -0.131 S 
ENDROOT
BRANCH   2  11
ATOM     11  N   UNL     1       9.045   0.386  24.224  0.00  0.00    -0.300 N 
ATOM     12  H   UNL     1       8.168   0.605  23.747  0.00  0.00    +0.150 HD
ATOM     13  C   UNL     1      10.057   1.287  23.977  0.00  0.00    +0.235 C 
ATOM     14  O   UNL     1      11.185   1.179  24.445  0.00  0.00    -0.274 OA
BRANCH  13  15
ATOM     15  CA  UNL     1       9.615   2.431  23.014  0.00  0.00    +0.164 C 
BRANCH  15  16
ATOM     16  C   UNL     1      10.070   3.754  23.593  0.00  0.00    -0.044 C 
ATOM     17  C   UNL     1      11.502   4.130  23.266  0.00  0.00    +0.059 C 
ATOM     18  C   UNL     1      11.877   5.528  23.673  0.00  0.00    -0.026 C 
ATOM     19  C   UNL     1      11.073   6.327  24.390  0.00  0.00    -0.027 C 
ATOM     20  C   UNL     1       9.715   5.904  24.867  0.00  0.00    +0.054 C 
ATOM     21  C   UNL     1       9.285   4.566  24.336  0.00  0.00    -0.021 C 
ENDBRANCH  15  16
BRANCH  15  22
ATOM     22  N   UNL     1      10.196   2.180  21.670  0.00  0.00    -0.317 NA
ATOM     23  H1  UNL     1      10.286   3.078  21.194  0.00  0.00    +0.119 HD
ATOM     24  H2  UNL     1      11.152   1.849  21.811  0.00  0.00    +0.119 HD
ENDBRANCH  15  22
ENDBRANCH  13  15
ENDBRANCH   2  11
BRANCH   6  25
ATOM     25  C   UNL     1       7.671  -4.693  23.201  0.00  0.00    +0.351 C 
ATOM     26  OXT UNL     1       8.377  -5.580  23.662  0.00  0.00    -0.244 OA
BRANCH  25  27
ATOM     27  O   UNL     1       7.351  -4.729  21.895  0.00  0.00    -0.476 OA
ATOM     28  H   UNL     1       6.897  -5.530  21.557  0.00  0.00    +0.295 HD
ENDBRANCH  25  27
ENDBRANCH   6  25
TORSDOF 6
ENDMDL
MODEL 3
REMARK VINA RESULT:      -6.8      1.524      1.922
REMARK  Name = 
REMARK  7 active torsions:
REMARK  status: ('A' for Active; 'I' for Inactive)
REMARK    1  A    between atoms: C_5  and  C_6
REMARK    2  A    between atoms: CA_7  and  C_25
REMARK    3  A    between atoms: CA_11  and  N_13
REMARK    4  A    between atoms: C_14  and  CA_16
REMARK    5  A    between atoms: CA_16  and  N_18
REMARK    6  A    between atoms: CA_16  and  C_19
REMARK    7  A    between atoms: C_25  and  O_26
REMARK                            x       y       z     vdW  Elec       q    Type
REMARK                         _______ _______ _______ _____ _____    ______ ____
ROOT
ATOM      1  C   UNL     1       8.727  -4.219  24.648  0.00  0.00    +0.169 C 
ATOM      2  CA  UNL     1       9.203  -2.980  23.817  0.00  0.00    +0.191 C 
ATOM      3  C   UNL     1       7.982  -3.349  22.901  0.00  0.00    +0.244 C 
ATOM      4  O   UNL     1       7.478  -3.002  21.858  0.00  0.00    -0.273 OA
ATOM      5  N   UNL     1       7.537  -4.237  23.815  0.00  0.00    -0.249 N 
ATOM      6  CA  UNL     1       6.412  -4.974  24.068  0.00  0.00    +0.122 C 
ATOM      7  C   UNL     1       6.229  -5.497  25.315  0.00  0.00    -0.034 C 
ATOM      8  C   UNL     1       4.997  -6.280  25.730  0.00  0.00    +0.042 C 
ATOM      9  C   UNL     1       7.192  -5.333  26.475  0.00  0.00    +0.103 C 
ATOM     10  S   UNL     1       8.252  -3.879  26.360  0.00  0.00    -0.131 S 
ENDROOT
BRANCH   2  11
ATOM     11  N   UNL     1       9.109  -1.678  24.511  0.00  0.00    -0.300 N 
ATOM     12  H   UNL     1       8.458  -1.546  25.288  0.00  0.00    +0.150 HD
ATOM     13  C   UNL     1       9.789  -0.536  24.151  0.00  0.00    +0.235 C 
ATOM     14  O   UNL     1      10.597  -0.494  23.230  0.00  0.00    -0.274 OA
BRANCH  13  15
ATOM     15  CA  UNL     1       9.393   0.694  25.023  0.00  0.00    +0.164 C 
BRANCH  15  16
ATOM     16  C   UNL     1       8.633   1.677  24.156  0.00  0.00    -0.044 C 
ATOM     17  C   UNL     1       9.037   3.127  24.339  0.00  0.00    +0.059 C 
ATOM     18  C   UNL     1       8.423   4.066  23.338  0.00  0.00    -0.026 C 
ATOM     19  C   UNL     1       7.490   3.688  22.451  0.00  0.00    -0.027 C 
ATOM     20  C   UNL     1       6.957   2.289  22.372  0.00  0.00    +0.054 C 
ATOM     21  C   UNL     1       7.675   1.323  23.271  0.00  0.00    -0.021 C 
ENDBRANCH  15  16
BRANCH  15  22
ATOM     22  N   UNL     1       8.583   0.225  26.177  0.00  0.00    -0.317 NA
ATOM     23  H1  UNL     1       7.710  -0.158  25.814  0.00  0.00    +0.119 HD
ATOM     24  H2  UNL     1       9.077  -0.567  26.591  0.00  0.00    +0.119 HD
ENDBRANCH  15  22
ENDBRANCH  13  15
ENDBRANCH   2  11
BRANCH   6  25
ATOM     25  C   UNL     1       5.353  -5.190  22.997  0.00  0.00    +0.351 C 
ATOM     26  OXT UNL     1       4.418  -4.424  22.805  0.00  0.00    -0.244 OA
BRANCH  25  27
ATOM     27  O   UNL     1       5.408  -6.337  22.298  0.00  0.00    -0.476 OA
ATOM     28  H   UNL     1       4.584  -6.863  22.214  0.00  0.00    +0.295 HD
ENDBRANCH  25  27
ENDBRANCH   6  25
TORSDOF 6
ENDMDL
MODEL 4
REMARK VINA RESULT:      -6.7      1.626      2.114
REMARK  Name = 
REMARK  7 active torsions:
REMARK  status: ('A' for Active; 'I' for Inactive)
REMARK    1  A    between atoms: C_5  and  C_6
REMARK    2  A    between atoms: CA_7  and  C_25
REMARK    3  A    between atoms: CA_11  and  N_13
REMARK    4  A    between atoms: C_14  and  CA_16
REMARK    5  A    between atoms: CA_16  and  N_18
REMARK    6  A    between atoms: CA_16  and  C_19
REMARK    7  A    between atoms: C_25  and  O_26
REMARK                            x       y       z     vdW  Elec       q    Type
REMARK                         _______ _______ _______ _____ _____    ______ ____
ROOT
ATOM      1  C   UNL     1       7.215  -4.557  25.098  0.00  0.00    +0.169 C 
ATOM      2  CA  UNL     1       8.075  -4.464  23.793  0.00  0.00    +0.191 C 
ATOM      3  C   UNL     1       7.030  -5.498  23.242  0.00  0.00    +0.244 C 
ATOM      4  O   UNL     1       6.831  -6.166  22.254  0.00  0.00    -0.273 OA
ATOM      5  N   UNL     1       6.246  -5.315  24.326  0.00  0.00    -0.249 N 
ATOM      6  CA  UNL     1       4.977  -5.619  24.738  0.00  0.00    +0.122 C 
ATOM      7  C   UNL     1       4.441  -4.936  25.791  0.00  0.00    -0.034 C 
ATOM      8  C   UNL     1       3.026  -5.144  26.300  0.00  0.00    +0.042 C 
ATOM      9  C   UNL     1       5.149  -3.843  26.567  0.00  0.00    +0.103 C 
ATOM     10  S   UNL     1       6.458  -3.009  25.650  0.00  0.00    -0.131 S 
ENDROOT
BRANCH   2  11
ATOM     11  N   UNL     1       8.078  -3.144  23.128  0.00  0.00    -0.300 N 
ATOM     12  H   UNL     1       7.276  -2.838  22.572  0.00  0.00    +0.150 HD
ATOM     13  C   UNL     1       9.136  -2.263  23.114  0.00  0.00    +0.235 C 
ATOM     14  O   UNL     1      10.190  -2.467  23.706  0.00  0.00    -0.274 OA
BRANCH  13  15
ATOM     15  CA  UNL     1       8.854  -1.004  22.240  0.00  0.00    +0.164 C 
BRANCH  15  16
ATOM     16  C   UNL     1       8.965   0.228  23.114  0.00  0.00    -0.044 C 
ATOM     17  C   UNL     1       9.968   1.258  22.631  0.00  0.00    +0.059 C 
ATOM     18  C   UNL     1       9.926   2.556  23.388  0.00  0.00    -0.026 C 
ATOM     19  C   UNL     1       9.176   2.745  24.485  0.00  0.00    -0.027 C 
ATOM     20  C   UNL     1       8.306   1.675  25.073  0.00  0.00    +0.054 C 
ATOM     21  C   UNL     1       8.236   0.431  24.234  0.00  0.00    -0.021 C 
ENDBRANCH  15  16
BRANCH  15  22
ATOM     22  N   UNL     1       9.818  -0.977  21.110  0.00  0.00    -0.317 NA
ATOM     23  H1  UNL     1      10.525  -1.692  21.282  0.00  0.00    +0.119 HD
ATOM     24  H2  UNL     1       9.316  -1.286  20.276  0.00  0.00    +0.119 HD
ENDBRANCH  15  22
ENDBRANCH  13  15
ENDBRANCH   2  11
BRANCH   6  25
ATOM     25  C   UNL     1       4.148  -6.677  24.025  0.00  0.00    +0.351 C 
ATOM     26  OXT UNL     1       3.930  -7.790  24.485  0.00  0.00    -0.244 OA
BRANCH  25  27
ATOM     27  O   UNL     1       3.721  -6.392  22.782  0.00  0.00    -0.476 OA
ATOM     28  H   UNL     1       4.371  -6.449  22.050  0.00  0.00    +0.295 HD
ENDBRANCH  25  27
ENDBRANCH   6  25
TORSDOF 6
ENDMDL
MODEL 5
REMARK VINA RESULT:      -6.6      3.835      7.802
REMARK  Name = 
REMARK  7 active torsions:
REMARK  status: ('A' for Active; 'I' for Inactive)
REMARK    1  A    between atoms: C_5  and  C_6
REMARK    2  A    between atoms: CA_7  and  C_25
REMARK    3  A    between atoms: CA_11  and  N_13
REMARK    4  A    between atoms: C_14  and  CA_16
REMARK    5  A    between atoms: CA_16  and  N_18
REMARK    6  A    between atoms: CA_16  and  C_19
REMARK    7  A    between atoms: C_25  and  O_26
REMARK                            x       y       z     vdW  Elec       q    Type
REMARK                         _______ _______ _______ _____ _____    ______ ____
ROOT
ATOM      1  C   UNL     1       8.552   1.933  21.827  0.00  0.00    +0.169 C 
ATOM      2  CA  UNL     1       9.688   0.955  22.276  0.00  0.00    +0.191 C 
ATOM      3  C   UNL     1      10.229   2.216  23.041  0.00  0.00    +0.244 C 
ATOM      4  O   UNL     1      11.184   2.550  23.702  0.00  0.00    -0.273 OA
ATOM      5  N   UNL     1       9.086   2.888  22.783  0.00  0.00    -0.249 N 
ATOM      6  CA  UNL     1       8.457   4.035  23.184  0.00  0.00    +0.122 C 
ATOM      7  C   UNL     1       7.124   4.182  22.935  0.00  0.00    -0.034 C 
ATOM      8  C   UNL     1       6.308   5.381  23.382  0.00  0.00    +0.042 C 
ATOM      9  C   UNL     1       6.255   3.158  22.231  0.00  0.00    +0.103 C 
ATOM     10  S   UNL     1       6.875   1.467  22.323  0.00  0.00    -0.131 S 
ENDROOT
BRANCH   2  11
ATOM     11  N   UNL     1       9.255  -0.172  23.129  0.00  0.00    -0.300 N 
ATOM     12  H   UNL     1       8.548  -0.034  23.855  0.00  0.00    +0.150 HD
ATOM     13  C   UNL     1       9.788  -1.440  23.100  0.00  0.00    +0.235 C 
ATOM     14  O   UNL     1      10.662  -1.787  22.313  0.00  0.00    -0.274 OA
BRANCH  13  15
ATOM     15  CA  UNL     1       9.181  -2.368  24.197  0.00  0.00    +0.164 C 
BRANCH  15  16
ATOM     16  C   UNL     1       7.737  -2.656  23.842  0.00  0.00    -0.044 C 
ATOM     17  C   UNL     1       7.537  -3.340  22.504  0.00  0.00    +0.059 C 
ATOM     18  C   UNL     1       6.128  -3.800  22.255  0.00  0.00    -0.026 C 
ATOM     19  C   UNL     1       5.103  -3.508  23.070  0.00  0.00    -0.027 C 
ATOM     20  C   UNL     1       5.259  -2.685  24.314  0.00  0.00    +0.054 C 
ATOM     21  C   UNL     1       6.687  -2.353  24.638  0.00  0.00    -0.021 C 
ENDBRANCH  15  16
BRANCH  15  22
ATOM     22  N   UNL     1       9.994  -3.609  24.281  0.00  0.00    -0.317 NA
ATOM     23  H1  UNL     1      10.704  -3.571  23.549  0.00  0.00    +0.119 HD
ATOM     24  H2  UNL     1      10.509  -3.574  25.162  0.00  0.00    +0.119 HD
ENDBRANCH  15  22
ENDBRANCH  13  15
ENDBRANCH   2  11
BRANCH   6  25
ATOM     25  C   UNL     1       9.210   5.129  23.927  0.00  0.00    +0.351 C 
ATOM     26  OXT UNL     1       9.214   5.242  25.145  0.00  0.00    -0.244 OA
BRANCH  25  27
ATOM     27  O   UNL     1       9.820   6.071  23.184  0.00  0.00    -0.476 OA
ATOM     28  H   UNL     1      10.468   5.774  22.510  0.00  0.00    +0.295 HD
ENDBRANCH  25  27
ENDBRANCH   6  25
TORSDOF 6
ENDMDL
MODEL 6
REMARK VINA RESULT:      -6.5      2.978      6.686
REMARK  Name = 
REMARK  7 active torsions:
REMARK  status: ('A' for Active; 'I' for Inactive)
REMARK    1  A    between atoms: C_5  and  C_6
REMARK    2  A    between atoms: CA_7  and  C_25
REMARK    3  A    between atoms: CA_11  and  N_13
REMARK    4  A    between atoms: C_14  and  CA_16
REMARK    5  A    between atoms: CA_16  and  N_18
REMARK    6  A    between atoms: CA_16  and  C_19
REMARK    7  A    between atoms: C_25  and  O_26
REMARK                            x       y       z     vdW  Elec       q    Type
REMARK                         _______ _______ _______ _____ _____    ______ ____
ROOT
ATOM      1  C   UNL     1       9.613  -1.129  25.257  0.00  0.00    +0.169 C 
ATOM      2  CA  UNL     1       8.641  -1.554  26.408  0.00  0.00    +0.191 C 
ATOM      3  C   UNL     1       8.173  -0.056  26.325  0.00  0.00    +0.244 C 
ATOM      4  O   UNL     1       7.432   0.708  26.897  0.00  0.00    -0.273 OA
ATOM      5  N   UNL     1       8.880   0.123  25.189  0.00  0.00    -0.249 N 
ATOM      6  CA  UNL     1       8.995   1.047  24.186  0.00  0.00    +0.122 C 
ATOM      7  C   UNL     1       9.586   0.681  23.012  0.00  0.00    -0.034 C 
ATOM      8  C   UNL     1       9.717   1.600  21.811  0.00  0.00    +0.042 C 
ATOM      9  C   UNL     1      10.144  -0.697  22.714  0.00  0.00    +0.103 C 
ATOM     10  S   UNL     1       9.416  -2.022  23.696  0.00  0.00    -0.131 S 
ENDROOT
BRANCH   2  11
ATOM     11  N   UNL     1       7.623  -2.560  26.040  0.00  0.00    -0.300 N 
ATOM     12  H   UNL     1       6.781  -2.288  25.527  0.00  0.00    +0.150 HD
ATOM     13  C   UNL     1       7.653  -3.888  26.401  0.00  0.00    +0.235 C 
ATOM     14  O   UNL     1       8.571  -4.394  27.038  0.00  0.00    -0.274 OA
BRANCH  13  15
ATOM     15  CA  UNL     1       6.379  -4.661  25.940  0.00  0.00    +0.164 C 
BRANCH  15  16
ATOM     16  C   UNL     1       6.325  -4.645  24.427  0.00  0.00    -0.044 C 
ATOM     17  C   UNL     1       5.217  -3.790  23.841  0.00  0.00    +0.059 C 
ATOM     18  C   UNL     1       5.296  -3.622  22.349  0.00  0.00    -0.026 C 
ATOM     19  C   UNL     1       6.175  -4.281  21.580  0.00  0.00    -0.027 C 
ATOM     20  C   UNL     1       7.168  -5.262  22.130  0.00  0.00    +0.054 C 
ATOM     21  C   UNL     1       7.186  -5.317  23.630  0.00  0.00    -0.021 C 
ENDBRANCH  15  16
BRANCH  15  22
ATOM     22  N   UNL     1       6.432  -6.043  26.483  0.00  0.00    -0.317 NA
ATOM     23  H1  UNL     1       6.627  -5.981  27.482  0.00  0.00    +0.119 HD
ATOM     24  H2  UNL     1       5.490  -6.432  26.413  0.00  0.00    +0.119 HD
ENDBRANCH  15  22
ENDBRANCH  13  15
ENDBRANCH   2  11
BRANCH   6  25
ATOM     25  C   UNL     1       8.449   2.458  24.348  0.00  0.00    +0.351 C 
ATOM     26  OXT UNL     1       9.150   3.432  24.590  0.00  0.00    -0.244 OA
BRANCH  25  27
ATOM     27  O   UNL     1       7.113   2.610  24.316  0.00  0.00    -0.476 OA
ATOM     28  H   UNL     1       6.732   3.404  24.749  0.00  0.00    +0.295 HD
ENDBRANCH  25  27
ENDBRANCH   6  25
TORSDOF 6
ENDMDL
MODEL 7
REMARK VINA RESULT:      -6.4      2.817      7.289
REMARK  Name = 
REMARK  7 active torsions:
REMARK  status: ('A' for Active; 'I' for Inactive)
REMARK    1  A    between atoms: C_5  and  C_6
REMARK    2  A    between atoms: CA_7  and  C_25
REMARK    3  A    between atoms: CA_11  and  N_13
REMARK    4  A    between atoms: C_14  and  CA_16
REMARK    5  A    between atoms: CA_16  and  N_18
REMARK    6  A    between atoms: CA_16  and  C_19
REMARK    7  A    between atoms: C_25  and  O_26
REMARK                            x       y       z     vdW  Elec       q    Type
REMARK                         _______ _______ _______ _____ _____    ______ ____
ROOT
ATOM      1  C   UNL     1       8.977  -0.362  22.761  0.00  0.00    +0.169 C 
ATOM      2  CA  UNL     1       9.890  -1.197  23.720  0.00  0.00    +0.191 C 
ATOM      3  C   UNL     1      10.491   0.208  24.083  0.00  0.00    +0.244 C 
ATOM      4  O   UNL     1      11.383   0.681  24.747  0.00  0.00    -0.273 OA
ATOM      5  N   UNL     1       9.502   0.829  23.406  0.00  0.00    -0.249 N 
ATOM      6  CA  UNL     1       8.992   2.091  23.262  0.00  0.00    +0.122 C 
ATOM      7  C   UNL     1       7.741   2.244  22.740  0.00  0.00    -0.034 C 
ATOM      8  C   UNL     1       7.048   3.586  22.587  0.00  0.00    +0.042 C 
ATOM      9  C   UNL     1       6.842   1.108  22.292  0.00  0.00    +0.103 C 
ATOM     10  S   UNL     1       7.199  -0.475  23.076  0.00  0.00    -0.131 S 
ENDROOT
BRANCH   2  11
ATOM     11  N   UNL     1       9.188  -1.893  24.818  0.00  0.00    -0.300 N 
ATOM     12  H   UNL     1       8.845  -1.374  25.630  0.00  0.00    +0.150 HD
ATOM     13  C   UNL     1       9.002  -3.254  24.906  0.00  0.00    +0.235 C 
ATOM     14  O   UNL     1       9.365  -4.042  24.039  0.00  0.00    -0.274 OA
BRANCH  13  15
ATOM     15  CA  UNL     1       8.313  -3.678  26.238  0.00  0.00    +0.164 C 
BRANCH  15  16
ATOM     16  C   UNL     1       6.968  -4.293  25.913  0.00  0.00    -0.044 C 
ATOM     17  C   UNL     1       6.025  -3.387  25.146  0.00  0.00    +0.059 C 
ATOM     18  C   UNL     1       4.779  -4.071  24.656  0.00  0.00    -0.026 C 
ATOM     19  C   UNL     1       4.451  -5.329  24.987  0.00  0.00    -0.027 C 
ATOM     20  C   UNL     1       5.295  -6.183  25.886  0.00  0.00    +0.054 C 
ATOM     21  C   UNL     1       6.607  -5.551  26.253  0.00  0.00    -0.021 C 
ENDBRANCH  15  16
BRANCH  15  22
ATOM     22  N   UNL     1       9.201  -4.627  26.959  0.00  0.00    -0.317 NA
ATOM     23  H1  UNL     1       9.337  -5.444  26.364  0.00  0.00    +0.119 HD
ATOM     24  H2  UNL     1      10.120  -4.186  27.031  0.00  0.00    +0.119 HD
ENDBRANCH  15  22
ENDBRANCH  13  15
ENDBRANCH   2  11
BRANCH   6  25
ATOM     25  C   UNL     1       9.782   3.316  23.700  0.00  0.00    +0.351 C 
ATOM     26  OXT UNL     1       9.462   4.025  24.645  0.00  0.00    -0.244 OA
BRANCH  25  27
ATOM     27  O   UNL     1      10.829   3.679  22.939  0.00  0.00    -0.476 OA
ATOM     28  H   UNL     1      11.194   4.581  23.063  0.00  0.00    +0.295 HD
ENDBRANCH  25  27
ENDBRANCH   6  25
TORSDOF 6
ENDMDL
MODEL 8
REMARK VINA RESULT:      -6.3      3.046      4.408
REMARK  Name = 
REMARK  7 active torsions:
REMARK  status: ('A' for Active; 'I' for Inactive)
REMARK    1  A    between atoms: C_5  and  C_6
REMARK    2  A    between atoms: CA_7  and  C_25
REMARK    3  A    between atoms: CA_11  and  N_13
REMARK    4  A    between atoms: C_14  and  CA_16
REMARK    5  A    between atoms: CA_16  and  N_18
REMARK    6  A    between atoms: CA_16  and  C_19
REMARK    7  A    between atoms: C_25  and  O_26
REMARK                            x       y       z     vdW  Elec       q    Type
REMARK                         _______ _______ _______ _____ _____    ______ ____
ROOT
ATOM      1  C   UNL     1       6.492  -2.082  24.087  0.00  0.00    +0.169 C 
ATOM      2  CA  UNL     1       7.146  -0.912  24.895  0.00  0.00    +0.191 C 
ATOM      3  C   UNL     1       7.945  -2.073  25.588  0.00  0.00    +0.244 C 
ATOM      4  O   UNL     1       8.737  -2.234  26.486  0.00  0.00    -0.273 OA
ATOM      5  N   UNL     1       7.489  -2.959  24.677  0.00  0.00    -0.249 N 
ATOM      6  CA  UNL     1       7.749  -4.239  24.271  0.00  0.00    +0.122 C 
ATOM      7  C   UNL     1       7.287  -4.656  23.057  0.00  0.00    -0.034 C 
ATOM      8  C   UNL     1       7.561  -6.031  22.475  0.00  0.00    +0.042 C 
ATOM      9  C   UNL     1       6.489  -3.801  22.091  0.00  0.00    +0.103 C 
ATOM     10  S   UNL     1       6.732  -2.027  22.294  0.00  0.00    -0.131 S 
ENDROOT
BRANCH   2  11
ATOM     11  N   UNL     1       7.956   0.034  24.099  0.00  0.00    -0.300 N 
ATOM     12  H   UNL     1       8.364  -0.252  23.206  0.00  0.00    +0.150 HD
ATOM     13  C   UNL     1       8.303   1.307  24.491  0.00  0.00    +0.235 C 
ATOM     14  O   UNL     1       7.926   1.816  25.540  0.00  0.00    -0.274 OA
BRANCH  13  15
ATOM     15  CA  UNL     1       9.249   2.009  23.469  0.00  0.00    +0.164 C 
BRANCH  15  16
ATOM     16  C   UNL     1       8.775   3.433  23.269  0.00  0.00    -0.044 C 
ATOM     17  C   UNL     1       9.637   4.488  23.936  0.00  0.00    +0.059 C 
ATOM     18  C   UNL     1       9.275   5.899  23.566  0.00  0.00    -0.026 C 
ATOM     19  C   UNL     1       8.200   6.215  22.829  0.00  0.00    -0.027 C 
ATOM     20  C   UNL     1       7.241   5.188  22.303  0.00  0.00    +0.054 C 
ATOM     21  C   UNL     1       7.683   3.774  22.548  0.00  0.00    -0.021 C 
ENDBRANCH  15  16
BRANCH  15  22
ATOM     22  N   UNL     1      10.641   1.951  23.984  0.00  0.00    -0.317 NA
ATOM     23  H1  UNL     1      10.890   0.969  24.110  0.00  0.00    +0.119 HD
ATOM     24  H2  UNL     1      11.253   2.294  23.242  0.00  0.00    +0.119 HD
ENDBRANCH  15  22
ENDBRANCH  13  15
ENDBRANCH   2  11
BRANCH   6  25
ATOM     25  C   UNL     1       8.565  -5.190  25.134  0.00  0.00    +0.351 C 
ATOM     26  OXT UNL     1       8.115  -5.771  26.113  0.00  0.00    -0.244 OA
BRANCH  25  27
ATOM     27  O   UNL     1       9.874  -5.312  24.850  0.00  0.00    -0.476 OA
ATOM     28  H   UNL     1      10.122  -5.797  24.035  0.00  0.00    +0.295 HD
ENDBRANCH  25  27
ENDBRANCH   6  25
TORSDOF 6
ENDMDL
MODEL 9
REMARK VINA RESULT:      -6.2      1.905      2.578
REMARK  Name = 
REMARK  7 active torsions:
REMARK  status: ('A' for Active; 'I' for Inactive)
REMARK    1  A    between atoms: C_5  and  C_6
REMARK    2  A    between atoms: CA_7  and  C_25
REMARK    3  A    between atoms: CA_11  and  N_13
REMARK    4  A    between atoms: C_14  and  CA_16
REMARK    5  A    between atoms: CA_16  and  N_18
REMARK    6  A    between atoms: CA_16  and  C_19
REMARK    7  A    between atoms: C_25  and  O_26
REMARK                            x       y       z     vdW  Elec       q    Type
REMARK                         _______ _______ _______ _____ _____    ______ ____
ROOT
ATOM      1  C   UNL     1       7.822  -4.735  23.789  0.00  0.00    +0.169 C 
ATOM      2  CA  UNL     1       7.692  -3.897  22.472  0.00  0.00    +0.191 C 
ATOM      3  C   UNL     1       6.289  -4.598  22.375  0.00  0.00    +0.244 C 
ATOM      4  O   UNL     1       5.353  -4.677  21.615  0.00  0.00    -0.273 OA
ATOM      5  N   UNL     1       6.419  -5.079  23.630  0.00  0.00    -0.249 N 
ATOM      6  CA  UNL     1       5.643  -5.676  24.586  0.00  0.00    +0.122 C 
ATOM      7  C   UNL     1       6.079  -5.691  25.879  0.00  0.00    -0.034 C 
ATOM      8  C   UNL     1       5.281  -6.270  27.033  0.00  0.00    +0.042 C 
ATOM      9  C   UNL     1       7.385  -5.090  26.362  0.00  0.00    +0.103 C 
ATOM     10  S   UNL     1       8.033  -3.777  25.309  0.00  0.00    -0.131 S 
ENDROOT
BRANCH   2  11
ATOM     11  N   UNL     1       7.661  -2.431  22.654  0.00  0.00    -0.300 N 
ATOM     12  H   UNL     1       6.804  -1.960  22.953  0.00  0.00    +0.150 HD
ATOM     13  C   UNL     1       8.701  -1.574  22.374  0.00  0.00    +0.235 C 
ATOM     14  O   UNL     1       9.800  -1.952  21.983  0.00  0.00    -0.274 OA
BRANCH  13  15
ATOM     15  CA  UNL     1       8.313  -0.078  22.577  0.00  0.00    +0.164 C 
BRANCH  15  16
ATOM     16  C   UNL     1       7.801   0.102  23.991  0.00  0.00    -0.044 C 
ATOM     17  C   UNL     1       6.329   0.452  24.093  0.00  0.00    +0.059 C 
ATOM     18  C   UNL     1       5.789   0.430  25.496  0.00  0.00    -0.026 C 
ATOM     19  C   UNL     1       6.561   0.260  26.579  0.00  0.00    -0.027 C 
ATOM     20  C   UNL     1       8.048   0.080  26.503  0.00  0.00    +0.054 C 
ATOM     21  C   UNL     1       8.564  -0.044  25.098  0.00  0.00    -0.021 C 
ENDBRANCH  15  16
BRANCH  15  22
ATOM     22  N   UNL     1       9.503   0.770  22.302  0.00  0.00    -0.317 NA
ATOM     23  H1  UNL     1       9.201   1.744  22.303  0.00  0.00    +0.119 HD
ATOM     24  H2  UNL     1      10.131   0.678  23.103  0.00  0.00    +0.119 HD
ENDBRANCH  15  22
ENDBRANCH  13  15
ENDBRANCH   2  11
BRANCH   6  25
ATOM     25  C   UNL     1       4.296  -6.292  24.237  0.00  0.00    +0.351 C 
ATOM     26  OXT UNL     1       3.241  -5.672  24.263  0.00  0.00    -0.244 OA
BRANCH  25  27
ATOM     27  O   UNL     1       4.269  -7.612  23.983  0.00  0.00    -0.476 OA
ATOM     28  H   UNL     1       3.494  -8.124  24.299  0.00  0.00    +0.295 HD
ENDBRANCH  25  27
ENDBRANCH   6  25
TORSDOF 6
ENDMDL
