MODEL 1
REMARK VINA RESULT:      -6.5      0.000      0.000
REMARK  Name = 
REMARK  3 active torsions:
REMARK  status: ('A' for Active; 'I' for Inactive)
REMARK    1  A    between atoms: C_4  and  O_5
REMARK    2  A    between atoms: O_5  and  C_6
REMARK    3  A    between atoms: C_6  and  C_7
REMARK                            x       y       z     vdW  Elec       q    Type
REMARK                         _______ _______ _______ _____ _____    ______ ____
ROOT
ATOM      1  N   UNL     1       8.319  -5.643  26.764  0.00  0.00    -0.327 N 
ATOM      2  H   UNL     1       7.771  -6.492  26.720  0.00  0.00    +0.145 HD
ATOM      3  H   UNL     1       9.288  -5.722  27.033  0.00  0.00    +0.145 HD
ATOM      4  C   UNL     1       8.187  -4.939  25.582  0.00  0.00    +0.218 A 
ATOM      5  N   UNL     1       7.107  -5.213  24.848  0.00  0.00    -0.193 NA
ATOM      6  C   UNL     1       7.012  -4.474  23.731  0.00  0.00    +0.186 A 
ATOM      7  C   UNL     1       7.952  -3.534  23.370  0.00  0.00    +0.147 A 
ATOM      8  N   UNL     1       7.491  -2.992  22.206  0.00  0.00    -0.339 N 
ATOM      9  H   UNL     1       7.935  -2.257  21.674  0.00  0.00    +0.167 HD
ATOM     10  C   UNL     1       6.309  -3.616  21.908  0.00  0.00    +0.199 A 
ATOM     11  C   UNL     1       9.052  -3.336  24.161  0.00  0.00    +0.246 A 
ATOM     12  N   UNL     1       5.999  -4.524  22.809  0.00  0.00    -0.216 NA
ATOM     13  N   UNL     1       9.169  -4.063  25.287  0.00  0.00    -0.178 NA
ENDROOT
BRANCH  11  14
ATOM     14  O   UNL     1       9.983  -2.390  23.801  0.00  0.00    -0.473 OA
BRANCH  14  15
ATOM     15  C   UNL     1       9.878  -1.156  24.520  0.00  0.00    +0.253 C 
BRANCH  15  16
ATOM     16  C   UNL     1      10.414  -0.064  23.593  0.00  0.00    +0.111 C 
ATOM     17  N   UNL     1      10.497   1.233  24.217  0.00  0.00    -0.309 N 
ATOM     18  H   UNL     1      10.944   1.417  25.107  0.00  0.00    +0.149 HD
ATOM     19  C   UNL     1      10.393   2.248  23.289  0.00  0.00    +0.213 C 
ATOM     20  O   UNL     1      10.653   3.419  23.497  0.00  0.00    -0.276 OA
ATOM     21  C   UNL     1       9.978   1.635  21.974  0.00  0.00    +0.098 C 
ATOM     22  C   UNL     1       9.543   0.225  22.380  0.00  0.00    +0.035 C 
ENDBRANCH  15  16
ENDBRANCH  14  15
ENDBRANCH  11  14
TORSDOF 3
ENDMDL
MODEL 2
REMARK VINA RESULT:      -6.5      1.218      1.353
REMARK  Name = 
REMARK  3 active torsions:
REMARK  status: ('A' for Active; 'I' for Inactive)
REMARK    1  A    between atoms: C_4  and  O_5
REMARK    2  A    between atoms: O_5  and  C_6
REMARK    3  A    between atoms: C_6  and  C_7
REMARK                            x       y       z     vdW  Elec       q    Type
REMARK                         _______ _______ _______ _____ _____    ______ ____
ROOT
ATOM      1  N   UNL     1       7.590  -5.895  27.455  0.00  0.00    -0.327 N 
ATOM      2  H   UNL     1       6.942  -6.662  27.572  0.00  0.00    +0.145 HD
ATOM      3  H   UNL     1       8.545  -6.036  27.751  0.00  0.00    +0.145 HD
ATOM      4  C   UNL     1       7.539  -5.432  26.153  0.00  0.00    +0.218 A 
ATOM      5  N   UNL     1       6.428  -5.715  25.469  0.00  0.00    -0.193 NA
ATOM      6  C   UNL     1       6.418  -5.210  24.225  0.00  0.00    +0.186 A 
ATOM      7  C   UNL     1       7.464  -4.484  23.700  0.00  0.00    +0.147 A 
ATOM      8  N   UNL     1       7.066  -4.135  22.443  0.00  0.00    -0.339 N 
ATOM      9  H   UNL     1       7.593  -3.582  21.783  0.00  0.00    +0.167 HD
ATOM     10  C   UNL     1       5.814  -4.657  22.255  0.00  0.00    +0.199 A 
ATOM     11  C   UNL     1       8.586  -4.266  24.456  0.00  0.00    +0.246 A 
ATOM     12  N   UNL     1       5.400  -5.320  23.314  0.00  0.00    -0.216 NA
ATOM     13  N   UNL     1       8.619  -4.761  25.707  0.00  0.00    -0.178 NA
ENDROOT
BRANCH  11  14
ATOM     14  O   UNL     1       9.623  -3.534  23.930  0.00  0.00    -0.473 OA
BRANCH  14  15
ATOM     15  C   UNL     1       9.630  -2.156  24.323  0.00  0.00    +0.253 C 
BRANCH  15  16
ATOM     16  C   UNL     1      10.025  -1.351  23.083  0.00  0.00    +0.111 C 
ATOM     17  N   UNL     1      10.235   0.050  23.349  0.00  0.00    -0.309 N 
ATOM     18  H   UNL     1      10.827   0.416  24.085  0.00  0.00    +0.149 HD
ATOM     19  C   UNL     1       9.998   0.817  22.227  0.00  0.00    +0.213 C 
ATOM     20  O   UNL     1      10.311   1.987  22.098  0.00  0.00    -0.276 OA
ATOM     21  C   UNL     1       9.359  -0.067  21.185  0.00  0.00    +0.098 C 
ATOM     22  C   UNL     1       8.971  -1.310  21.988  0.00  0.00    +0.035 C 
ENDBRANCH  15  16
ENDBRANCH  14  15
ENDBRANCH  11  14
TORSDOF 3
ENDMDL
MODEL 3
REMARK VINA RESULT:      -6.4      2.497      5.792
REMARK  Name = 
REMARK  3 active torsions:
REMARK  status: ('A' for Active; 'I' for Inactive)
REMARK    1  A    between atoms: C_4  and  O_5
REMARK    2  A    between atoms: O_5  and  C_6
REMARK    3  A    between atoms: C_6  and  C_7
REMARK                            x       y       z     vdW  Elec       q    Type
REMARK                         _______ _______ _______ _____ _____    ______ ____
ROOT
ATOM      1  N   UNL     1       8.782  -0.378  27.065  0.00  0.00    -0.327 N 
ATOM      2  H   UNL     1       8.384   0.551  27.099  0.00  0.00    +0.145 HD
ATOM      3  H   UNL     1       8.313  -1.109  27.579  0.00  0.00    +0.145 HD
ATOM      4  C   UNL     1       8.991  -0.751  25.751  0.00  0.00    +0.218 A 
ATOM      5  N   UNL     1       9.078   0.241  24.862  0.00  0.00    -0.193 NA
ATOM      6  C   UNL     1       9.318  -0.178  23.609  0.00  0.00    +0.186 A 
ATOM      7  C   UNL     1       9.444  -1.507  23.272  0.00  0.00    +0.147 A 
ATOM      8  N   UNL     1       9.703  -1.517  21.932  0.00  0.00    -0.339 N 
ATOM      9  H   UNL     1       9.865  -2.335  21.363  0.00  0.00    +0.167 HD
ATOM     10  C   UNL     1       9.721  -0.213  21.514  0.00  0.00    +0.199 A 
ATOM     11  C   UNL     1       9.307  -2.468  24.238  0.00  0.00    +0.246 A 
ATOM     12  N   UNL     1       9.482   0.618  22.506  0.00  0.00    -0.216 NA
ATOM     13  N   UNL     1       9.068  -2.074  25.503  0.00  0.00    -0.178 NA
ENDROOT
BRANCH  11  14
ATOM     14  O   UNL     1       9.443  -3.793  23.898  0.00  0.00    -0.473 OA
BRANCH  14  15
ATOM     15  C   UNL     1       8.347  -4.621  24.303  0.00  0.00    +0.253 C 
BRANCH  15  16
ATOM     16  C   UNL     1       7.340  -4.607  23.151  0.00  0.00    +0.111 C 
ATOM     17  N   UNL     1       5.968  -4.701  23.584  0.00  0.00    -0.309 N 
ATOM     18  H   UNL     1       5.545  -4.116  24.294  0.00  0.00    +0.149 HD
ATOM     19  C   UNL     1       5.171  -5.269  22.611  0.00  0.00    +0.213 C 
ATOM     20  O   UNL     1       3.953  -5.265  22.611  0.00  0.00    -0.276 OA
ATOM     21  C   UNL     1       6.072  -5.819  21.533  0.00  0.00    +0.098 C 
ATOM     22  C   UNL     1       7.451  -5.783  22.195  0.00  0.00    +0.035 C 
ENDBRANCH  15  16
ENDBRANCH  14  15
ENDBRANCH  11  14
TORSDOF 3
ENDMDL
MODEL 4
REMARK VINA RESULT:      -6.2      0.810      2.583
REMARK  Name = 
REMARK  3 active torsions:
REMARK  status: ('A' for Active; 'I' for Inactive)
REMARK    1  A    between atoms: C_4  and  O_5
REMARK    2  A    between atoms: O_5  and  C_6
REMARK    3  A    between atoms: C_6  and  C_7
REMARK                            x       y       z     vdW  Elec       q    Type
REMARK                         _______ _______ _______ _____ _____    ______ ____
ROOT
ATOM      1  N   UNL     1       6.277  -4.225  21.598  0.00  0.00    -0.327 N 
ATOM      2  H   UNL     1       5.354  -4.595  21.781  0.00  0.00    +0.145 HD
ATOM      3  H   UNL     1       6.343  -3.359  21.083  0.00  0.00    +0.145 HD
ATOM      4  C   UNL     1       6.998  -4.157  22.775  0.00  0.00    +0.218 A 
ATOM      5  N   UNL     1       6.585  -4.948  23.767  0.00  0.00    -0.193 NA
ATOM      6  C   UNL     1       7.343  -4.869  24.872  0.00  0.00    +0.186 A 
ATOM      7  C   UNL     1       8.434  -4.034  24.976  0.00  0.00    +0.147 A 
ATOM      8  N   UNL     1       8.942  -4.259  26.223  0.00  0.00    -0.339 N 
ATOM      9  H   UNL     1       9.759  -3.818  26.621  0.00  0.00    +0.167 HD
ATOM     10  C   UNL     1       8.150  -5.203  26.819  0.00  0.00    +0.199 A 
ATOM     11  C   UNL     1       8.774  -3.227  23.923  0.00  0.00    +0.246 A 
ATOM     12  N   UNL     1       7.169  -5.584  26.028  0.00  0.00    -0.216 NA
ATOM     13  N   UNL     1       8.030  -3.290  22.803  0.00  0.00    -0.178 NA
ENDROOT
BRANCH  11  14
ATOM     14  O   UNL     1       9.869  -2.403  24.029  0.00  0.00    -0.473 OA
BRANCH  14  15
ATOM     15  C   UNL     1       9.582  -1.108  24.569  0.00  0.00    +0.253 C 
BRANCH  15  16
ATOM     16  C   UNL     1      10.246  -0.091  23.639  0.00  0.00    +0.111 C 
ATOM     17  N   UNL     1      10.465   1.195  24.253  0.00  0.00    -0.309 N 
ATOM     18  H   UNL     1      10.919   1.338  25.147  0.00  0.00    +0.149 HD
ATOM     19  C   UNL     1      10.485   2.206  23.315  0.00  0.00    +0.213 C 
ATOM     20  O   UNL     1      10.871   3.343  23.516  0.00  0.00    -0.276 OA
ATOM     21  C   UNL     1      10.020   1.630  22.000  0.00  0.00    +0.098 C 
ATOM     22  C   UNL     1       9.427   0.281  22.413  0.00  0.00    +0.035 C 
ENDBRANCH  15  16
ENDBRANCH  14  15
ENDBRANCH  11  14
TORSDOF 3
ENDMDL
MODEL 5
REMARK VINA RESULT:      -6.2      3.090      6.321
REMARK  Name = 
REMARK  3 active torsions:
REMARK  status: ('A' for Active; 'I' for Inactive)
REMARK    1  A    between atoms: C_4  and  O_5
REMARK    2  A    between atoms: O_5  and  C_6
REMARK    3  A    between atoms: C_6  and  C_7
REMARK                            x       y       z     vdW  Elec       q    Type
REMARK                         _______ _______ _______ _____ _____    ______ ____
ROOT
ATOM      1  N   UNL     1       9.836  -5.677  25.698  0.00  0.00    -0.327 N 
ATOM      2  H   UNL     1      10.625  -5.242  26.156  0.00  0.00    +0.145 HD
ATOM      3  H   UNL     1       9.154  -6.144  26.277  0.00  0.00    +0.145 HD
ATOM      4  C   UNL     1       9.228  -4.771  24.849  0.00  0.00    +0.218 A 
ATOM      5  N   UNL     1       9.977  -3.741  24.450  0.00  0.00    -0.193 NA
ATOM      6  C   UNL     1       9.349  -2.914  23.599  0.00  0.00    +0.186 A 
ATOM      7  C   UNL     1       8.047  -3.104  23.192  0.00  0.00    +0.147 A 
ATOM      8  N   UNL     1       7.788  -2.082  22.325  0.00  0.00    -0.339 N 
ATOM      9  H   UNL     1       6.923  -1.927  21.827  0.00  0.00    +0.167 HD
ATOM     10  C   UNL     1       8.924  -1.321  22.244  0.00  0.00    +0.199 A 
ATOM     11  C   UNL     1       7.333  -4.168  23.673  0.00  0.00    +0.246 A 
ATOM     12  N   UNL     1       9.882  -1.797  23.012  0.00  0.00    -0.216 NA
ATOM     13  N   UNL     1       7.942  -5.013  24.527  0.00  0.00    -0.178 NA
ENDROOT
BRANCH  11  14
ATOM     14  O   UNL     1       6.037  -4.358  23.256  0.00  0.00    -0.473 OA
BRANCH  14  15
ATOM     15  C   UNL     1       5.052  -3.753  24.101  0.00  0.00    +0.253 C 
BRANCH  15  16
ATOM     16  C   UNL     1       4.417  -4.884  24.912  0.00  0.00    +0.111 C 
ATOM     17  N   UNL     1       5.193  -5.273  26.063  0.00  0.00    -0.309 N 
ATOM     18  H   UNL     1       5.549  -4.632  26.762  0.00  0.00    +0.149 HD
ATOM     19  C   UNL     1       4.961  -6.589  26.407  0.00  0.00    +0.213 C 
ATOM     20  O   UNL     1       5.299  -7.111  27.454  0.00  0.00    -0.276 OA
ATOM     21  C   UNL     1       4.162  -7.226  25.297  0.00  0.00    +0.098 C 
ATOM     22  C   UNL     1       4.279  -6.202  24.166  0.00  0.00    +0.035 C 
ENDBRANCH  15  16
ENDBRANCH  14  15
ENDBRANCH  11  14
TORSDOF 3
ENDMDL
MODEL 6
REMARK VINA RESULT:      -6.0      2.880      4.744
REMARK  Name = 
REMARK  3 active torsions:
REMARK  status: ('A' for Active; 'I' for Inactive)
REMARK    1  A    between atoms: C_4  and  O_5
REMARK    2  A    between atoms: O_5  and  C_6
REMARK    3  A    between atoms: C_6  and  C_7
REMARK                            x       y       z     vdW  Elec       q    Type
REMARK                         _______ _______ _______ _____ _____    ______ ____
ROOT
ATOM      1  N   UNL     1       9.817  -1.207  21.128  0.00  0.00    -0.327 N 
ATOM      2  H   UNL     1       9.247  -2.014  20.914  0.00  0.00    +0.145 HD
ATOM      3  H   UNL     1       9.745  -0.406  20.519  0.00  0.00    +0.145 HD
ATOM      4  C   UNL     1       9.636  -0.843  22.449  0.00  0.00    +0.218 A 
ATOM      5  N   UNL     1       9.169  -1.791  23.265  0.00  0.00    -0.193 NA
ATOM      6  C   UNL     1       9.049  -1.393  24.541  0.00  0.00    +0.186 A 
ATOM      7  C   UNL     1       9.362  -0.120  24.964  0.00  0.00    +0.147 A 
ATOM      8  N   UNL     1       9.131  -0.120  26.309  0.00  0.00    -0.339 N 
ATOM      9  H   UNL     1       9.274   0.657  26.938  0.00  0.00    +0.167 HD
ATOM     10  C   UNL     1       8.690  -1.372  26.645  0.00  0.00    +0.199 A 
ATOM     11  C   UNL     1       9.805   0.807  24.058  0.00  0.00    +0.246 A 
ATOM     12  N   UNL     1       8.622  -2.160  25.593  0.00  0.00    -0.216 NA
ATOM     13  N   UNL     1       9.935   0.431  22.772  0.00  0.00    -0.178 NA
ENDROOT
BRANCH  11  14
ATOM     14  O   UNL     1      10.125   2.072  24.487  0.00  0.00    -0.473 OA
BRANCH  14  15
ATOM     15  C   UNL     1       9.131   3.062  24.196  0.00  0.00    +0.253 C 
BRANCH  15  16
ATOM     16  C   UNL     1       9.877   4.285  23.659  0.00  0.00    +0.111 C 
ATOM     17  N   UNL     1      11.250   4.016  23.312  0.00  0.00    -0.309 N 
ATOM     18  H   UNL     1      11.557   3.254  22.719  0.00  0.00    +0.149 HD
ATOM     19  C   UNL     1      12.028   5.152  23.412  0.00  0.00    +0.213 C 
ATOM     20  O   UNL     1      13.156   5.271  22.969  0.00  0.00    -0.276 OA
ATOM     21  C   UNL     1      11.207   6.219  24.093  0.00  0.00    +0.098 C 
ATOM     22  C   UNL     1      10.021   5.429  24.650  0.00  0.00    +0.035 C 
ENDBRANCH  15  16
ENDBRANCH  14  15
ENDBRANCH  11  14
TORSDOF 3
ENDMDL
MODEL 7
REMARK VINA RESULT:      -5.8      4.994      6.783
REMARK  Name = 
REMARK  3 active torsions:
REMARK  status: ('A' for Active; 'I' for Inactive)
REMARK    1  A    between atoms: C_4  and  O_5
REMARK    2  A    between atoms: O_5  and  C_6
REMARK    3  A    between atoms: C_6  and  C_7
REMARK                            x       y       z     vdW  Elec       q    Type
REMARK                         _______ _______ _______ _____ _____    ______ ____
ROOT
ATOM      1  N   UNL     1       8.544  -5.099  26.736  0.00  0.00    -0.327 N 
ATOM      2  H   UNL     1       9.152  -5.293  27.520  0.00  0.00    +0.145 HD
ATOM      3  H   UNL     1       8.880  -5.331  25.812  0.00  0.00    +0.145 HD
ATOM      4  C   UNL     1       7.296  -5.650  26.961  0.00  0.00    +0.218 A 
ATOM      5  N   UNL     1       6.982  -5.900  28.234  0.00  0.00    -0.193 NA
ATOM      6  C   UNL     1       5.746  -6.398  28.397  0.00  0.00    +0.186 A 
ATOM      7  C   UNL     1       4.891  -6.644  27.346  0.00  0.00    +0.147 A 
ATOM      8  N   UNL     1       3.745  -7.116  27.917  0.00  0.00    -0.339 N 
ATOM      9  H   UNL     1       2.902  -7.382  27.428  0.00  0.00    +0.167 HD
ATOM     10  C   UNL     1       3.947  -7.141  29.271  0.00  0.00    +0.199 A 
ATOM     11  C   UNL     1       5.301  -6.392  26.064  0.00  0.00    +0.246 A 
ATOM     12  N   UNL     1       5.153  -6.720  29.589  0.00  0.00    -0.216 NA
ATOM     13  N   UNL     1       6.536  -5.890  25.874  0.00  0.00    -0.178 NA
ENDROOT
BRANCH  11  14
ATOM     14  O   UNL     1       4.441  -6.631  25.019  0.00  0.00    -0.473 OA
BRANCH  14  15
ATOM     15  C   UNL     1       3.710  -5.479  24.582  0.00  0.00    +0.253 C 
BRANCH  15  16
ATOM     16  C   UNL     1       4.271  -5.101  23.210  0.00  0.00    +0.111 C 
ATOM     17  N   UNL     1       5.242  -6.040  22.706  0.00  0.00    -0.309 N 
ATOM     18  H   UNL     1       5.103  -7.042  22.653  0.00  0.00    +0.149 HD
ATOM     19  C   UNL     1       6.128  -5.433  21.840  0.00  0.00    +0.213 C 
ATOM     20  O   UNL     1       6.900  -6.017  21.101  0.00  0.00    -0.276 OA
ATOM     21  C   UNL     1       5.914  -3.941  21.924  0.00  0.00    +0.098 C 
ATOM     22  C   UNL     1       5.048  -3.795  23.178  0.00  0.00    +0.035 C 
ENDBRANCH  15  16
ENDBRANCH  14  15
ENDBRANCH  11  14
TORSDOF 3
ENDMDL
MODEL 8
REMARK VINA RESULT:      -5.8      2.229      6.415
REMARK  Name = 
REMARK  3 active torsions:
REMARK  status: ('A' for Active; 'I' for Inactive)
REMARK    1  A    between atoms: C_4  and  O_5
REMARK    2  A    between atoms: O_5  and  C_6
REMARK    3  A    between atoms: C_6  and  C_7
REMARK                            x       y       z     vdW  Elec       q    Type
REMARK                         _______ _______ _______ _____ _____    ______ ____
ROOT
ATOM      1  N   UNL     1      10.193   2.233  21.485  0.00  0.00    -0.327 N 
ATOM      2  H   UNL     1      10.129   3.241  21.510  0.00  0.00    +0.145 HD
ATOM      3  H   UNL     1      11.071   1.824  21.204  0.00  0.00    +0.145 HD
ATOM      4  C   UNL     1       9.763   1.706  22.689  0.00  0.00    +0.218 A 
ATOM      5  N   UNL     1       8.971   2.486  23.427  0.00  0.00    -0.193 NA
ATOM      6  C   UNL     1       8.555   1.910  24.566  0.00  0.00    +0.186 A 
ATOM      7  C   UNL     1       8.927   0.639  24.943  0.00  0.00    +0.147 A 
ATOM      8  N   UNL     1       8.288   0.413  26.128  0.00  0.00    -0.339 N 
ATOM      9  H   UNL     1       8.331  -0.434  26.676  0.00  0.00    +0.167 HD
ATOM     10  C   UNL     1       7.567   1.540  26.420  0.00  0.00    +0.199 A 
ATOM     11  C   UNL     1       9.772  -0.087  24.146  0.00  0.00    +0.246 A 
ATOM     12  N   UNL     1       7.718   2.466  25.497  0.00  0.00    -0.216 NA
ATOM     13  N   UNL     1      10.201   0.469  22.998  0.00  0.00    -0.178 NA
ENDROOT
BRANCH  11  14
ATOM     14  O   UNL     1      10.132  -1.358  24.523  0.00  0.00    -0.473 OA
BRANCH  14  15
ATOM     15  C   UNL     1       9.726  -2.382  23.608  0.00  0.00    +0.253 C 
BRANCH  15  16
ATOM     16  C   UNL     1       8.537  -3.098  24.253  0.00  0.00    +0.111 C 
ATOM     17  N   UNL     1       8.899  -3.904  25.392  0.00  0.00    -0.309 N 
ATOM     18  H   UNL     1       9.453  -3.581  26.176  0.00  0.00    +0.149 HD
ATOM     19  C   UNL     1       8.015  -4.947  25.574  0.00  0.00    +0.213 C 
ATOM     20  O   UNL     1       7.943  -5.642  26.571  0.00  0.00    -0.276 OA
ATOM     21  C   UNL     1       7.121  -5.017  24.359  0.00  0.00    +0.098 C 
ATOM     22  C   UNL     1       7.842  -4.111  23.358  0.00  0.00    +0.035 C 
ENDBRANCH  15  16
ENDBRANCH  14  15
ENDBRANCH  11  14
TORSDOF 3
ENDMDL
MODEL 9
REMARK VINA RESULT:      -5.7      2.386      3.494
REMARK  Name = 
REMARK  3 active torsions:
REMARK  status: ('A' for Active; 'I' for Inactive)
REMARK    1  A    between atoms: C_4  and  O_5
REMARK    2  A    between atoms: O_5  and  C_6
REMARK    3  A    between atoms: C_6  and  C_7
REMARK                            x       y       z     vdW  Elec       q    Type
REMARK                         _______ _______ _______ _____ _____    ______ ____
ROOT
ATOM      1  N   UNL     1       7.843  -5.656  27.115  0.00  0.00    -0.327 N 
ATOM      2  H   UNL     1       7.732  -6.529  27.612  0.00  0.00    +0.145 HD
ATOM      3  H   UNL     1       8.772  -5.398  26.816  0.00  0.00    +0.145 HD
ATOM      4  C   UNL     1       6.950  -5.600  26.060  0.00  0.00    +0.218 A 
ATOM      5  N   UNL     1       5.883  -6.397  26.148  0.00  0.00    -0.193 NA
ATOM      6  C   UNL     1       5.033  -6.275  25.116  0.00  0.00    +0.186 A 
ATOM      7  C   UNL     1       5.253  -5.420  24.058  0.00  0.00    +0.147 A 
ATOM      8  N   UNL     1       4.168  -5.567  23.244  0.00  0.00    -0.339 N 
ATOM      9  H   UNL     1       4.000  -5.073  22.379  0.00  0.00    +0.167 HD
ATOM     10  C   UNL     1       3.346  -6.494  23.828  0.00  0.00    +0.199 A 
ATOM     11  C   UNL     1       6.392  -4.660  24.026  0.00  0.00    +0.246 A 
ATOM     12  N   UNL     1       3.848  -6.945  24.957  0.00  0.00    -0.216 NA
ATOM     13  N   UNL     1       7.259  -4.763  25.050  0.00  0.00    -0.178 NA
ENDROOT
BRANCH  11  14
ATOM     14  O   UNL     1       6.602  -3.802  22.973  0.00  0.00    -0.473 OA
BRANCH  14  15
ATOM     15  C   UNL     1       6.143  -2.465  23.201  0.00  0.00    +0.253 C 
BRANCH  15  16
ATOM     16  C   UNL     1       7.359  -1.552  23.036  0.00  0.00    +0.111 C 
ATOM     17  N   UNL     1       8.485  -2.199  22.411  0.00  0.00    -0.309 N 
ATOM     18  H   UNL     1       8.443  -2.720  21.544  0.00  0.00    +0.149 HD
ATOM     19  C   UNL     1       9.677  -1.620  22.796  0.00  0.00    +0.213 C 
ATOM     20  O   UNL     1      10.755  -1.809  22.261  0.00  0.00    -0.276 OA
ATOM     21  C   UNL     1       9.388  -0.672  23.934  0.00  0.00    +0.098 C 
ATOM     22  C   UNL     1       7.964  -1.056  24.340  0.00  0.00    +0.035 C 
ENDBRANCH  15  16
ENDBRANCH  14  15
ENDBRANCH  11  14
TORSDOF 3
ENDMDL
