MODEL 1
REMARK VINA RESULT:      -5.4      0.000      0.000
REMARK  Name = 
REMARK  8 active torsions:
REMARK  status: ('A' for Active; 'I' for Inactive)
REMARK    1  A    between atoms: N_1  and  CA_2
REMARK    2  A    between atoms: CA_2  and  C_4
REMARK    3  A    between atoms: CA_2  and  C_15
REMARK    4  A    between atoms: C_4  and  O_6
REMARK    5  A    between atoms: C_4  and  C_7
REMARK    6  A    between atoms: C_9  and  O_10
REMARK    7  A    between atoms: C_11  and  O_12
REMARK    8  A    between atoms: C_15  and  O_16
REMARK                            x       y       z     vdW  Elec       q    Type
REMARK                         _______ _______ _______ _____ _____    ______ ____
ROOT
ATOM      1  C   UNL     1       9.477  -3.112  24.271  0.00  0.00    +0.172 C 
ENDROOT
BRANCH   1   2
ATOM      2  C   UNL     1       9.688  -1.786  23.539  0.00  0.00    -0.013 A 
ATOM      3  C   UNL     1       9.348  -1.661  22.178  0.00  0.00    +0.010 A 
ATOM      4  C   UNL     1       9.469  -0.435  21.513  0.00  0.00    +0.049 A 
ATOM      5  C   UNL     1       9.914   0.675  22.212  0.00  0.00    +0.158 A 
ATOM      6  C   UNL     1      10.254   0.576  23.555  0.00  0.00    +0.159 A 
ATOM      7  C   UNL     1      10.151  -0.642  24.218  0.00  0.00    +0.055 A 
BRANCH   5   8
ATOM      8  O   UNL     1       9.996   1.880  21.574  0.00  0.00    -0.503 OA
ATOM      9  H   UNL     1       9.071   2.095  21.338  0.00  0.00    +0.292 HD
ENDBRANCH   5   8
BRANCH   6  10
ATOM     10  O   UNL     1      10.672   1.710  24.194  0.00  0.00    -0.503 OA
ATOM     11  H   UNL     1      11.612   1.599  24.420  0.00  0.00    +0.292 HD
ENDBRANCH   6  10
ENDBRANCH   1   2
BRANCH   1  12
ATOM     12  O   UNL     1       8.707  -4.001  23.444  0.00  0.00    -0.385 OA
ATOM     13  H   UNL     1       8.603  -4.826  23.957  0.00  0.00    +0.210 HD
ENDBRANCH   1  12
BRANCH   1  14
ATOM     14  CA  UNL     1       8.749  -2.965  25.632  0.00  0.00    +0.194 C 
BRANCH  14  15
ATOM     15  N   UNL     1       7.306  -2.566  25.495  0.00  0.00    -0.316 NA
ATOM     16  H1  UNL     1       7.298  -1.648  25.035  0.00  0.00    +0.119 HD
ATOM     17  H2  UNL     1       6.918  -3.178  24.761  0.00  0.00    +0.119 HD
ENDBRANCH  14  15
BRANCH  14  18
ATOM     18  C   UNL     1       8.789  -4.316  26.357  0.00  0.00    +0.325 C 
ATOM     19  OXT UNL     1       7.981  -4.697  27.190  0.00  0.00    -0.249 OA
BRANCH  18  20
ATOM     20  O   UNL     1       9.860  -5.055  25.965  0.00  0.00    -0.479 OA
ATOM     21  H   UNL     1      10.218  -5.473  26.790  0.00  0.00    +0.295 HD
ENDBRANCH  18  20
ENDBRANCH  14  18
ENDBRANCH   1  14
TORSDOF 8
ENDMDL
MODEL 2
REMARK VINA RESULT:      -5.4      1.975      5.627
REMARK  Name = 
REMARK  8 active torsions:
REMARK  status: ('A' for Active; 'I' for Inactive)
REMARK    1  A    between atoms: N_1  and  CA_2
REMARK    2  A    between atoms: CA_2  and  C_4
REMARK    3  A    between atoms: CA_2  and  C_15
REMARK    4  A    between atoms: C_4  and  O_6
REMARK    5  A    between atoms: C_4  and  C_7
REMARK    6  A    between atoms: C_9  and  O_10
REMARK    7  A    between atoms: C_11  and  O_12
REMARK    8  A    between atoms: C_15  and  O_16
REMARK                            x       y       z     vdW  Elec       q    Type
REMARK                         _______ _______ _______ _____ _____    ______ ____
ROOT
ATOM      1  C   UNL     1       7.661  -2.163  23.275  0.00  0.00    +0.172 C 
ENDROOT
BRANCH   1   2
ATOM      2  C   UNL     1       7.801  -3.125  24.456  0.00  0.00    -0.013 A 
ATOM      3  C   UNL     1       6.892  -3.069  25.532  0.00  0.00    +0.010 A 
ATOM      4  C   UNL     1       6.963  -3.989  26.584  0.00  0.00    +0.049 A 
ATOM      5  C   UNL     1       7.932  -4.978  26.557  0.00  0.00    +0.158 A 
ATOM      6  C   UNL     1       8.837  -5.054  25.507  0.00  0.00    +0.159 A 
ATOM      7  C   UNL     1       8.782  -4.134  24.464  0.00  0.00    +0.055 A 
BRANCH   5   8
ATOM      8  O   UNL     1       7.978  -5.900  27.565  0.00  0.00    -0.503 OA
ATOM      9  H   UNL     1       7.829  -6.758  27.119  0.00  0.00    +0.292 HD
ENDBRANCH   5   8
BRANCH   6  10
ATOM     10  O   UNL     1       9.760  -6.062  25.529  0.00  0.00    -0.503 OA
ATOM     11  H   UNL     1      10.196  -6.053  26.399  0.00  0.00    +0.292 HD
ENDBRANCH   6  10
ENDBRANCH   1   2
BRANCH   1  12
ATOM     12  O   UNL     1       7.837  -2.885  22.044  0.00  0.00    -0.385 OA
ATOM     13  H   UNL     1       8.771  -2.759  21.788  0.00  0.00    +0.210 HD
ENDBRANCH   1  12
BRANCH   1  14
ATOM     14  CA  UNL     1       8.677  -0.992  23.300  0.00  0.00    +0.194 C 
BRANCH  14  15
ATOM     15  N   UNL     1       9.357  -0.823  24.630  0.00  0.00    -0.316 NA
ATOM     16  H1  UNL     1       9.838   0.084  24.600  0.00  0.00    +0.119 HD
ATOM     17  H2  UNL     1       8.600  -0.642  25.307  0.00  0.00    +0.119 HD
ENDBRANCH  14  15
BRANCH  14  18
ATOM     18  C   UNL     1       9.766  -1.267  22.254  0.00  0.00    +0.325 C 
ATOM     19  OXT UNL     1      10.767  -1.943  22.436  0.00  0.00    -0.249 OA
BRANCH  18  20
ATOM     20  O   UNL     1       9.488  -0.647  21.078  0.00  0.00    -0.479 OA
ATOM     21  H   UNL     1       9.816   0.284  21.178  0.00  0.00    +0.295 HD
ENDBRANCH  18  20
ENDBRANCH  14  18
ENDBRANCH   1  14
TORSDOF 8
ENDMDL
MODEL 3
REMARK VINA RESULT:      -5.1      1.019      1.939
REMARK  Name = 
REMARK  8 active torsions:
REMARK  status: ('A' for Active; 'I' for Inactive)
REMARK    1  A    between atoms: N_1  and  CA_2
REMARK    2  A    between atoms: CA_2  and  C_4
REMARK    3  A    between atoms: CA_2  and  C_15
REMARK    4  A    between atoms: C_4  and  O_6
REMARK    5  A    between atoms: C_4  and  C_7
REMARK    6  A    between atoms: C_9  and  O_10
REMARK    7  A    between atoms: C_11  and  O_12
REMARK    8  A    between atoms: C_15  and  O_16
REMARK                            x       y       z     vdW  Elec       q    Type
REMARK                         _______ _______ _______ _____ _____    ______ ____
ROOT
ATOM      1  C   UNL     1       9.362  -2.670  23.748  0.00  0.00    +0.172 C 
ENDROOT
BRANCH   1   2
ATOM      2  C   UNL     1       9.568  -1.177  23.492  0.00  0.00    -0.013 A 
ATOM      3  C   UNL     1      10.311  -0.394  24.399  0.00  0.00    +0.010 A 
ATOM      4  C   UNL     1      10.569   0.957  24.141  0.00  0.00    +0.049 A 
ATOM      5  C   UNL     1      10.100   1.527  22.969  0.00  0.00    +0.158 A 
ATOM      6  C   UNL     1       9.368   0.775  22.060  0.00  0.00    +0.159 A 
ATOM      7  C   UNL     1       9.095  -0.565  22.316  0.00  0.00    +0.055 A 
BRANCH   5   8
ATOM      8  O   UNL     1      10.385   2.837  22.700  0.00  0.00    -0.503 OA
ATOM      9  H   UNL     1      10.218   3.302  23.544  0.00  0.00    +0.292 HD
ENDBRANCH   5   8
BRANCH   6  10
ATOM     10  O   UNL     1       8.946   1.390  20.914  0.00  0.00    -0.503 OA
ATOM     11  H   UNL     1       9.715   1.819  20.502  0.00  0.00    +0.292 HD
ENDBRANCH   6  10
ENDBRANCH   1   2
BRANCH   1  12
ATOM     12  O   UNL     1       8.269  -3.149  22.947  0.00  0.00    -0.385 OA
ATOM     13  H   UNL     1       8.492  -4.069  22.706  0.00  0.00    +0.210 HD
ENDBRANCH   1  12
BRANCH   1  14
ATOM     14  CA  UNL     1       9.065  -3.015  25.230  0.00  0.00    +0.194 C 
BRANCH  14  15
ATOM     15  N   UNL     1       7.639  -2.751  25.628  0.00  0.00    -0.316 NA
ATOM     16  H1  UNL     1       7.449  -1.766  25.403  0.00  0.00    +0.119 HD
ATOM     17  H2  UNL     1       7.061  -3.245  24.931  0.00  0.00    +0.119 HD
ENDBRANCH  14  15
BRANCH  14  18
ATOM     18  C   UNL     1       9.337  -4.508  25.450  0.00  0.00    +0.325 C 
ATOM     19  OXT UNL     1       9.355  -5.361  24.575  0.00  0.00    -0.249 OA
BRANCH  18  20
ATOM     20  O   UNL     1       9.552  -4.783  26.763  0.00  0.00    -0.479 OA
ATOM     21  H   UNL     1       8.835  -4.311  27.259  0.00  0.00    +0.295 HD
ENDBRANCH  18  20
ENDBRANCH  14  18
ENDBRANCH   1  14
TORSDOF 8
ENDMDL
MODEL 4
REMARK VINA RESULT:      -5.1      5.584      6.938
REMARK  Name = 
REMARK  8 active torsions:
REMARK  status: ('A' for Active; 'I' for Inactive)
REMARK    1  A    between atoms: N_1  and  CA_2
REMARK    2  A    between atoms: CA_2  and  C_4
REMARK    3  A    between atoms: CA_2  and  C_15
REMARK    4  A    between atoms: C_4  and  O_6
REMARK    5  A    between atoms: C_4  and  C_7
REMARK    6  A    between atoms: C_9  and  O_10
REMARK    7  A    between atoms: C_11  and  O_12
REMARK    8  A    between atoms: C_15  and  O_16
REMARK                            x       y       z     vdW  Elec       q    Type
REMARK                         _______ _______ _______ _____ _____    ______ ____
ROOT
ATOM      1  C   UNL     1       6.361  -5.448  27.401  0.00  0.00    +0.172 C 
ENDROOT
BRANCH   1   2
ATOM      2  C   UNL     1       6.027  -5.638  25.921  0.00  0.00    -0.013 A 
ATOM      3  C   UNL     1       6.825  -5.037  24.927  0.00  0.00    +0.010 A 
ATOM      4  C   UNL     1       6.575  -5.261  23.568  0.00  0.00    +0.049 A 
ATOM      5  C   UNL     1       5.536  -6.098  23.197  0.00  0.00    +0.158 A 
ATOM      6  C   UNL     1       4.737  -6.703  24.159  0.00  0.00    +0.159 A 
ATOM      7  C   UNL     1       4.971  -6.474  25.512  0.00  0.00    +0.055 A 
BRANCH   5   8
ATOM      8  O   UNL     1       5.315  -6.347  21.872  0.00  0.00    -0.503 OA
ATOM      9  H   UNL     1       5.769  -7.197  21.704  0.00  0.00    +0.292 HD
ENDBRANCH   5   8
BRANCH   6  10
ATOM     10  O   UNL     1       3.738  -7.531  23.731  0.00  0.00    -0.503 OA
ATOM     11  H   UNL     1       3.332  -7.132  22.942  0.00  0.00    +0.292 HD
ENDBRANCH   6  10
ENDBRANCH   1   2
BRANCH   1  12
ATOM     12  O   UNL     1       7.658  -6.004  27.676  0.00  0.00    -0.385 OA
ATOM     13  H   UNL     1       8.157  -5.956  26.838  0.00  0.00    +0.210 HD
ENDBRANCH   1  12
BRANCH   1  14
ATOM     14  CA  UNL     1       5.338  -6.106  28.361  0.00  0.00    +0.194 C 
BRANCH  14  15
ATOM     15  N   UNL     1       5.642  -7.549  28.656  0.00  0.00    -0.316 NA
ATOM     16  H1  UNL     1       6.437  -7.555  29.306  0.00  0.00    +0.119 HD
ATOM     17  H2  UNL     1       4.871  -7.877  29.258  0.00  0.00    +0.119 HD
ENDBRANCH  14  15
BRANCH  14  18
ATOM     18  C   UNL     1       5.360  -5.347  29.694  0.00  0.00    +0.325 C 
ATOM     19  OXT UNL     1       4.578  -4.468  30.021  0.00  0.00    -0.249 OA
BRANCH  18  20
ATOM     20  O   UNL     1       6.382  -5.767  30.485  0.00  0.00    -0.479 OA
ATOM     21  H   UNL     1       7.213  -5.452  30.045  0.00  0.00    +0.295 HD
ENDBRANCH  18  20
ENDBRANCH  14  18
ENDBRANCH   1  14
TORSDOF 8
ENDMDL
MODEL 5
REMARK VINA RESULT:      -5.0      1.860      2.149
REMARK  Name = 
REMARK  8 active torsions:
REMARK  status: ('A' for Active; 'I' for Inactive)
REMARK    1  A    between atoms: N_1  and  CA_2
REMARK    2  A    between atoms: CA_2  and  C_4
REMARK    3  A    between atoms: CA_2  and  C_15
REMARK    4  A    between atoms: C_4  and  O_6
REMARK    5  A    between atoms: C_4  and  C_7
REMARK    6  A    between atoms: C_9  and  O_10
REMARK    7  A    between atoms: C_11  and  O_12
REMARK    8  A    between atoms: C_15  and  O_16
REMARK                            x       y       z     vdW  Elec       q    Type
REMARK                         _______ _______ _______ _____ _____    ______ ____
ROOT
ATOM      1  C   UNL     1       8.975  -3.533  24.956  0.00  0.00    +0.172 C 
ENDROOT
BRANCH   1   2
ATOM      2  C   UNL     1       8.965  -2.323  24.021  0.00  0.00    -0.013 A 
ATOM      3  C   UNL     1      10.102  -2.006  23.253  0.00  0.00    +0.010 A 
ATOM      4  C   UNL     1      10.084  -0.945  22.340  0.00  0.00    +0.049 A 
ATOM      5  C   UNL     1       8.923  -0.207  22.180  0.00  0.00    +0.158 A 
ATOM      6  C   UNL     1       7.789  -0.501  22.926  0.00  0.00    +0.159 A 
ATOM      7  C   UNL     1       7.804  -1.546  23.846  0.00  0.00    +0.055 A 
BRANCH   5   8
ATOM      8  O   UNL     1       8.892   0.805  21.262  0.00  0.00    -0.503 OA
ATOM      9  H   UNL     1       9.670   1.356  21.481  0.00  0.00    +0.292 HD
ENDBRANCH   5   8
BRANCH   6  10
ATOM     10  O   UNL     1       6.669   0.253  22.712  0.00  0.00    -0.503 OA
ATOM     11  H   UNL     1       6.152  -0.169  22.005  0.00  0.00    +0.292 HD
ENDBRANCH   6  10
ENDBRANCH   1   2
BRANCH   1  12
ATOM     12  O   UNL     1      10.035  -4.427  24.574  0.00  0.00    -0.385 OA
ATOM     13  H   UNL     1       9.899  -4.619  23.626  0.00  0.00    +0.210 HD
ENDBRANCH   1  12
BRANCH   1  14
ATOM     14  CA  UNL     1       7.646  -4.332  24.958  0.00  0.00    +0.194 C 
BRANCH  14  15
ATOM     15  N   UNL     1       7.493  -5.235  23.766  0.00  0.00    -0.316 NA
ATOM     16  H1  UNL     1       6.483  -5.345  23.609  0.00  0.00    +0.119 HD
ATOM     17  H2  UNL     1       7.776  -4.669  22.952  0.00  0.00    +0.119 HD
ENDBRANCH  14  15
BRANCH  14  18
ATOM     18  C   UNL     1       7.606  -5.212  26.214  0.00  0.00    +0.325 C 
ATOM     19  OXT UNL     1       6.738  -6.029  26.478  0.00  0.00    -0.249 OA
BRANCH  18  20
ATOM     20  O   UNL     1       8.668  -4.963  27.024  0.00  0.00    -0.479 OA
ATOM     21  H   UNL     1       8.309  -4.446  27.791  0.00  0.00    +0.295 HD
ENDBRANCH  18  20
ENDBRANCH  14  18
ENDBRANCH   1  14
TORSDOF 8
ENDMDL
MODEL 6
REMARK VINA RESULT:      -5.0      1.850      2.692
REMARK  Name = 
REMARK  8 active torsions:
REMARK  status: ('A' for Active; 'I' for Inactive)
REMARK    1  A    between atoms: N_1  and  CA_2
REMARK    2  A    between atoms: CA_2  and  C_4
REMARK    3  A    between atoms: CA_2  and  C_15
REMARK    4  A    between atoms: C_4  and  O_6
REMARK    5  A    between atoms: C_4  and  C_7
REMARK    6  A    between atoms: C_9  and  O_10
REMARK    7  A    between atoms: C_11  and  O_12
REMARK    8  A    between atoms: C_15  and  O_16
REMARK                            x       y       z     vdW  Elec       q    Type
REMARK                         _______ _______ _______ _____ _____    ______ ____
ROOT
ATOM      1  C   UNL     1       8.474  -1.562  24.456  0.00  0.00    +0.172 C 
ENDROOT
BRANCH   1   2
ATOM      2  C   UNL     1       9.062  -0.218  24.023  0.00  0.00    -0.013 A 
ATOM      3  C   UNL     1      10.143   0.348  24.728  0.00  0.00    +0.010 A 
ATOM      4  C   UNL     1      10.738   1.541  24.300  0.00  0.00    +0.049 A 
ATOM      5  C   UNL     1      10.265   2.163  23.156  0.00  0.00    +0.158 A 
ATOM      6  C   UNL     1       9.202   1.623  22.444  0.00  0.00    +0.159 A 
ATOM      7  C   UNL     1       8.596   0.446  22.871  0.00  0.00    +0.055 A 
BRANCH   5   8
ATOM      8  O   UNL     1      10.870   3.307  22.717  0.00  0.00    -0.503 OA
ATOM      9  H   UNL     1      10.216   4.013  22.895  0.00  0.00    +0.292 HD
ENDBRANCH   5   8
BRANCH   6  10
ATOM     10  O   UNL     1       8.791   2.276  21.315  0.00  0.00    -0.503 OA
ATOM     11  H   UNL     1       8.861   1.657  20.568  0.00  0.00    +0.292 HD
ENDBRANCH   6  10
ENDBRANCH   1   2
BRANCH   1  12
ATOM     12  O   UNL     1       8.823  -1.819  25.827  0.00  0.00    -0.385 OA
ATOM     13  H   UNL     1       9.719  -1.451  25.953  0.00  0.00    +0.210 HD
ENDBRANCH   1  12
BRANCH   1  14
ATOM     14  CA  UNL     1       8.958  -2.760  23.600  0.00  0.00    +0.194 C 
BRANCH  14  15
ATOM     15  N   UNL     1      10.342  -2.574  23.044  0.00  0.00    -0.316 NA
ATOM     16  H1  UNL     1      10.847  -3.453  23.214  0.00  0.00    +0.119 HD
ATOM     17  H2  UNL     1      10.233  -2.585  22.019  0.00  0.00    +0.119 HD
ENDBRANCH  14  15
BRANCH  14  18
ATOM     18  C   UNL     1       8.977  -4.015  24.482  0.00  0.00    +0.325 C 
ATOM     19  OXT UNL     1       9.981  -4.606  24.849  0.00  0.00    -0.249 OA
BRANCH  18  20
ATOM     20  O   UNL     1       7.719  -4.410  24.807  0.00  0.00    -0.479 OA
ATOM     21  H   UNL     1       7.246  -4.545  23.945  0.00  0.00    +0.295 HD
ENDBRANCH  18  20
ENDBRANCH  14  18
ENDBRANCH   1  14
TORSDOF 8
ENDMDL
MODEL 7
REMARK VINA RESULT:      -5.0      1.445      1.876
REMARK  Name = 
REMARK  8 active torsions:
REMARK  status: ('A' for Active; 'I' for Inactive)
REMARK    1  A    between atoms: N_1  and  CA_2
REMARK    2  A    between atoms: CA_2  and  C_4
REMARK    3  A    between atoms: CA_2  and  C_15
REMARK    4  A    between atoms: C_4  and  O_6
REMARK    5  A    between atoms: C_4  and  C_7
REMARK    6  A    between atoms: C_9  and  O_10
REMARK    7  A    between atoms: C_11  and  O_12
REMARK    8  A    between atoms: C_15  and  O_16
REMARK                            x       y       z     vdW  Elec       q    Type
REMARK                         _______ _______ _______ _____ _____    ______ ____
ROOT
ATOM      1  C   UNL     1       9.113  -2.436  24.638  0.00  0.00    +0.172 C 
ENDROOT
BRANCH   1   2
ATOM      2  C   UNL     1       9.460  -1.198  23.811  0.00  0.00    -0.013 A 
ATOM      3  C   UNL     1       9.517  -1.272  22.405  0.00  0.00    +0.010 A 
ATOM      4  C   UNL     1       9.761  -0.132  21.631  0.00  0.00    +0.049 A 
ATOM      5  C   UNL     1       9.933   1.091  22.258  0.00  0.00    +0.158 A 
ATOM      6  C   UNL     1       9.880   1.189  23.642  0.00  0.00    +0.159 A 
ATOM      7  C   UNL     1       9.652   0.058  24.420  0.00  0.00    +0.055 A 
BRANCH   5   8
ATOM      8  O   UNL     1      10.134   2.211  21.502  0.00  0.00    -0.503 OA
ATOM      9  H   UNL     1      10.877   1.975  20.910  0.00  0.00    +0.292 HD
ENDBRANCH   5   8
BRANCH   6  10
ATOM     10  O   UNL     1      10.042   2.426  24.202  0.00  0.00    -0.503 OA
ATOM     11  H   UNL     1       9.166   2.843  24.271  0.00  0.00    +0.292 HD
ENDBRANCH   6  10
ENDBRANCH   1   2
BRANCH   1  12
ATOM     12  O   UNL     1       9.884  -3.557  24.172  0.00  0.00    -0.385 OA
ATOM     13  H   UNL     1       9.714  -3.622  23.213  0.00  0.00    +0.210 HD
ENDBRANCH   1  12
BRANCH   1  14
ATOM     14  CA  UNL     1       7.614  -2.823  24.585  0.00  0.00    +0.194 C 
BRANCH  14  15
ATOM     15  N   UNL     1       6.735  -1.728  24.046  0.00  0.00    -0.316 NA
ATOM     16  H1  UNL     1       5.805  -1.870  24.459  0.00  0.00    +0.119 HD
ATOM     17  H2  UNL     1       7.049  -0.865  24.516  0.00  0.00    +0.119 HD
ENDBRANCH  14  15
BRANCH  14  18
ATOM     18  C   UNL     1       7.455  -4.040  23.663  0.00  0.00    +0.325 C 
ATOM     19  OXT UNL     1       7.358  -3.998  22.446  0.00  0.00    -0.249 OA
BRANCH  18  20
ATOM     20  O   UNL     1       7.423  -5.197  24.374  0.00  0.00    -0.479 OA
ATOM     21  H   UNL     1       8.357  -5.531  24.392  0.00  0.00    +0.295 HD
ENDBRANCH  18  20
ENDBRANCH  14  18
ENDBRANCH   1  14
TORSDOF 8
ENDMDL
MODEL 8
REMARK VINA RESULT:      -5.0      3.081      5.756
REMARK  Name = 
REMARK  8 active torsions:
REMARK  status: ('A' for Active; 'I' for Inactive)
REMARK    1  A    between atoms: N_1  and  CA_2
REMARK    2  A    between atoms: CA_2  and  C_4
REMARK    3  A    between atoms: CA_2  and  C_15
REMARK    4  A    between atoms: C_4  and  O_6
REMARK    5  A    between atoms: C_4  and  C_7
REMARK    6  A    between atoms: C_9  and  O_10
REMARK    7  A    between atoms: C_11  and  O_12
REMARK    8  A    between atoms: C_15  and  O_16
REMARK                            x       y       z     vdW  Elec       q    Type
REMARK                         _______ _______ _______ _____ _____    ______ ____
ROOT
ATOM      1  C   UNL     1       7.962  -1.706  23.833  0.00  0.00    +0.172 C 
ENDROOT
BRANCH   1   2
ATOM      2  C   UNL     1       7.330  -3.069  23.551  0.00  0.00    -0.013 A 
ATOM      3  C   UNL     1       6.996  -3.934  24.612  0.00  0.00    +0.010 A 
ATOM      4  C   UNL     1       6.351  -5.153  24.374  0.00  0.00    +0.049 A 
ATOM      5  C   UNL     1       6.023  -5.506  23.076  0.00  0.00    +0.158 A 
ATOM      6  C   UNL     1       6.340  -4.669  22.014  0.00  0.00    +0.159 A 
ATOM      7  C   UNL     1       6.994  -3.462  22.241  0.00  0.00    +0.055 A 
BRANCH   5   8
ATOM      8  O   UNL     1       5.360  -6.678  22.847  0.00  0.00    -0.503 OA
ATOM      9  H   UNL     1       5.455  -7.180  23.681  0.00  0.00    +0.292 HD
ENDBRANCH   5   8
BRANCH   6  10
ATOM     10  O   UNL     1       5.976  -5.065  20.757  0.00  0.00    -0.503 OA
ATOM     11  H   UNL     1       5.553  -5.938  20.827  0.00  0.00    +0.292 HD
ENDBRANCH   6  10
ENDBRANCH   1   2
BRANCH   1  12
ATOM     12  O   UNL     1       7.636  -0.795  22.769  0.00  0.00    -0.385 OA
ATOM     13  H   UNL     1       6.662  -0.797  22.700  0.00  0.00    +0.210 HD
ENDBRANCH   1  12
BRANCH   1  14
ATOM     14  CA  UNL     1       9.505  -1.751  23.977  0.00  0.00    +0.194 C 
BRANCH  14  15
ATOM     15  N   UNL     1      10.070  -3.141  23.894  0.00  0.00    -0.316 NA
ATOM     16  H1  UNL     1      10.952  -3.069  23.372  0.00  0.00    +0.119 HD
ATOM     17  H2  UNL     1      10.402  -3.362  24.845  0.00  0.00    +0.119 HD
ENDBRANCH  14  15
BRANCH  14  18
ATOM     18  C   UNL     1      10.126  -0.930  22.839  0.00  0.00    +0.325 C 
ATOM     19  OXT UNL     1      10.443   0.248  22.908  0.00  0.00    -0.249 OA
BRANCH  18  20
ATOM     20  O   UNL     1      10.278  -1.678  21.716  0.00  0.00    -0.479 OA
ATOM     21  H   UNL     1      11.059  -2.266  21.885  0.00  0.00    +0.295 HD
ENDBRANCH  18  20
ENDBRANCH  14  18
ENDBRANCH   1  14
TORSDOF 8
ENDMDL
MODEL 9
REMARK VINA RESULT:      -4.9      3.607      6.570
REMARK  Name = 
REMARK  8 active torsions:
REMARK  status: ('A' for Active; 'I' for Inactive)
REMARK    1  A    between atoms: N_1  and  CA_2
REMARK    2  A    between atoms: CA_2  and  C_4
REMARK    3  A    between atoms: CA_2  and  C_15
REMARK    4  A    between atoms: C_4  and  O_6
REMARK    5  A    between atoms: C_4  and  C_7
REMARK    6  A    between atoms: C_9  and  O_10
REMARK    7  A    between atoms: C_11  and  O_12
REMARK    8  A    between atoms: C_15  and  O_16
REMARK                            x       y       z     vdW  Elec       q    Type
REMARK                         _______ _______ _______ _____ _____    ______ ____
ROOT
ATOM      1  C   UNL     1       8.372   3.313  23.353  0.00  0.00    +0.172 C 
ENDROOT
BRANCH   1   2
ATOM      2  C   UNL     1       8.796   1.898  22.960  0.00  0.00    -0.013 A 
ATOM      3  C   UNL     1       8.878   1.528  21.603  0.00  0.00    +0.010 A 
ATOM      4  C   UNL     1       9.334   0.259  21.227  0.00  0.00    +0.049 A 
ATOM      5  C   UNL     1       9.725  -0.639  22.206  0.00  0.00    +0.158 A 
ATOM      6  C   UNL     1       9.655  -0.297  23.550  0.00  0.00    +0.159 A 
ATOM      7  C   UNL     1       9.190   0.957  23.932  0.00  0.00    +0.055 A 
BRANCH   5   8
ATOM      8  O   UNL     1      10.206  -1.864  21.838  0.00  0.00    -0.503 OA
ATOM      9  H   UNL     1      11.099  -1.680  21.482  0.00  0.00    +0.292 HD
ENDBRANCH   5   8
BRANCH   6  10
ATOM     10  O   UNL     1      10.071  -1.221  24.468  0.00  0.00    -0.503 OA
ATOM     11  H   UNL     1      11.021  -1.085  24.623  0.00  0.00    +0.292 HD
ENDBRANCH   6  10
ENDBRANCH   1   2
BRANCH   1  12
ATOM     12  O   UNL     1       7.898   4.013  22.190  0.00  0.00    -0.385 OA
ATOM     13  H   UNL     1       6.946   4.175  22.340  0.00  0.00    +0.210 HD
ENDBRANCH   1  12
BRANCH   1  14
ATOM     14  CA  UNL     1       9.508   4.151  23.993  0.00  0.00    +0.194 C 
BRANCH  14  15
ATOM     15  N   UNL     1      10.834   3.978  23.306  0.00  0.00    -0.316 NA
ATOM     16  H1  UNL     1      11.166   4.921  23.066  0.00  0.00    +0.119 HD
ATOM     17  H2  UNL     1      11.496   3.700  24.047  0.00  0.00    +0.119 HD
ENDBRANCH  14  15
BRANCH  14  18
ATOM     18  C   UNL     1       9.131   5.636  23.904  0.00  0.00    +0.325 C 
ATOM     19  OXT UNL     1       8.266   6.187  24.567  0.00  0.00    -0.249 OA
BRANCH  18  20
ATOM     20  O   UNL     1       9.880   6.280  22.972  0.00  0.00    -0.479 OA
ATOM     21  H   UNL     1       9.235   6.721  22.362  0.00  0.00    +0.295 HD
ENDBRANCH  18  20
ENDBRANCH  14  18
ENDBRANCH   1  14
TORSDOF 8
ENDMDL
