MODEL 1
REMARK VINA RESULT:      -7.1      0.000      0.000
REMARK  Name = 
REMARK  6 active torsions:
REMARK  status: ('A' for Active; 'I' for Inactive)
REMARK    1  A    between atoms: C_2  and  C_3
REMARK    2  A    between atoms: C_2  and  N_11
REMARK    3  A    between atoms: C_2  and  C_24
REMARK    4  A    between atoms: C_3  and  C_4
REMARK    5  A    between atoms: C_12  and  C_14
REMARK    6  A    between atoms: C_29  and  O_30
REMARK                            x       y       z     vdW  Elec       q    Type
REMARK                         _______ _______ _______ _____ _____    ______ ____
ROOT
ATOM      1  C   UNL     1       6.948  -2.492  25.720  0.00  0.00    +0.164 C 
ENDROOT
BRANCH   1   2
ATOM      2  C   UNL     1       6.002  -2.784  24.529  0.00  0.00    +0.236 C 
ATOM      3  N   UNL     1       6.080  -4.014  23.881  0.00  0.00    -0.300 N 
ATOM      4  C   UNL     1       7.045  -5.076  24.166  0.00  0.00    +0.110 C 
ATOM      5  C   UNL     1       7.835  -5.461  22.922  0.00  0.00    +0.050 C 
ATOM      6  C   UNL     1       6.929  -5.764  21.733  0.00  0.00    +0.118 C 
ATOM      7  C   UNL     1       5.896  -4.660  21.509  0.00  0.00    +0.050 C 
ATOM      8  C   UNL     1       5.147  -4.305  22.791  0.00  0.00    +0.110 C 
ATOM      9  O   UNL     1       5.205  -1.911  24.161  0.00  0.00    -0.274 OA
BRANCH   6  10
ATOM     10  O   UNL     1       6.293  -7.030  21.904  0.00  0.00    -0.392 OA
ATOM     11  H   UNL     1       5.660  -7.179  21.183  0.00  0.00    +0.210 HD
ENDBRANCH   6  10
ENDBRANCH   1   2
BRANCH   1  12
ATOM     12  N   UNL     1       7.619  -1.212  25.467  0.00  0.00    -0.299 N 
ATOM     13  H   UNL     1       7.071  -0.378  25.653  0.00  0.00    +0.150 HD
ATOM     14  C   UNL     1       8.775  -1.126  24.736  0.00  0.00    +0.261 C 
ATOM     15  O   UNL     1       9.376  -2.127  24.350  0.00  0.00    -0.269 OA
BRANCH  14  16
ATOM     16  C   UNL     1       9.222   0.210  24.409  0.00  0.00    +0.103 A 
ATOM     17  N   UNL     1       8.452   1.312  24.720  0.00  0.00    -0.351 N 
ATOM     18  H   UNL     1       7.545   1.249  25.165  0.00  0.00    +0.166 HD
ATOM     19  C   UNL     1       9.109   2.479  24.414  0.00  0.00    +0.047 A 
ATOM     20  C   UNL     1       8.726   3.810  24.622  0.00  0.00    +0.027 A 
ATOM     21  C   UNL     1       9.627   4.808  24.233  0.00  0.00    +0.022 A 
ATOM     22  C   UNL     1      10.845   4.475  23.645  0.00  0.00    +0.042 A 
ATOM     23  C   UNL     1      11.202   3.141  23.418  0.00  0.00    +0.030 A 
ATOM     24 CL   UNL     1      11.942   5.731  23.204  0.00  0.00    -0.084 Cl
ATOM     25  C   UNL     1      10.319   2.122  23.827  0.00  0.00    +0.002 A 
ATOM     26  C   UNL     1      10.367   0.697  23.799  0.00  0.00    +0.041 A 
ENDBRANCH  14  16
ENDBRANCH   1  12
BRANCH   1  27
ATOM     27  C   UNL     1       6.271  -2.521  27.103  0.00  0.00    +0.067 C 
BRANCH  27  28
ATOM     28  C   UNL     1       5.662  -3.836  27.526  0.00  0.00    -0.045 A 
ATOM     29  C   UNL     1       4.278  -3.940  27.725  0.00  0.00    +0.006 A 
ATOM     30  C   UNL     1       3.719  -5.137  28.173  0.00  0.00    +0.038 A 
ATOM     31  C   UNL     1       4.538  -6.232  28.415  0.00  0.00    +0.123 A 
ATOM     32  F   UNL     1       4.002  -7.377  28.857  0.00  0.00    -0.205 F 
ATOM     33  C   UNL     1       5.911  -6.150  28.222  0.00  0.00    +0.038 A 
ATOM     34  C   UNL     1       6.477  -4.955  27.777  0.00  0.00    +0.006 A 
ENDBRANCH  27  28
ENDBRANCH   1  27
TORSDOF 6
ENDMDL
MODEL 2
REMARK VINA RESULT:      -7.1      2.521      3.519
REMARK  Name = 
REMARK  6 active torsions:
REMARK  status: ('A' for Active; 'I' for Inactive)
REMARK    1  A    between atoms: C_2  and  C_3
REMARK    2  A    between atoms: C_2  and  N_11
REMARK    3  A    between atoms: C_2  and  C_24
REMARK    4  A    between atoms: C_3  and  C_4
REMARK    5  A    between atoms: C_12  and  C_14
REMARK    6  A    between atoms: C_29  and  O_30
REMARK                            x       y       z     vdW  Elec       q    Type
REMARK                         _______ _______ _______ _____ _____    ______ ____
ROOT
ATOM      1  C   UNL     1       6.233  -1.513  24.111  0.00  0.00    +0.164 C 
ENDROOT
BRANCH   1   2
ATOM      2  C   UNL     1       6.733  -2.170  25.421  0.00  0.00    +0.236 C 
ATOM      3  N   UNL     1       7.832  -3.024  25.379  0.00  0.00    -0.300 N 
ATOM      4  C   UNL     1       8.549  -3.444  24.176  0.00  0.00    +0.110 C 
ATOM      5  C   UNL     1       8.586  -4.961  24.047  0.00  0.00    +0.050 C 
ATOM      6  C   UNL     1       9.084  -5.637  25.321  0.00  0.00    +0.118 C 
ATOM      7  C   UNL     1       8.352  -5.125  26.561  0.00  0.00    +0.050 C 
ATOM      8  C   UNL     1       8.334  -3.600  26.628  0.00  0.00    +0.110 C 
ATOM      9  O   UNL     1       6.137  -1.939  26.481  0.00  0.00    -0.274 OA
BRANCH   6  10
ATOM     10  O   UNL     1      10.494  -5.465  25.455  0.00  0.00    -0.392 OA
ATOM     11  H   UNL     1      10.879  -6.242  25.890  0.00  0.00    +0.210 HD
ENDBRANCH   6  10
ENDBRANCH   1   2
BRANCH   1  12
ATOM     12  N   UNL     1       7.157  -0.427  23.762  0.00  0.00    -0.299 N 
ATOM     13  H   UNL     1       8.069  -0.712  23.420  0.00  0.00    +0.150 HD
ATOM     14  C   UNL     1       6.944   0.866  24.160  0.00  0.00    +0.261 C 
ATOM     15  O   UNL     1       5.911   1.209  24.731  0.00  0.00    -0.269 OA
BRANCH  14  16
ATOM     16  C   UNL     1       8.024   1.794  23.907  0.00  0.00    +0.103 A 
ATOM     17  N   UNL     1       7.836   3.154  24.035  0.00  0.00    -0.351 N 
ATOM     18  H   UNL     1       6.949   3.572  24.287  0.00  0.00    +0.166 HD
ATOM     19  C   UNL     1       9.013   3.839  23.850  0.00  0.00    +0.047 A 
ATOM     20  C   UNL     1       9.285   5.209  23.952  0.00  0.00    +0.027 A 
ATOM     21  C   UNL     1      10.606   5.621  23.738  0.00  0.00    +0.022 A 
ATOM     22  C   UNL     1      11.596   4.695  23.417  0.00  0.00    +0.042 A 
ATOM     23  C   UNL     1      11.303   3.332  23.291  0.00  0.00    +0.030 A 
ATOM     24 CL   UNL     1      13.216   5.236  23.187  0.00  0.00    -0.084 Cl
ATOM     25  C   UNL     1       9.984   2.896  23.528  0.00  0.00    +0.002 A 
ATOM     26  C   UNL     1       9.347   1.619  23.536  0.00  0.00    +0.041 A 
ENDBRANCH  14  16
ENDBRANCH   1  12
BRANCH   1  27
ATOM     27  C   UNL     1       6.029  -2.490  22.937  0.00  0.00    +0.067 C 
BRANCH  27  28
ATOM     28  C   UNL     1       5.132  -3.677  23.198  0.00  0.00    -0.045 A 
ATOM     29  C   UNL     1       5.324  -4.874  22.495  0.00  0.00    +0.006 A 
ATOM     30  C   UNL     1       4.462  -5.953  22.690  0.00  0.00    +0.038 A 
ATOM     31  C   UNL     1       3.413  -5.841  23.594  0.00  0.00    +0.123 A 
ATOM     32  F   UNL     1       2.578  -6.872  23.772  0.00  0.00    -0.205 F 
ATOM     33  C   UNL     1       3.207  -4.664  24.303  0.00  0.00    +0.038 A 
ATOM     34  C   UNL     1       4.064  -3.581  24.109  0.00  0.00    +0.006 A 
ENDBRANCH  27  28
ENDBRANCH   1  27
TORSDOF 6
ENDMDL
MODEL 3
REMARK VINA RESULT:      -6.9      3.654      5.873
REMARK  Name = 
REMARK  6 active torsions:
REMARK  status: ('A' for Active; 'I' for Inactive)
REMARK    1  A    between atoms: C_2  and  C_3
REMARK    2  A    between atoms: C_2  and  N_11
REMARK    3  A    between atoms: C_2  and  C_24
REMARK    4  A    between atoms: C_3  and  C_4
REMARK    5  A    between atoms: C_12  and  C_14
REMARK    6  A    between atoms: C_29  and  O_30
REMARK                            x       y       z     vdW  Elec       q    Type
REMARK                         _______ _______ _______ _____ _____    ______ ____
ROOT
ATOM      1  C   UNL     1       9.049  -2.411  24.673  0.00  0.00    +0.164 C 
ENDROOT
BRANCH   1   2
ATOM      2  C   UNL     1       8.920  -1.919  23.211  0.00  0.00    +0.236 C 
ATOM      3  N   UNL     1       9.473  -0.692  22.853  0.00  0.00    -0.300 N 
ATOM      4  C   UNL     1      10.124   0.254  23.759  0.00  0.00    +0.110 C 
ATOM      5  C   UNL     1       9.467   1.627  23.700  0.00  0.00    +0.050 C 
ATOM      6  C   UNL     1       9.335   2.143  22.271  0.00  0.00    +0.118 C 
ATOM      7  C   UNL     1       8.707   1.102  21.345  0.00  0.00    +0.050 C 
ATOM      8  C   UNL     1       9.396  -0.256  21.457  0.00  0.00    +0.110 C 
ATOM      9  O   UNL     1       8.312  -2.616  22.388  0.00  0.00    -0.274 OA
BRANCH   6  10
ATOM     10  O   UNL     1      10.605   2.565  21.776  0.00  0.00    -0.392 OA
ATOM     11  H   UNL     1      10.820   3.442  22.131  0.00  0.00    +0.210 HD
ENDBRANCH   6  10
ENDBRANCH   1   2
BRANCH   1  12
ATOM     12  N   UNL     1       7.897  -1.905  25.428  0.00  0.00    -0.299 N 
ATOM     13  H   UNL     1       6.997  -1.968  24.962  0.00  0.00    +0.150 HD
ATOM     14  C   UNL     1       8.043  -1.116  26.539  0.00  0.00    +0.261 C 
ATOM     15  O   UNL     1       9.145  -0.884  27.031  0.00  0.00    -0.269 OA
BRANCH  14  16
ATOM     16  C   UNL     1       6.830  -0.538  27.071  0.00  0.00    +0.103 A 
ATOM     17  N   UNL     1       6.864   0.619  27.822  0.00  0.00    -0.351 N 
ATOM     18  H   UNL     1       7.721   1.106  28.055  0.00  0.00    +0.166 HD
ATOM     19  C   UNL     1       5.597   1.046  28.138  0.00  0.00    +0.047 A 
ATOM     20  C   UNL     1       5.175   2.193  28.821  0.00  0.00    +0.027 A 
ATOM     21  C   UNL     1       3.796   2.386  28.967  0.00  0.00    +0.022 A 
ATOM     22  C   UNL     1       2.891   1.454  28.464  0.00  0.00    +0.042 A 
ATOM     23  C   UNL     1       3.328   0.298  27.807  0.00  0.00    +0.030 A 
ATOM     24 CL   UNL     1       1.200   1.740  28.639  0.00  0.00    -0.084 Cl
ATOM     25  C   UNL     1       4.712   0.100  27.628  0.00  0.00    +0.002 A 
ATOM     26  C   UNL     1       5.496  -0.905  26.988  0.00  0.00    +0.041 A 
ENDBRANCH  14  16
ENDBRANCH   1  12
BRANCH   1  27
ATOM     27  C   UNL     1       9.209  -3.936  24.828  0.00  0.00    +0.067 C 
BRANCH  27  28
ATOM     28  C   UNL     1       8.042  -4.677  25.434  0.00  0.00    -0.045 A 
ATOM     29  C   UNL     1       6.950  -5.045  24.637  0.00  0.00    +0.006 A 
ATOM     30  C   UNL     1       5.843  -5.677  25.204  0.00  0.00    +0.038 A 
ATOM     31  C   UNL     1       5.830  -5.950  26.566  0.00  0.00    +0.123 A 
ATOM     32  F   UNL     1       4.763  -6.546  27.113  0.00  0.00    -0.205 F 
ATOM     33  C   UNL     1       6.903  -5.595  27.374  0.00  0.00    +0.038 A 
ATOM     34  C   UNL     1       8.011  -4.960  26.812  0.00  0.00    +0.006 A 
ENDBRANCH  27  28
ENDBRANCH   1  27
TORSDOF 6
ENDMDL
MODEL 4
REMARK VINA RESULT:      -6.8      2.815      4.479
REMARK  Name = 
REMARK  6 active torsions:
REMARK  status: ('A' for Active; 'I' for Inactive)
REMARK    1  A    between atoms: C_2  and  C_3
REMARK    2  A    between atoms: C_2  and  N_11
REMARK    3  A    between atoms: C_2  and  C_24
REMARK    4  A    between atoms: C_3  and  C_4
REMARK    5  A    between atoms: C_12  and  C_14
REMARK    6  A    between atoms: C_29  and  O_30
REMARK                            x       y       z     vdW  Elec       q    Type
REMARK                         _______ _______ _______ _____ _____    ______ ____
ROOT
ATOM      1  C   UNL     1       7.096  -1.827  24.793  0.00  0.00    +0.164 C 
ENDROOT
BRANCH   1   2
ATOM      2  C   UNL     1       6.510  -1.677  26.218  0.00  0.00    +0.236 C 
ATOM      3  N   UNL     1       5.405  -2.440  26.586  0.00  0.00    -0.300 N 
ATOM      4  C   UNL     1       4.663  -3.352  25.716  0.00  0.00    +0.110 C 
ATOM      5  C   UNL     1       3.183  -2.994  25.663  0.00  0.00    +0.050 C 
ATOM      6  C   UNL     1       2.575  -2.849  27.054  0.00  0.00    +0.118 C 
ATOM      7  C   UNL     1       3.414  -1.938  27.950  0.00  0.00    +0.050 C 
ATOM      8  C   UNL     1       4.888  -2.335  27.952  0.00  0.00    +0.110 C 
ATOM      9  O   UNL     1       7.022  -0.866  27.002  0.00  0.00    -0.274 OA
BRANCH   6  10
ATOM     10  O   UNL     1       2.397  -4.130  27.655  0.00  0.00    -0.392 OA
ATOM     11  H   UNL     1       3.130  -4.312  28.264  0.00  0.00    +0.210 HD
ENDBRANCH   6  10
ENDBRANCH   1   2
BRANCH   1  12
ATOM     12  N   UNL     1       7.964  -0.672  24.532  0.00  0.00    -0.299 N 
ATOM     13  H   UNL     1       8.617  -0.432  25.270  0.00  0.00    +0.150 HD
ATOM     14  C   UNL     1       7.710   0.216  23.520  0.00  0.00    +0.261 C 
ATOM     15  O   UNL     1       6.809   0.032  22.705  0.00  0.00    -0.269 OA
BRANCH  14  16
ATOM     16  C   UNL     1       8.536   1.403  23.496  0.00  0.00    +0.103 A 
ATOM     17  N   UNL     1       8.009   2.640  23.803  0.00  0.00    -0.351 N 
ATOM     18  H   UNL     1       7.036   2.788  24.038  0.00  0.00    +0.166 HD
ATOM     19  C   UNL     1       8.985   3.607  23.818  0.00  0.00    +0.047 A 
ATOM     20  C   UNL     1       8.903   4.967  24.140  0.00  0.00    +0.027 A 
ATOM     21  C   UNL     1      10.088   5.712  24.099  0.00  0.00    +0.022 A 
ATOM     22  C   UNL     1      11.291   5.113  23.731  0.00  0.00    +0.042 A 
ATOM     23  C   UNL     1      11.352   3.759  23.385  0.00  0.00    +0.030 A 
ATOM     24 CL   UNL     1      12.734   6.056  23.718  0.00  0.00    -0.084 Cl
ATOM     25  C   UNL     1      10.175   2.987  23.446  0.00  0.00    +0.002 A 
ATOM     26  C   UNL     1       9.876   1.612  23.215  0.00  0.00    +0.041 A 
ENDBRANCH  14  16
ENDBRANCH   1  12
BRANCH   1  27
ATOM     27  C   UNL     1       7.823  -3.160  24.532  0.00  0.00    +0.067 C 
BRANCH  27  28
ATOM     28  C   UNL     1       7.354  -3.960  23.341  0.00  0.00    -0.045 A 
ATOM     29  C   UNL     1       6.516  -3.373  22.383  0.00  0.00    +0.006 A 
ATOM     30  C   UNL     1       6.033  -4.125  21.312  0.00  0.00    +0.038 A 
ATOM     31  C   UNL     1       6.391  -5.461  21.193  0.00  0.00    +0.123 A 
ATOM     32  F   UNL     1       5.917  -6.187  20.172  0.00  0.00    -0.205 F 
ATOM     33  C   UNL     1       7.222  -6.062  22.131  0.00  0.00    +0.038 A 
ATOM     34  C   UNL     1       7.705  -5.316  23.205  0.00  0.00    +0.006 A 
ENDBRANCH  27  28
ENDBRANCH   1  27
TORSDOF 6
ENDMDL
MODEL 5
REMARK VINA RESULT:      -6.8      4.117      6.748
REMARK  Name = 
REMARK  6 active torsions:
REMARK  status: ('A' for Active; 'I' for Inactive)
REMARK    1  A    between atoms: C_2  and  C_3
REMARK    2  A    between atoms: C_2  and  N_11
REMARK    3  A    between atoms: C_2  and  C_24
REMARK    4  A    between atoms: C_3  and  C_4
REMARK    5  A    between atoms: C_12  and  C_14
REMARK    6  A    between atoms: C_29  and  O_30
REMARK                            x       y       z     vdW  Elec       q    Type
REMARK                         _______ _______ _______ _____ _____    ______ ____
ROOT
ATOM      1  C   UNL     1       8.389  -2.208  23.219  0.00  0.00    +0.164 C 
ENDROOT
BRANCH   1   2
ATOM      2  C   UNL     1       8.168  -3.711  23.517  0.00  0.00    +0.236 C 
ATOM      3  N   UNL     1       6.987  -4.322  23.104  0.00  0.00    -0.300 N 
ATOM      4  C   UNL     1       5.856  -3.657  22.456  0.00  0.00    +0.110 C 
ATOM      5  C   UNL     1       4.562  -3.876  23.229  0.00  0.00    +0.050 C 
ATOM      6  C   UNL     1       4.311  -5.350  23.530  0.00  0.00    +0.118 C 
ATOM      7  C   UNL     1       5.537  -6.021  24.148  0.00  0.00    +0.050 C 
ATOM      8  C   UNL     1       6.806  -5.756  23.340  0.00  0.00    +0.110 C 
ATOM      9  O   UNL     1       9.036  -4.341  24.136  0.00  0.00    -0.274 OA
BRANCH   6  10
ATOM     10  O   UNL     1       3.897  -6.034  22.349  0.00  0.00    -0.392 OA
ATOM     11  H   UNL     1       3.282  -6.748  22.582  0.00  0.00    +0.210 HD
ENDBRANCH   6  10
ENDBRANCH   1   2
BRANCH   1  12
ATOM     12  N   UNL     1       7.680  -1.430  24.241  0.00  0.00    -0.299 N 
ATOM     13  H   UNL     1       7.718  -1.799  25.186  0.00  0.00    +0.150 HD
ATOM     14  C   UNL     1       6.769  -0.459  23.917  0.00  0.00    +0.261 C 
ATOM     15  O   UNL     1       6.581  -0.107  22.754  0.00  0.00    -0.269 OA
BRANCH  14  16
ATOM     16  C   UNL     1       6.013   0.094  25.017  0.00  0.00    +0.103 A 
ATOM     17  N   UNL     1       5.881  -0.593  26.206  0.00  0.00    -0.351 N 
ATOM     18  H   UNL     1       6.280  -1.510  26.365  0.00  0.00    +0.166 HD
ATOM     19  C   UNL     1       5.213   0.156  27.144  0.00  0.00    +0.047 A 
ATOM     20  C   UNL     1       4.922  -0.127  28.484  0.00  0.00    +0.027 A 
ATOM     21  C   UNL     1       4.246   0.855  29.218  0.00  0.00    +0.022 A 
ATOM     22  C   UNL     1       3.866   2.054  28.619  0.00  0.00    +0.042 A 
ATOM     23  C   UNL     1       4.140   2.311  27.271  0.00  0.00    +0.030 A 
ATOM     24 CL   UNL     1       3.060   3.251  29.562  0.00  0.00    -0.084 Cl
ATOM     25  C   UNL     1       4.843   1.345  26.523  0.00  0.00    +0.002 A 
ATOM     26  C   UNL     1       5.321   1.284  25.181  0.00  0.00    +0.041 A 
ENDBRANCH  14  16
ENDBRANCH   1  12
BRANCH   1  27
ATOM     27  C   UNL     1       9.866  -1.786  23.100  0.00  0.00    +0.067 C 
BRANCH  27  28
ATOM     28  C   UNL     1      10.143  -0.301  23.105  0.00  0.00    -0.045 A 
ATOM     29  C   UNL     1      10.650   0.317  24.256  0.00  0.00    +0.006 A 
ATOM     30  C   UNL     1      10.852   1.697  24.284  0.00  0.00    +0.038 A 
ATOM     31  C   UNL     1      10.556   2.459  23.161  0.00  0.00    +0.123 A 
ATOM     32  F   UNL     1      10.738   3.786  23.192  0.00  0.00    -0.205 F 
ATOM     33  C   UNL     1      10.054   1.865  22.010  0.00  0.00    +0.038 A 
ATOM     34  C   UNL     1       9.848   0.486  21.977  0.00  0.00    +0.006 A 
ENDBRANCH  27  28
ENDBRANCH   1  27
TORSDOF 6
ENDMDL
MODEL 6
REMARK VINA RESULT:      -6.7      4.046      8.383
REMARK  Name = 
REMARK  6 active torsions:
REMARK  status: ('A' for Active; 'I' for Inactive)
REMARK    1  A    between atoms: C_2  and  C_3
REMARK    2  A    between atoms: C_2  and  N_11
REMARK    3  A    between atoms: C_2  and  C_24
REMARK    4  A    between atoms: C_3  and  C_4
REMARK    5  A    between atoms: C_12  and  C_14
REMARK    6  A    between atoms: C_29  and  O_30
REMARK                            x       y       z     vdW  Elec       q    Type
REMARK                         _______ _______ _______ _____ _____    ______ ____
ROOT
ATOM      1  C   UNL     1       8.383  -2.277  25.130  0.00  0.00    +0.164 C 
ENDROOT
BRANCH   1   2
ATOM      2  C   UNL     1       7.798  -0.873  24.841  0.00  0.00    +0.236 C 
ATOM      3  N   UNL     1       8.565   0.056  24.144  0.00  0.00    -0.300 N 
ATOM      4  C   UNL     1       9.947  -0.131  23.700  0.00  0.00    +0.110 C 
ATOM      5  C   UNL     1      10.860   0.963  24.238  0.00  0.00    +0.050 C 
ATOM      6  C   UNL     1      10.314   2.359  23.959  0.00  0.00    +0.118 C 
ATOM      7  C   UNL     1       8.851   2.493  24.381  0.00  0.00    +0.050 C 
ATOM      8  C   UNL     1       7.987   1.363  23.825  0.00  0.00    +0.110 C 
ATOM      9  O   UNL     1       6.663  -0.593  25.251  0.00  0.00    -0.274 OA
BRANCH   6  10
ATOM     10  O   UNL     1      10.479   2.691  22.582  0.00  0.00    -0.392 OA
ATOM     11  H   UNL     1       9.883   2.151  22.040  0.00  0.00    +0.210 HD
ENDBRANCH   6  10
ENDBRANCH   1   2
BRANCH   1  12
ATOM     12  N   UNL     1       7.352  -3.069  25.812  0.00  0.00    -0.299 N 
ATOM     13  H   UNL     1       6.405  -2.711  25.753  0.00  0.00    +0.150 HD
ATOM     14  C   UNL     1       7.665  -4.042  26.725  0.00  0.00    +0.261 C 
ATOM     15  O   UNL     1       8.827  -4.382  26.939  0.00  0.00    -0.269 OA
BRANCH  14  16
ATOM     16  C   UNL     1       6.553  -4.610  27.453  0.00  0.00    +0.103 A 
ATOM     17  N   UNL     1       5.351  -3.941  27.550  0.00  0.00    -0.351 N 
ATOM     18  H   UNL     1       5.189  -3.027  27.145  0.00  0.00    +0.166 HD
ATOM     19  C   UNL     1       4.407  -4.703  28.195  0.00  0.00    +0.047 A 
ATOM     20  C   UNL     1       3.055  -4.441  28.448  0.00  0.00    +0.027 A 
ATOM     21  C   UNL     1       2.319  -5.432  29.106  0.00  0.00    +0.022 A 
ATOM     22  C   UNL     1       2.925  -6.621  29.505  0.00  0.00    +0.042 A 
ATOM     23  C   UNL     1       4.284  -6.858  29.269  0.00  0.00    +0.030 A 
ATOM     24 CL   UNL     1       1.979  -7.831  30.288  0.00  0.00    -0.084 Cl
ATOM     25  C   UNL     1       5.036  -5.882  28.584  0.00  0.00    +0.002 A 
ATOM     26  C   UNL     1       6.390  -5.801  28.143  0.00  0.00    +0.041 A 
ENDBRANCH  14  16
ENDBRANCH   1  12
BRANCH   1  27
ATOM     27  C   UNL     1       8.944  -3.008  23.896  0.00  0.00    +0.067 C 
BRANCH  27  28
ATOM     28  C   UNL     1       7.968  -3.854  23.113  0.00  0.00    -0.045 A 
ATOM     29  C   UNL     1       7.996  -5.250  23.226  0.00  0.00    +0.006 A 
ATOM     30  C   UNL     1       7.137  -6.038  22.461  0.00  0.00    +0.038 A 
ATOM     31  C   UNL     1       6.243  -5.431  21.588  0.00  0.00    +0.123 A 
ATOM     32  F   UNL     1       5.425  -6.187  20.843  0.00  0.00    -0.205 F 
ATOM     33  C   UNL     1       6.197  -4.048  21.462  0.00  0.00    +0.038 A 
ATOM     34  C   UNL     1       7.057  -3.256  22.223  0.00  0.00    +0.006 A 
ENDBRANCH  27  28
ENDBRANCH   1  27
TORSDOF 6
ENDMDL
MODEL 7
REMARK VINA RESULT:      -6.7      3.122      5.084
REMARK  Name = 
REMARK  6 active torsions:
REMARK  status: ('A' for Active; 'I' for Inactive)
REMARK    1  A    between atoms: C_2  and  C_3
REMARK    2  A    between atoms: C_2  and  N_11
REMARK    3  A    between atoms: C_2  and  C_24
REMARK    4  A    between atoms: C_3  and  C_4
REMARK    5  A    between atoms: C_12  and  C_14
REMARK    6  A    between atoms: C_29  and  O_30
REMARK                            x       y       z     vdW  Elec       q    Type
REMARK                         _______ _______ _______ _____ _____    ______ ____
ROOT
ATOM      1  C   UNL     1       7.488  -1.769  24.549  0.00  0.00    +0.164 C 
ENDROOT
BRANCH   1   2
ATOM      2  C   UNL     1       6.953  -1.721  26.001  0.00  0.00    +0.236 C 
ATOM      3  N   UNL     1       5.900  -0.866  26.312  0.00  0.00    -0.300 N 
ATOM      4  C   UNL     1       5.266   0.084  25.399  0.00  0.00    +0.110 C 
ATOM      5  C   UNL     1       5.308   1.504  25.950  0.00  0.00    +0.050 C 
ATOM      6  C   UNL     1       4.777   1.584  27.378  0.00  0.00    +0.118 C 
ATOM      7  C   UNL     1       5.421   0.535  28.284  0.00  0.00    +0.050 C 
ATOM      8  C   UNL     1       5.363  -0.864  27.674  0.00  0.00    +0.110 C 
ATOM      9  O   UNL     1       7.484  -2.431  26.866  0.00  0.00    -0.274 OA
BRANCH   6  10
ATOM     10  O   UNL     1       3.356   1.463  27.388  0.00  0.00    -0.392 OA
ATOM     11  H   UNL     1       3.098   0.663  27.873  0.00  0.00    +0.210 HD
ENDBRANCH   6  10
ENDBRANCH   1   2
BRANCH   1  12
ATOM     12  N   UNL     1       8.326  -0.584  24.331  0.00  0.00    -0.299 N 
ATOM     13  H   UNL     1       8.929  -0.318  25.103  0.00  0.00    +0.150 HD
ATOM     14  C   UNL     1       8.096   0.293  23.303  0.00  0.00    +0.261 C 
ATOM     15  O   UNL     1       7.248   0.074  22.440  0.00  0.00    -0.269 OA
BRANCH  14  16
ATOM     16  C   UNL     1       8.877   1.509  23.320  0.00  0.00    +0.103 A 
ATOM     17  N   UNL     1       8.283   2.732  23.550  0.00  0.00    -0.351 N 
ATOM     18  H   UNL     1       7.288   2.848  23.698  0.00  0.00    +0.166 HD
ATOM     19  C   UNL     1       9.219   3.735  23.624  0.00  0.00    +0.047 A 
ATOM     20  C   UNL     1       9.061   5.098  23.904  0.00  0.00    +0.027 A 
ATOM     21  C   UNL     1      10.217   5.885  23.945  0.00  0.00    +0.022 A 
ATOM     22  C   UNL     1      11.468   5.325  23.695  0.00  0.00    +0.042 A 
ATOM     23  C   UNL     1      11.607   3.967  23.389  0.00  0.00    +0.030 A 
ATOM     24 CL   UNL     1      12.873   6.321  23.781  0.00  0.00    -0.084 Cl
ATOM     25  C   UNL     1      10.457   3.153  23.369  0.00  0.00    +0.002 A 
ATOM     26  C   UNL     1      10.229   1.762  23.148  0.00  0.00    +0.041 A 
ENDBRANCH  14  16
ENDBRANCH   1  12
BRANCH   1  27
ATOM     27  C   UNL     1       8.227  -3.069  24.176  0.00  0.00    +0.067 C 
BRANCH  27  28
ATOM     28  C   UNL     1       7.581  -3.930  23.118  0.00  0.00    -0.045 A 
ATOM     29  C   UNL     1       6.739  -3.354  22.156  0.00  0.00    +0.006 A 
ATOM     30  C   UNL     1       6.094  -4.153  21.214  0.00  0.00    +0.038 A 
ATOM     31  C   UNL     1       6.294  -5.528  21.224  0.00  0.00    +0.123 A 
ATOM     32  F   UNL     1       5.665  -6.297  20.326  0.00  0.00    -0.205 F 
ATOM     33  C   UNL     1       7.126  -6.118  22.167  0.00  0.00    +0.038 A 
ATOM     34  C   UNL     1       7.771  -5.324  23.114  0.00  0.00    +0.006 A 
ENDBRANCH  27  28
ENDBRANCH   1  27
TORSDOF 6
ENDMDL
MODEL 8
REMARK VINA RESULT:      -6.7      2.963      4.949
REMARK  Name = 
REMARK  6 active torsions:
REMARK  status: ('A' for Active; 'I' for Inactive)
REMARK    1  A    between atoms: C_2  and  C_3
REMARK    2  A    between atoms: C_2  and  N_11
REMARK    3  A    between atoms: C_2  and  C_24
REMARK    4  A    between atoms: C_3  and  C_4
REMARK    5  A    between atoms: C_12  and  C_14
REMARK    6  A    between atoms: C_29  and  O_30
REMARK                            x       y       z     vdW  Elec       q    Type
REMARK                         _______ _______ _______ _____ _____    ______ ____
ROOT
ATOM      1  C   UNL     1       5.893  -4.568  25.532  0.00  0.00    +0.164 C 
ENDROOT
BRANCH   1   2
ATOM      2  C   UNL     1       6.292  -4.974  26.972  0.00  0.00    +0.236 C 
ATOM      3  N   UNL     1       5.298  -5.311  27.887  0.00  0.00    -0.300 N 
ATOM      4  C   UNL     1       3.856  -5.250  27.649  0.00  0.00    +0.110 C 
ATOM      5  C   UNL     1       3.156  -4.372  28.679  0.00  0.00    +0.050 C 
ATOM      6  C   UNL     1       3.523  -4.755  30.109  0.00  0.00    +0.118 C 
ATOM      7  C   UNL     1       5.035  -4.867  30.298  0.00  0.00    +0.050 C 
ATOM      8  C   UNL     1       5.684  -5.746  29.230  0.00  0.00    +0.110 C 
ATOM      9  O   UNL     1       7.488  -4.975  27.292  0.00  0.00    -0.274 OA
BRANCH   6  10
ATOM     10  O   UNL     1       2.871  -5.968  30.481  0.00  0.00    -0.392 OA
ATOM     11  H   UNL     1       3.534  -6.638  30.715  0.00  0.00    +0.210 HD
ENDBRANCH   6  10
ENDBRANCH   1   2
BRANCH   1  12
ATOM     12  N   UNL     1       6.833  -3.540  25.070  0.00  0.00    -0.299 N 
ATOM     13  H   UNL     1       7.671  -3.422  25.629  0.00  0.00    +0.150 HD
ATOM     14  C   UNL     1       6.479  -2.590  24.149  0.00  0.00    +0.261 C 
ATOM     15  O   UNL     1       5.392  -2.615  23.574  0.00  0.00    -0.269 OA
BRANCH  14  16
ATOM     16  C   UNL     1       7.439  -1.533  23.927  0.00  0.00    +0.103 A 
ATOM     17  N   UNL     1       7.837  -1.191  22.651  0.00  0.00    -0.351 N 
ATOM     18  H   UNL     1       7.502  -1.661  21.819  0.00  0.00    +0.166 HD
ATOM     19  C   UNL     1       8.672  -0.100  22.665  0.00  0.00    +0.047 A 
ATOM     20  C   UNL     1       9.248   0.609  21.604  0.00  0.00    +0.027 A 
ATOM     21  C   UNL     1      10.042   1.717  21.924  0.00  0.00    +0.022 A 
ATOM     22  C   UNL     1      10.257   2.076  23.253  0.00  0.00    +0.042 A 
ATOM     23  C   UNL     1       9.697   1.342  24.304  0.00  0.00    +0.030 A 
ATOM     24 CL   UNL     1      11.217   3.463  23.608  0.00  0.00    -0.084 Cl
ATOM     25  C   UNL     1       8.873   0.239  24.000  0.00  0.00    +0.002 A 
ATOM     26  C   UNL     1       8.122  -0.685  24.785  0.00  0.00    +0.041 A 
ENDBRANCH  14  16
ENDBRANCH   1  12
BRANCH   1  27
ATOM     27  C   UNL     1       5.791  -5.740  24.537  0.00  0.00    +0.067 C 
BRANCH  27  28
ATOM     28  C   UNL     1       4.400  -6.234  24.220  0.00  0.00    -0.045 A 
ATOM     29  C   UNL     1       3.592  -5.533  23.314  0.00  0.00    +0.006 A 
ATOM     30  C   UNL     1       2.285  -5.953  23.063  0.00  0.00    +0.038 A 
ATOM     31  C   UNL     1       1.787  -7.076  23.710  0.00  0.00    +0.123 A 
ATOM     32  F   UNL     1       0.529  -7.472  23.479  0.00  0.00    -0.205 F 
ATOM     33  C   UNL     1       2.572  -7.786  24.610  0.00  0.00    +0.038 A 
ATOM     34  C   UNL     1       3.878  -7.369  24.867  0.00  0.00    +0.006 A 
ENDBRANCH  27  28
ENDBRANCH   1  27
TORSDOF 6
ENDMDL
MODEL 9
REMARK VINA RESULT:      -6.4      2.914      5.432
REMARK  Name = 
REMARK  6 active torsions:
REMARK  status: ('A' for Active; 'I' for Inactive)
REMARK    1  A    between atoms: C_2  and  C_3
REMARK    2  A    between atoms: C_2  and  N_11
REMARK    3  A    between atoms: C_2  and  C_24
REMARK    4  A    between atoms: C_3  and  C_4
REMARK    5  A    between atoms: C_12  and  C_14
REMARK    6  A    between atoms: C_29  and  O_30
REMARK                            x       y       z     vdW  Elec       q    Type
REMARK                         _______ _______ _______ _____ _____    ______ ____
ROOT
ATOM      1  C   UNL     1       5.735  -4.091  26.310  0.00  0.00    +0.164 C 
ENDROOT
BRANCH   1   2
ATOM      2  C   UNL     1       5.446  -4.256  27.822  0.00  0.00    +0.236 C 
ATOM      3  N   UNL     1       4.267  -3.740  28.352  0.00  0.00    -0.300 N 
ATOM      4  C   UNL     1       3.264  -2.963  27.623  0.00  0.00    +0.110 C 
ATOM      5  C   UNL     1       3.014  -1.613  28.282  0.00  0.00    +0.050 C 
ATOM      6  C   UNL     1       2.717  -1.745  29.773  0.00  0.00    +0.118 C 
ATOM      7  C   UNL     1       3.753  -2.614  30.485  0.00  0.00    +0.050 C 
ATOM      8  C   UNL     1       3.973  -3.946  29.772  0.00  0.00    +0.110 C 
ATOM      9  O   UNL     1       6.278  -4.828  28.539  0.00  0.00    -0.274 OA
BRANCH   6  10
ATOM     10  O   UNL     1       1.400  -2.255  29.973  0.00  0.00    -0.392 OA
ATOM     11  H   UNL     1       0.788  -1.837  29.348  0.00  0.00    +0.210 HD
ENDBRANCH   6  10
ENDBRANCH   1   2
BRANCH   1  12
ATOM     12  N   UNL     1       6.342  -2.771  26.103  0.00  0.00    -0.299 N 
ATOM     13  H   UNL     1       5.756  -2.078  25.648  0.00  0.00    +0.150 HD
ATOM     14  C   UNL     1       7.692  -2.564  26.215  0.00  0.00    +0.261 C 
ATOM     15  O   UNL     1       8.454  -3.445  26.607  0.00  0.00    -0.269 OA
BRANCH  14  16
ATOM     16  C   UNL     1       8.171  -1.264  25.804  0.00  0.00    +0.103 A 
ATOM     17  N   UNL     1       9.395  -1.122  25.183  0.00  0.00    -0.351 N 
ATOM     18  H   UNL     1      10.020  -1.897  25.001  0.00  0.00    +0.166 HD
ATOM     19  C   UNL     1       9.605   0.177  24.788  0.00  0.00    +0.047 A 
ATOM     20  C   UNL     1      10.670   0.743  24.075  0.00  0.00    +0.027 A 
ATOM     21  C   UNL     1      10.595   2.110  23.782  0.00  0.00    +0.022 A 
ATOM     22  C   UNL     1       9.508   2.869  24.207  0.00  0.00    +0.042 A 
ATOM     23  C   UNL     1       8.464   2.296  24.942  0.00  0.00    +0.030 A 
ATOM     24 CL   UNL     1       9.438   4.544  23.803  0.00  0.00    -0.084 Cl
ATOM     25  C   UNL     1       8.509   0.916  25.223  0.00  0.00    +0.002 A 
ATOM     26  C   UNL     1       7.630   0.009  25.887  0.00  0.00    +0.041 A 
ENDBRANCH  14  16
ENDBRANCH   1  12
BRANCH   1  27
ATOM     27  C   UNL     1       6.584  -5.216  25.689  0.00  0.00    +0.067 C 
BRANCH  27  28
ATOM     28  C   UNL     1       6.445  -5.419  24.199  0.00  0.00    -0.045 A 
ATOM     29  C   UNL     1       7.544  -5.213  23.354  0.00  0.00    +0.006 A 
ATOM     30  C   UNL     1       7.405  -5.341  21.972  0.00  0.00    +0.038 A 
ATOM     31  C   UNL     1       6.172  -5.685  21.433  0.00  0.00    +0.123 A 
ATOM     32  F   UNL     1       6.035  -5.796  20.106  0.00  0.00    -0.205 F 
ATOM     33  C   UNL     1       5.071  -5.896  22.254  0.00  0.00    +0.038 A 
ATOM     34  C   UNL     1       5.203  -5.765  23.636  0.00  0.00    +0.006 A 
ENDBRANCH  27  28
ENDBRANCH   1  27
TORSDOF 6
ENDMDL
