MODEL 1
REMARK VINA RESULT:      -7.4      0.000      0.000
REMARK  Name = 
REMARK  7 active torsions:
REMARK  status: ('A' for Active; 'I' for Inactive)
REMARK    1  A    between atoms: C_2  and  N_25
REMARK    2  A    between atoms: N_4  and  C_5
REMARK    3  A    between atoms: C_9  and  O_10
REMARK    4  A    between atoms: O_10  and  C_11
REMARK    5  A    between atoms: C_19  and  S_21
REMARK    6  A    between atoms: S_21  and  N_22
REMARK    7  A    between atoms: N_25  and  C_26
REMARK                            x       y       z     vdW  Elec       q    Type
REMARK                         _______ _______ _______ _____ _____    ______ ____
ROOT
ATOM      1  C   UNL     1       9.173  -4.490  25.071  0.00  0.00    +0.105 C 
ATOM      2  C   UNL     1       8.005  -4.397  26.024  0.00  0.00    +0.007 A 
ATOM      3  C   UNL     1       7.552  -5.384  26.959  0.00  0.00    +0.043 A 
ATOM      4  C   UNL     1       6.418  -4.982  27.643  0.00  0.00    +0.144 A 
ATOM      5  S   UNL     1       5.936  -3.400  27.198  0.00  0.00    -0.048 S 
ATOM      6  C   UNL     1       7.204  -3.275  26.085  0.00  0.00    +0.152 A 
ATOM      7  S   UNL     1       7.423  -1.754  25.213  0.00  0.00    +0.081 S 
ATOM      8  O   UNL     1       6.171  -1.474  24.551  0.00  0.00    -0.149 OA
ATOM      9  O   UNL     1       8.017  -0.878  26.201  0.00  0.00    -0.149 OA
ATOM     10  N   UNL     1       8.611  -2.156  24.031  0.00  0.00    -0.201 N 
ATOM     11  C   UNL     1       9.679  -3.112  24.513  0.00  0.00    +0.155 C 
ENDROOT
BRANCH  10  12
ATOM     12  C   UNL     1       9.104  -0.973  23.355  0.00  0.00    +0.055 A 
ATOM     13  C   UNL     1       9.841   0.005  24.041  0.00  0.00    +0.070 A 
ATOM     14  C   UNL     1      10.292   1.150  23.383  0.00  0.00    +0.122 A 
ATOM     15  C   UNL     1       9.949   1.343  22.044  0.00  0.00    +0.046 A 
ATOM     16  C   UNL     1       9.158   0.407  21.373  0.00  0.00    +0.005 A 
ATOM     17  C   UNL     1       8.731  -0.749  22.029  0.00  0.00    +0.025 A 
BRANCH  14  18
ATOM     18  O   UNL     1      11.062   2.136  23.935  0.00  0.00    -0.495 OA
ATOM     19  C   UNL     1      10.864   3.459  23.449  0.00  0.00    +0.277 C 
ENDBRANCH  14  18
ENDBRANCH  10  12
BRANCH   1  20
ATOM     20  N   UNL     1       8.892  -5.520  24.060  0.00  0.00    -0.311 NA
ATOM     21  H   UNL     1       8.816  -6.430  24.515  0.00  0.00    +0.122 HD
ATOM     22  C   UNL     1       7.704  -5.295  23.249  0.00  0.00    +0.101 C 
ENDBRANCH   1  20
BRANCH   4  23
ATOM     23  S   UNL     1       5.420  -5.775  28.881  0.00  0.00    +0.062 S 
ATOM     24  O   UNL     1       4.083  -5.303  28.626  0.00  0.00    -0.153 OA
ATOM     25  O   UNL     1       6.113  -5.577  30.130  0.00  0.00    -0.153 OA
BRANCH  23  26
ATOM     26  N   UNL     1       5.441  -7.419  28.530  0.00  0.00    -0.203 NA
ATOM     27  H   UNL     1       5.089  -7.984  29.299  0.00  0.00    +0.144 HD
ATOM     28  H   UNL     1       5.036  -7.624  27.617  0.00  0.00    +0.144 HD
ENDBRANCH  23  26
ENDBRANCH   4  23
TORSDOF 5
ENDMDL
MODEL 2
REMARK VINA RESULT:      -7.2      1.388      1.555
REMARK  Name = 
REMARK  7 active torsions:
REMARK  status: ('A' for Active; 'I' for Inactive)
REMARK    1  A    between atoms: C_2  and  N_25
REMARK    2  A    between atoms: N_4  and  C_5
REMARK    3  A    between atoms: C_9  and  O_10
REMARK    4  A    between atoms: O_10  and  C_11
REMARK    5  A    between atoms: C_19  and  S_21
REMARK    6  A    between atoms: S_21  and  N_22
REMARK    7  A    between atoms: N_25  and  C_26
REMARK                            x       y       z     vdW  Elec       q    Type
REMARK                         _______ _______ _______ _____ _____    ______ ____
ROOT
ATOM      1  C   UNL     1       8.888  -4.222  24.875  0.00  0.00    +0.105 C 
ATOM      2  C   UNL     1       7.788  -4.249  25.910  0.00  0.00    +0.007 A 
ATOM      3  C   UNL     1       7.491  -5.289  26.851  0.00  0.00    +0.043 A 
ATOM      4  C   UNL     1       6.380  -5.000  27.623  0.00  0.00    +0.144 A 
ATOM      5  S   UNL     1       5.731  -3.459  27.251  0.00  0.00    -0.048 S 
ATOM      6  C   UNL     1       6.900  -3.203  26.055  0.00  0.00    +0.152 A 
ATOM      7  S   UNL     1       6.922  -1.654  25.205  0.00  0.00    +0.081 S 
ATOM      8  O   UNL     1       5.606  -1.473  24.641  0.00  0.00    -0.149 OA
ATOM      9  O   UNL     1       7.508  -0.747  26.169  0.00  0.00    -0.149 OA
ATOM     10  N   UNL     1       8.052  -1.929  23.933  0.00  0.00    -0.201 N 
ATOM     11  C   UNL     1       9.231  -2.795  24.315  0.00  0.00    +0.155 C 
ENDROOT
BRANCH  10  12
ATOM     12  C   UNL     1       8.390  -0.695  23.252  0.00  0.00    +0.055 A 
ATOM     13  C   UNL     1       7.398   0.218  22.860  0.00  0.00    +0.070 A 
ATOM     14  C   UNL     1       7.735   1.391  22.186  0.00  0.00    +0.122 A 
ATOM     15  C   UNL     1       9.071   1.621  21.850  0.00  0.00    +0.046 A 
ATOM     16  C   UNL     1      10.055   0.686  22.177  0.00  0.00    +0.005 A 
ATOM     17  C   UNL     1       9.715  -0.475  22.873  0.00  0.00    +0.025 A 
BRANCH  14  18
ATOM     18  O   UNL     1       6.862   2.373  21.807  0.00  0.00    -0.495 OA
ATOM     19  C   UNL     1       7.161   3.700  22.227  0.00  0.00    +0.277 C 
ENDBRANCH  14  18
ENDBRANCH  10  12
BRANCH   1  20
ATOM     20  N   UNL     1       8.624  -5.255  23.862  0.00  0.00    -0.311 NA
ATOM     21  H   UNL     1       8.750  -6.178  24.278  0.00  0.00    +0.122 HD
ATOM     22  C   UNL     1       7.314  -5.194  23.230  0.00  0.00    +0.101 C 
ENDBRANCH   1  20
BRANCH   4  23
ATOM     23  S   UNL     1       5.547  -5.900  28.909  0.00  0.00    +0.062 S 
ATOM     24  O   UNL     1       4.218  -5.345  28.937  0.00  0.00    -0.153 OA
ATOM     25  O   UNL     1       6.442  -5.887  30.040  0.00  0.00    -0.153 OA
BRANCH  23  26
ATOM     26  N   UNL     1       5.411  -7.486  28.370  0.00  0.00    -0.203 NA
ATOM     27  H   UNL     1       5.970  -7.662  27.538  0.00  0.00    +0.144 HD
ATOM     28  H   UNL     1       5.527  -8.162  29.124  0.00  0.00    +0.144 HD
ENDBRANCH  23  26
ENDBRANCH   4  23
TORSDOF 5
ENDMDL
MODEL 3
REMARK VINA RESULT:      -7.2      2.318      2.623
REMARK  Name = 
REMARK  7 active torsions:
REMARK  status: ('A' for Active; 'I' for Inactive)
REMARK    1  A    between atoms: C_2  and  N_25
REMARK    2  A    between atoms: N_4  and  C_5
REMARK    3  A    between atoms: C_9  and  O_10
REMARK    4  A    between atoms: O_10  and  C_11
REMARK    5  A    between atoms: C_19  and  S_21
REMARK    6  A    between atoms: S_21  and  N_22
REMARK    7  A    between atoms: N_25  and  C_26
REMARK                            x       y       z     vdW  Elec       q    Type
REMARK                         _______ _______ _______ _____ _____    ______ ____
ROOT
ATOM      1  C   UNL     1       6.994  -4.169  22.607  0.00  0.00    +0.105 C 
ATOM      2  C   UNL     1       6.306  -4.354  23.938  0.00  0.00    +0.007 A 
ATOM      3  C   UNL     1       5.798  -5.569  24.504  0.00  0.00    +0.043 A 
ATOM      4  C   UNL     1       5.183  -5.364  25.728  0.00  0.00    +0.144 A 
ATOM      5  S   UNL     1       5.266  -3.724  26.213  0.00  0.00    -0.048 S 
ATOM      6  C   UNL     1       6.080  -3.295  24.794  0.00  0.00    +0.152 A 
ATOM      7  S   UNL     1       6.618  -1.624  24.594  0.00  0.00    +0.081 S 
ATOM      8  O   UNL     1       5.448  -0.792  24.750  0.00  0.00    -0.149 OA
ATOM      9  O   UNL     1       7.780  -1.536  25.454  0.00  0.00    -0.149 OA
ATOM     10  N   UNL     1       7.131  -1.578  22.950  0.00  0.00    -0.201 N 
ATOM     11  C   UNL     1       7.817  -2.838  22.471  0.00  0.00    +0.155 C 
ENDROOT
BRANCH  10  12
ATOM     12  C   UNL     1       7.830  -0.345  22.648  0.00  0.00    +0.055 A 
ATOM     13  C   UNL     1       7.137   0.867  22.494  0.00  0.00    +0.070 A 
ATOM     14  C   UNL     1       7.819   2.043  22.183  0.00  0.00    +0.122 A 
ATOM     15  C   UNL     1       9.197   1.991  21.966  0.00  0.00    +0.046 A 
ATOM     16  C   UNL     1       9.883   0.778  22.050  0.00  0.00    +0.005 A 
ATOM     17  C   UNL     1       9.199  -0.392  22.387  0.00  0.00    +0.025 A 
BRANCH  14  18
ATOM     18  O   UNL     1       7.257   3.284  22.065  0.00  0.00    -0.495 OA
ATOM     19  C   UNL     1       5.871   3.396  22.367  0.00  0.00    +0.277 C 
ENDBRANCH  14  18
ENDBRANCH  10  12
BRANCH   1  20
ATOM     20  N   UNL     1       6.035  -4.436  21.525  0.00  0.00    -0.311 NA
ATOM     21  H   UNL     1       6.080  -3.683  20.838  0.00  0.00    +0.122 HD
ATOM     22  C   UNL     1       6.198  -5.711  20.842  0.00  0.00    +0.101 C 
ENDBRANCH   1  20
BRANCH   4  23
ATOM     23  S   UNL     1       4.373  -6.467  26.861  0.00  0.00    +0.062 S 
ATOM     24  O   UNL     1       3.341  -5.667  27.470  0.00  0.00    -0.153 OA
ATOM     25  O   UNL     1       5.428  -7.111  27.604  0.00  0.00    -0.153 OA
BRANCH  23  26
ATOM     26  N   UNL     1       3.607  -7.635  25.925  0.00  0.00    -0.203 NA
ATOM     27  H   UNL     1       2.982  -7.228  25.233  0.00  0.00    +0.144 HD
ATOM     28  H   UNL     1       4.258  -8.333  25.568  0.00  0.00    +0.144 HD
ENDBRANCH  23  26
ENDBRANCH   4  23
TORSDOF 5
ENDMDL
MODEL 4
REMARK VINA RESULT:      -7.2      3.162      4.737
REMARK  Name = 
REMARK  7 active torsions:
REMARK  status: ('A' for Active; 'I' for Inactive)
REMARK    1  A    between atoms: C_2  and  N_25
REMARK    2  A    between atoms: N_4  and  C_5
REMARK    3  A    between atoms: C_9  and  O_10
REMARK    4  A    between atoms: O_10  and  C_11
REMARK    5  A    between atoms: C_19  and  S_21
REMARK    6  A    between atoms: S_21  and  N_22
REMARK    7  A    between atoms: N_25  and  C_26
REMARK                            x       y       z     vdW  Elec       q    Type
REMARK                         _______ _______ _______ _____ _____    ______ ____
ROOT
ATOM      1  C   UNL     1       7.389   0.019  26.473  0.00  0.00    +0.105 C 
ATOM      2  C   UNL     1       7.991  -1.167  25.757  0.00  0.00    +0.007 A 
ATOM      3  C   UNL     1       7.845  -2.555  26.079  0.00  0.00    +0.043 A 
ATOM      4  C   UNL     1       8.577  -3.373  25.235  0.00  0.00    +0.144 A 
ATOM      5  S   UNL     1       9.391  -2.472  24.028  0.00  0.00    -0.048 S 
ATOM      6  C   UNL     1       8.800  -1.014  24.650  0.00  0.00    +0.152 A 
ATOM      7  S   UNL     1       9.187   0.490  23.805  0.00  0.00    +0.081 S 
ATOM      8  O   UNL     1      10.626   0.553  23.712  0.00  0.00    -0.149 OA
ATOM      9  O   UNL     1       8.313   0.465  22.651  0.00  0.00    -0.149 OA
ATOM     10  N   UNL     1       8.636   1.700  24.902  0.00  0.00    -0.201 N 
ATOM     11  C   UNL     1       7.362   1.349  25.636  0.00  0.00    +0.155 C 
ENDROOT
BRANCH  10  12
ATOM     12  C   UNL     1       8.651   3.013  24.289  0.00  0.00    +0.055 A 
ATOM     13  C   UNL     1       9.811   3.804  24.286  0.00  0.00    +0.070 A 
ATOM     14  C   UNL     1       9.806   5.075  23.713  0.00  0.00    +0.122 A 
ATOM     15  C   UNL     1       8.613   5.580  23.193  0.00  0.00    +0.046 A 
ATOM     16  C   UNL     1       7.439   4.827  23.253  0.00  0.00    +0.005 A 
ATOM     17  C   UNL     1       7.455   3.545  23.806  0.00  0.00    +0.025 A 
BRANCH  14  18
ATOM     18  O   UNL     1      10.887   5.905  23.604  0.00  0.00    -0.495 OA
ATOM     19  C   UNL     1      12.154   5.292  23.396  0.00  0.00    +0.277 C 
ENDBRANCH  14  18
ENDBRANCH  10  12
BRANCH   1  20
ATOM     20  N   UNL     1       7.980   0.125  27.815  0.00  0.00    -0.311 NA
ATOM     21  H   UNL     1       8.940   0.461  27.737  0.00  0.00    +0.122 HD
ATOM     22  C   UNL     1       7.257   0.972  28.753  0.00  0.00    +0.101 C 
ENDBRANCH   1  20
BRANCH   4  23
ATOM     23  S   UNL     1       8.794  -5.135  25.164  0.00  0.00    +0.062 S 
ATOM     24  O   UNL     1       8.520  -5.479  23.792  0.00  0.00    -0.153 OA
ATOM     25  O   UNL     1       8.056  -5.667  26.283  0.00  0.00    -0.153 OA
BRANCH  23  26
ATOM     26  N   UNL     1      10.427  -5.426  25.431  0.00  0.00    -0.203 NA
ATOM     27  H   UNL     1      10.586  -6.256  25.998  0.00  0.00    +0.144 HD
ATOM     28  H   UNL     1      10.976  -5.372  24.573  0.00  0.00    +0.144 HD
ENDBRANCH  23  26
ENDBRANCH   4  23
TORSDOF 5
ENDMDL
MODEL 5
REMARK VINA RESULT:      -7.1      3.211      4.940
REMARK  Name = 
REMARK  7 active torsions:
REMARK  status: ('A' for Active; 'I' for Inactive)
REMARK    1  A    between atoms: C_2  and  N_25
REMARK    2  A    between atoms: N_4  and  C_5
REMARK    3  A    between atoms: C_9  and  O_10
REMARK    4  A    between atoms: O_10  and  C_11
REMARK    5  A    between atoms: C_19  and  S_21
REMARK    6  A    between atoms: S_21  and  N_22
REMARK    7  A    between atoms: N_25  and  C_26
REMARK                            x       y       z     vdW  Elec       q    Type
REMARK                         _______ _______ _______ _____ _____    ______ ____
ROOT
ATOM      1  C   UNL     1       6.617   0.312  23.363  0.00  0.00    +0.105 C 
ATOM      2  C   UNL     1       7.389  -0.963  23.605  0.00  0.00    +0.007 A 
ATOM      3  C   UNL     1       6.903  -2.310  23.548  0.00  0.00    +0.043 A 
ATOM      4  C   UNL     1       7.878  -3.237  23.873  0.00  0.00    +0.144 A 
ATOM      5  S   UNL     1       9.384  -2.488  24.193  0.00  0.00    -0.048 S 
ATOM      6  C   UNL     1       8.729  -0.950  23.933  0.00  0.00    +0.152 A 
ATOM      7  S   UNL     1       9.799   0.454  24.016  0.00  0.00    +0.081 S 
ATOM      8  O   UNL     1      10.435   0.413  25.311  0.00  0.00    -0.149 OA
ATOM      9  O   UNL     1      10.528   0.400  22.766  0.00  0.00    -0.149 OA
ATOM     10  N   UNL     1       8.697   1.779  23.967  0.00  0.00    -0.201 N 
ATOM     11  C   UNL     1       7.505   1.573  23.061  0.00  0.00    +0.155 C 
ENDROOT
BRANCH  10  12
ATOM     12  C   UNL     1       9.394   3.038  23.790  0.00  0.00    +0.055 A 
ATOM     13  C   UNL     1      10.782   3.081  23.582  0.00  0.00    +0.070 A 
ATOM     14  C   UNL     1      11.443   4.300  23.434  0.00  0.00    +0.122 A 
ATOM     15  C   UNL     1      10.716   5.485  23.557  0.00  0.00    +0.046 A 
ATOM     16  C   UNL     1       9.347   5.452  23.832  0.00  0.00    +0.005 A 
ATOM     17  C   UNL     1       8.686   4.229  23.954  0.00  0.00    +0.025 A 
BRANCH  14  18
ATOM     18  O   UNL     1      12.776   4.458  23.173  0.00  0.00    -0.495 OA
ATOM     19  C   UNL     1      13.151   5.585  22.389  0.00  0.00    +0.277 C 
ENDBRANCH  14  18
ENDBRANCH  10  12
BRANCH   1  20
ATOM     20  N   UNL     1       5.615   0.481  24.425  0.00  0.00    -0.311 NA
ATOM     21  H   UNL     1       5.946   0.029  25.278  0.00  0.00    +0.122 HD
ATOM     22  C   UNL     1       5.249   1.857  24.730  0.00  0.00    +0.101 C 
ENDBRANCH   1  20
BRANCH   4  23
ATOM     23  S   UNL     1       7.855  -5.010  23.988  0.00  0.00    +0.062 S 
ATOM     24  O   UNL     1       7.738  -5.460  22.624  0.00  0.00    -0.153 OA
ATOM     25  O   UNL     1       6.896  -5.324  25.018  0.00  0.00    -0.153 OA
BRANCH  23  26
ATOM     26  N   UNL     1       9.376  -5.473  24.533  0.00  0.00    -0.203 NA
ATOM     27  H   UNL     1       9.404  -5.599  25.543  0.00  0.00    +0.144 HD
ATOM     28  H   UNL     1       9.767  -6.239  23.987  0.00  0.00    +0.144 HD
ENDBRANCH  23  26
ENDBRANCH   4  23
TORSDOF 5
ENDMDL
MODEL 6
REMARK VINA RESULT:      -7.0      2.144      2.402
REMARK  Name = 
REMARK  7 active torsions:
REMARK  status: ('A' for Active; 'I' for Inactive)
REMARK    1  A    between atoms: C_2  and  N_25
REMARK    2  A    between atoms: N_4  and  C_5
REMARK    3  A    between atoms: C_9  and  O_10
REMARK    4  A    between atoms: O_10  and  C_11
REMARK    5  A    between atoms: C_19  and  S_21
REMARK    6  A    between atoms: S_21  and  N_22
REMARK    7  A    between atoms: N_25  and  C_26
REMARK                            x       y       z     vdW  Elec       q    Type
REMARK                         _______ _______ _______ _____ _____    ______ ____
ROOT
ATOM      1  C   UNL     1       8.023  -3.803  26.397  0.00  0.00    +0.105 C 
ATOM      2  C   UNL     1       6.723  -4.374  25.882  0.00  0.00    +0.007 A 
ATOM      3  C   UNL     1       5.862  -5.321  26.526  0.00  0.00    +0.043 A 
ATOM      4  C   UNL     1       4.772  -5.662  25.742  0.00  0.00    +0.144 A 
ATOM      5  S   UNL     1       4.763  -4.803  24.261  0.00  0.00    -0.048 S 
ATOM      6  C   UNL     1       6.209  -4.017  24.652  0.00  0.00    +0.152 A 
ATOM      7  S   UNL     1       6.846  -2.804  23.536  0.00  0.00    +0.081 S 
ATOM      8  O   UNL     1       6.980  -3.452  22.254  0.00  0.00    -0.149 OA
ATOM      9  O   UNL     1       5.997  -1.653  23.764  0.00  0.00    -0.149 OA
ATOM     10  N   UNL     1       8.414  -2.480  24.174  0.00  0.00    -0.201 N 
ATOM     11  C   UNL     1       8.491  -2.484  25.684  0.00  0.00    +0.155 C 
ENDROOT
BRANCH  10  12
ATOM     12  C   UNL     1       9.018  -1.330  23.531  0.00  0.00    +0.055 A 
ATOM     13  C   UNL     1       9.380  -0.190  24.265  0.00  0.00    +0.070 A 
ATOM     14  C   UNL     1       9.941   0.918  23.630  0.00  0.00    +0.122 A 
ATOM     15  C   UNL     1      10.084   0.904  22.242  0.00  0.00    +0.046 A 
ATOM     16  C   UNL     1       9.664  -0.199  21.497  0.00  0.00    +0.005 A 
ATOM     17  C   UNL     1       9.126  -1.315  22.140  0.00  0.00    +0.025 A 
BRANCH  14  18
ATOM     18  O   UNL     1      10.380   2.055  24.250  0.00  0.00    -0.495 OA
ATOM     19  C   UNL     1      10.621   3.189  23.425  0.00  0.00    +0.277 C 
ENDBRANCH  14  18
ENDBRANCH  10  12
BRANCH   1  20
ATOM     20  N   UNL     1       9.026  -4.874  26.474  0.00  0.00    -0.311 NA
ATOM     21  H   UNL     1       8.720  -5.579  27.145  0.00  0.00    +0.122 HD
ATOM     22  C   UNL     1       9.342  -5.529  25.212  0.00  0.00    +0.101 C 
ENDBRANCH   1  20
BRANCH   4  23
ATOM     23  S   UNL     1       3.411  -6.775  26.000  0.00  0.00    +0.062 S 
ATOM     24  O   UNL     1       3.679  -7.884  25.122  0.00  0.00    -0.153 OA
ATOM     25  O   UNL     1       2.221  -5.963  25.924  0.00  0.00    -0.153 OA
BRANCH  23  26
ATOM     26  N   UNL     1       3.553  -7.344  27.576  0.00  0.00    -0.203 NA
ATOM     27  H   UNL     1       2.649  -7.554  27.994  0.00  0.00    +0.144 HD
ATOM     28  H   UNL     1       4.254  -8.079  27.660  0.00  0.00    +0.144 HD
ENDBRANCH  23  26
ENDBRANCH   4  23
TORSDOF 5
ENDMDL
MODEL 7
REMARK VINA RESULT:      -7.0      2.574      4.031
REMARK  Name = 
REMARK  7 active torsions:
REMARK  status: ('A' for Active; 'I' for Inactive)
REMARK    1  A    between atoms: C_2  and  N_25
REMARK    2  A    between atoms: N_4  and  C_5
REMARK    3  A    between atoms: C_9  and  O_10
REMARK    4  A    between atoms: O_10  and  C_11
REMARK    5  A    between atoms: C_19  and  S_21
REMARK    6  A    between atoms: S_21  and  N_22
REMARK    7  A    between atoms: N_25  and  C_26
REMARK                            x       y       z     vdW  Elec       q    Type
REMARK                         _______ _______ _______ _____ _____    ______ ____
ROOT
ATOM      1  C   UNL     1      10.409  -0.553  23.227  0.00  0.00    +0.105 C 
ATOM      2  C   UNL     1       9.460  -1.396  24.047  0.00  0.00    +0.007 A 
ATOM      3  C   UNL     1       9.600  -2.774  24.412  0.00  0.00    +0.043 A 
ATOM      4  C   UNL     1       8.515  -3.242  25.133  0.00  0.00    +0.144 A 
ATOM      5  S   UNL     1       7.360  -2.009  25.412  0.00  0.00    -0.048 S 
ATOM      6  C   UNL     1       8.284  -0.882  24.554  0.00  0.00    +0.152 A 
ATOM      7  S   UNL     1       7.722   0.791  24.469  0.00  0.00    +0.081 S 
ATOM      8  O   UNL     1       6.385   0.750  23.926  0.00  0.00    -0.149 OA
ATOM      9  O   UNL     1       8.036   1.322  25.779  0.00  0.00    -0.149 OA
ATOM     10  N   UNL     1       8.783   1.495  23.308  0.00  0.00    -0.201 N 
ATOM     11  C   UNL     1      10.209   0.998  23.377  0.00  0.00    +0.155 C 
ENDROOT
BRANCH  10  12
ATOM     12  C   UNL     1       8.636   2.936  23.264  0.00  0.00    +0.055 A 
ATOM     13  C   UNL     1       9.567   3.784  23.884  0.00  0.00    +0.070 A 
ATOM     14  C   UNL     1       9.402   5.168  23.853  0.00  0.00    +0.122 A 
ATOM     15  C   UNL     1       8.264   5.703  23.247  0.00  0.00    +0.046 A 
ATOM     16  C   UNL     1       7.298   4.864  22.688  0.00  0.00    +0.005 A 
ATOM     17  C   UNL     1       7.481   3.479  22.700  0.00  0.00    +0.025 A 
BRANCH  14  18
ATOM     18  O   UNL     1      10.272   6.087  24.372  0.00  0.00    -0.495 OA
ATOM     19  C   UNL     1      11.642   5.958  24.009  0.00  0.00    +0.277 C 
ENDBRANCH  14  18
ENDBRANCH  10  12
BRANCH   1  20
ATOM     20  N   UNL     1      10.437  -1.060  21.848  0.00  0.00    -0.311 NA
ATOM     21  H   UNL     1      10.636  -2.060  21.858  0.00  0.00    +0.122 HD
ATOM     22  C   UNL     1       9.229  -0.826  21.069  0.00  0.00    +0.101 C 
ENDBRANCH   1  20
BRANCH   4  23
ATOM     23  S   UNL     1       8.129  -4.834  25.821  0.00  0.00    +0.062 S 
ATOM     24  O   UNL     1       7.064  -5.339  24.992  0.00  0.00    -0.153 OA
ATOM     25  O   UNL     1       8.005  -4.627  27.243  0.00  0.00    -0.153 OA
BRANCH  23  26
ATOM     26  N   UNL     1       9.471  -5.809  25.552  0.00  0.00    -0.203 NA
ATOM     27  H   UNL     1       9.680  -6.410  26.346  0.00  0.00    +0.144 HD
ATOM     28  H   UNL     1       9.434  -6.278  24.647  0.00  0.00    +0.144 HD
ENDBRANCH  23  26
ENDBRANCH   4  23
TORSDOF 5
ENDMDL
MODEL 8
REMARK VINA RESULT:      -6.9      2.937      4.509
REMARK  Name = 
REMARK  7 active torsions:
REMARK  status: ('A' for Active; 'I' for Inactive)
REMARK    1  A    between atoms: C_2  and  N_25
REMARK    2  A    between atoms: N_4  and  C_5
REMARK    3  A    between atoms: C_9  and  O_10
REMARK    4  A    between atoms: O_10  and  C_11
REMARK    5  A    between atoms: C_19  and  S_21
REMARK    6  A    between atoms: S_21  and  N_22
REMARK    7  A    between atoms: N_25  and  C_26
REMARK                            x       y       z     vdW  Elec       q    Type
REMARK                         _______ _______ _______ _____ _____    ______ ____
ROOT
ATOM      1  C   UNL     1      10.477  -0.382  23.082  0.00  0.00    +0.105 C 
ATOM      2  C   UNL     1       9.606  -1.269  23.940  0.00  0.00    +0.007 A 
ATOM      3  C   UNL     1       9.790  -2.658  24.239  0.00  0.00    +0.043 A 
ATOM      4  C   UNL     1       8.770  -3.169  25.024  0.00  0.00    +0.144 A 
ATOM      5  S   UNL     1       7.626  -1.964  25.440  0.00  0.00    -0.048 S 
ATOM      6  C   UNL     1       8.467  -0.792  24.557  0.00  0.00    +0.152 A 
ATOM      7  S   UNL     1       7.880   0.875  24.581  0.00  0.00    +0.081 S 
ATOM      8  O   UNL     1       6.505   0.835  24.143  0.00  0.00    -0.149 OA
ATOM      9  O   UNL     1       8.290   1.360  25.882  0.00  0.00    -0.149 OA
ATOM     10  N   UNL     1       8.838   1.638  23.369  0.00  0.00    -0.201 N 
ATOM     11  C   UNL     1      10.271   1.159  23.307  0.00  0.00    +0.155 C 
ENDROOT
BRANCH  10  12
ATOM     12  C   UNL     1       8.671   3.077  23.393  0.00  0.00    +0.055 A 
ATOM     13  C   UNL     1       7.582   3.696  22.759  0.00  0.00    +0.070 A 
ATOM     14  C   UNL     1       7.445   5.084  22.771  0.00  0.00    +0.122 A 
ATOM     15  C   UNL     1       8.439   5.859  23.370  0.00  0.00    +0.046 A 
ATOM     16  C   UNL     1       9.560   5.255  23.943  0.00  0.00    +0.005 A 
ATOM     17  C   UNL     1       9.680   3.864  23.950  0.00  0.00    +0.025 A 
BRANCH  14  18
ATOM     18  O   UNL     1       6.400   5.787  22.237  0.00  0.00    -0.495 OA
ATOM     19  C   UNL     1       6.675   7.107  21.782  0.00  0.00    +0.277 C 
ENDBRANCH  14  18
ENDBRANCH  10  12
BRANCH   1  20
ATOM     20  N   UNL     1      10.402  -0.836  21.686  0.00  0.00    -0.311 NA
ATOM     21  H   UNL     1      10.793  -1.775  21.612  0.00  0.00    +0.122 HD
ATOM     22  C   UNL     1       9.071  -0.830  21.094  0.00  0.00    +0.101 C 
ENDBRANCH   1  20
BRANCH   4  23
ATOM     23  S   UNL     1       8.458  -4.791  25.678  0.00  0.00    +0.062 S 
ATOM     24  O   UNL     1       7.362  -5.295  24.890  0.00  0.00    -0.153 OA
ATOM     25  O   UNL     1       8.407  -4.634  27.110  0.00  0.00    -0.153 OA
BRANCH  23  26
ATOM     26  N   UNL     1       9.806  -5.723  25.304  0.00  0.00    -0.203 NA
ATOM     27  H   UNL     1       9.563  -6.567  24.789  0.00  0.00    +0.144 HD
ATOM     28  H   UNL     1      10.561  -5.169  24.901  0.00  0.00    +0.144 HD
ENDBRANCH  23  26
ENDBRANCH   4  23
TORSDOF 5
ENDMDL
MODEL 9
REMARK VINA RESULT:      -6.9      4.144      8.173
REMARK  Name = 
REMARK  7 active torsions:
REMARK  status: ('A' for Active; 'I' for Inactive)
REMARK    1  A    between atoms: C_2  and  N_25
REMARK    2  A    between atoms: N_4  and  C_5
REMARK    3  A    between atoms: C_9  and  O_10
REMARK    4  A    between atoms: O_10  and  C_11
REMARK    5  A    between atoms: C_19  and  S_21
REMARK    6  A    between atoms: S_21  and  N_22
REMARK    7  A    between atoms: N_25  and  C_26
REMARK                            x       y       z     vdW  Elec       q    Type
REMARK                         _______ _______ _______ _____ _____    ______ ____
ROOT
ATOM      1  C   UNL     1       6.645   1.179  24.823  0.00  0.00    +0.105 C 
ATOM      2  C   UNL     1       7.856   2.001  24.451  0.00  0.00    +0.007 A 
ATOM      3  C   UNL     1       8.060   3.406  24.649  0.00  0.00    +0.043 A 
ATOM      4  C   UNL     1       9.273   3.839  24.143  0.00  0.00    +0.144 A 
ATOM      5  S   UNL     1      10.182   2.548  23.480  0.00  0.00    -0.048 S 
ATOM      6  C   UNL     1       8.956   1.438  23.837  0.00  0.00    +0.152 A 
ATOM      7  S   UNL     1       9.227  -0.272  23.484  0.00  0.00    +0.081 S 
ATOM      8  O   UNL     1       9.562  -0.356  22.082  0.00  0.00    -0.149 OA
ATOM      9  O   UNL     1      10.116  -0.700  24.544  0.00  0.00    -0.149 OA
ATOM     10  N   UNL     1       7.672  -0.969  23.738  0.00  0.00    -0.201 N 
ATOM     11  C   UNL     1       6.896  -0.371  24.889  0.00  0.00    +0.155 C 
ENDROOT
BRANCH  10  12
ATOM     12  C   UNL     1       7.734  -2.417  23.724  0.00  0.00    +0.055 A 
ATOM     13  C   UNL     1       7.457  -3.148  22.558  0.00  0.00    +0.070 A 
ATOM     14  C   UNL     1       7.499  -4.542  22.564  0.00  0.00    +0.122 A 
ATOM     15  C   UNL     1       7.761  -5.208  23.763  0.00  0.00    +0.046 A 
ATOM     16  C   UNL     1       7.970  -4.489  24.942  0.00  0.00    +0.005 A 
ATOM     17  C   UNL     1       7.951  -3.093  24.924  0.00  0.00    +0.025 A 
BRANCH  14  18
ATOM     18  O   UNL     1       7.303  -5.351  21.479  0.00  0.00    -0.495 OA
ATOM     19  C   UNL     1       6.002  -5.904  21.312  0.00  0.00    +0.277 C 
ENDBRANCH  14  18
ENDBRANCH  10  12
BRANCH   1  20
ATOM     20  N   UNL     1       5.501   1.603  24.003  0.00  0.00    -0.311 NA
ATOM     21  H   UNL     1       5.034   0.780  23.621  0.00  0.00    +0.122 HD
ATOM     22  C   UNL     1       4.517   2.435  24.680  0.00  0.00    +0.101 C 
ENDBRANCH   1  20
BRANCH   4  23
ATOM     23  S   UNL     1      10.045   5.439  24.083  0.00  0.00    +0.062 S 
ATOM     24  O   UNL     1      11.385   5.178  23.625  0.00  0.00    -0.153 OA
ATOM     25  O   UNL     1       9.739   6.070  25.343  0.00  0.00    -0.153 OA
BRANCH  23  26
ATOM     26  N   UNL     1       9.265   6.299  22.868  0.00  0.00    -0.203 NA
ATOM     27  H   UNL     1       9.826   7.074  22.520  0.00  0.00    +0.144 HD
ATOM     28  H   UNL     1       8.873   5.689  22.151  0.00  0.00    +0.144 HD
ENDBRANCH  23  26
ENDBRANCH   4  23
TORSDOF 5
ENDMDL
