MODEL 1
REMARK VINA RESULT:      -8.1      0.000      0.000
REMARK  Name = 
REMARK  10 active torsions:
REMARK  status: ('A' for Active; 'I' for Inactive)
REMARK    1  A    between atoms: C_2  and  C_3
REMARK    2  A    between atoms: C_2  and  C_4
REMARK    3  A    between atoms: C_2  and  C_15
REMARK    4  A    between atoms: C_5  and  C_6
REMARK    5  A    between atoms: C_7  and  C_8
REMARK    6  A    between atoms: C_17  and  O_18
REMARK    7  A    between atoms: O_18  and  C_19
REMARK    8  A    between atoms: C_21  and  C_23
REMARK    9  A    between atoms: C_25  and  C_26
REMARK   10  A    between atoms: C_28  and  C_29
REMARK                            x       y       z     vdW  Elec       q    Type
REMARK                         _______ _______ _______ _____ _____    ______ ____
ROOT
ATOM      1  C   UNL     1       8.625  -0.855  26.558  0.00  0.00    +0.091 C 
ATOM      2  C   UNL     1       7.941   0.148  27.490  0.00  0.00    +0.026 C 
ENDROOT
BRANCH   1   3
ATOM      3  C   UNL     1       8.898  -0.192  25.214  0.00  0.00    -0.029 A 
ATOM      4  C   UNL     1       9.310   1.149  25.115  0.00  0.00    +0.013 A 
ATOM      5  C   UNL     1       9.622   1.747  23.880  0.00  0.00    -0.014 A 
ATOM      6  C   UNL     1       9.520   0.946  22.727  0.00  0.00    +0.054 A 
ATOM      7  C   UNL     1       9.139  -0.395  22.797  0.00  0.00    +0.121 A 
ATOM      8  C   UNL     1       8.824  -0.953  24.037  0.00  0.00    +0.050 A 
BRANCH   5   9
ATOM      9  C   UNL     1      10.051   3.165  23.789  0.00  0.00    -0.017 A 
ATOM     10  C   UNL     1      11.382   3.504  23.479  0.00  0.00    +0.012 A 
ATOM     11  C   UNL     1      11.799   4.837  23.351  0.00  0.00    -0.050 A 
ATOM     12  C   UNL     1      13.223   5.136  22.986  0.00  0.00    +0.044 C 
ATOM     13  C   UNL     1      10.874   5.862  23.560  0.00  0.00    +0.006 A 
ATOM     14  C   UNL     1       9.547   5.566  23.888  0.00  0.00    -0.050 A 
ATOM     15  C   UNL     1       8.563   6.677  24.102  0.00  0.00    +0.044 C 
ATOM     16  C   UNL     1       9.148   4.224  23.994  0.00  0.00    +0.012 A 
ENDBRANCH   5   9
BRANCH   7  17
ATOM     17  O   UNL     1       9.046  -1.253  21.733  0.00  0.00    -0.495 OA
ATOM     18  C   UNL     1       8.232  -2.408  21.912  0.00  0.00    +0.277 C 
ENDBRANCH   7  17
ENDBRANCH   1   3
BRANCH   1  19
ATOM     19  C   UNL     1       7.813  -2.088  26.456  0.00  0.00    -0.089 C 
ATOM     20  C   UNL     1       7.126  -3.072  26.380  0.00  0.00    -0.060 C 
BRANCH  20  21
ATOM     21  C   UNL     1       6.263  -4.213  26.264  0.00  0.00    +0.085 A 
ATOM     22  C   UNL     1       6.659  -5.476  26.695  0.00  0.00    +0.137 A 
ATOM     23  N   UNL     1       7.955  -5.727  27.162  0.00  0.00    -0.342 N 
ATOM     24  H   UNL     1       8.254  -5.054  27.858  0.00  0.00    +0.144 HD
ATOM     25  H   UNL     1       7.984  -6.685  27.500  0.00  0.00    +0.144 HD
ATOM     26  N   UNL     1       5.860  -6.554  26.639  0.00  0.00    -0.199 NA
ATOM     27  C   UNL     1       4.631  -6.369  26.163  0.00  0.00    +0.215 A 
ATOM     28  N   UNL     1       3.791  -7.462  26.104  0.00  0.00    -0.327 N 
ATOM     29  H   UNL     1       4.338  -8.309  26.064  0.00  0.00    +0.145 HD
ATOM     30  H   UNL     1       3.101  -7.319  25.380  0.00  0.00    +0.145 HD
ATOM     31  N   UNL     1       4.158  -5.210  25.699  0.00  0.00    -0.219 NA
ATOM     32  C   UNL     1       4.975  -4.132  25.759  0.00  0.00    +0.060 A 
ATOM     33  C   UNL     1       4.380  -2.863  25.220  0.00  0.00    +0.067 C 
ENDBRANCH  20  21
ENDBRANCH   1  19
TORSDOF 5
ENDMDL
MODEL 2
REMARK VINA RESULT:      -8.1      0.129      1.600
REMARK  Name = 
REMARK  10 active torsions:
REMARK  status: ('A' for Active; 'I' for Inactive)
REMARK    1  A    between atoms: C_2  and  C_3
REMARK    2  A    between atoms: C_2  and  C_4
REMARK    3  A    between atoms: C_2  and  C_15
REMARK    4  A    between atoms: C_5  and  C_6
REMARK    5  A    between atoms: C_7  and  C_8
REMARK    6  A    between atoms: C_17  and  O_18
REMARK    7  A    between atoms: O_18  and  C_19
REMARK    8  A    between atoms: C_21  and  C_23
REMARK    9  A    between atoms: C_25  and  C_26
REMARK   10  A    between atoms: C_28  and  C_29
REMARK                            x       y       z     vdW  Elec       q    Type
REMARK                         _______ _______ _______ _____ _____    ______ ____
ROOT
ATOM      1  C   UNL     1       8.484  -0.798  26.561  0.00  0.00    +0.091 C 
ATOM      2  C   UNL     1       7.722   0.216  27.417  0.00  0.00    +0.026 C 
ENDROOT
BRANCH   1   3
ATOM      3  C   UNL     1       8.844  -0.163  25.225  0.00  0.00    -0.029 A 
ATOM      4  C   UNL     1       9.263   1.175  25.124  0.00  0.00    +0.013 A 
ATOM      5  C   UNL     1       9.656   1.748  23.901  0.00  0.00    -0.014 A 
ATOM      6  C   UNL     1       9.629   0.923  22.761  0.00  0.00    +0.054 A 
ATOM      7  C   UNL     1       9.244  -0.416  22.833  0.00  0.00    +0.121 A 
ATOM      8  C   UNL     1       8.848  -0.949  24.061  0.00  0.00    +0.050 A 
BRANCH   5   9
ATOM      9  C   UNL     1      10.091   3.164  23.809  0.00  0.00    -0.017 A 
ATOM     10  C   UNL     1       9.213   4.217  24.128  0.00  0.00    +0.012 A 
ATOM     11  C   UNL     1       9.616   5.560  24.085  0.00  0.00    -0.050 A 
ATOM     12  C   UNL     1       8.645   6.637  24.467  0.00  0.00    +0.044 C 
ATOM     13  C   UNL     1      10.919   5.866  23.690  0.00  0.00    +0.006 A 
ATOM     14  C   UNL     1      11.816   4.849  23.347  0.00  0.00    -0.050 A 
ATOM     15  C   UNL     1      13.216   5.193  22.933  0.00  0.00    +0.044 C 
ATOM     16  C   UNL     1      11.396   3.511  23.415  0.00  0.00    +0.012 A 
ENDBRANCH   5   9
BRANCH   7  17
ATOM     17  O   UNL     1       9.221  -1.296  21.784  0.00  0.00    -0.495 OA
ATOM     18  C   UNL     1       8.369  -2.430  21.917  0.00  0.00    +0.277 C 
ENDBRANCH   7  17
ENDBRANCH   1   3
BRANCH   1  19
ATOM     19  C   UNL     1       7.696  -2.045  26.431  0.00  0.00    -0.089 C 
ATOM     20  C   UNL     1       7.034  -3.046  26.347  0.00  0.00    -0.060 C 
BRANCH  20  21
ATOM     21  C   UNL     1       6.195  -4.205  26.251  0.00  0.00    +0.085 A 
ATOM     22  C   UNL     1       6.615  -5.452  26.706  0.00  0.00    +0.137 A 
ATOM     23  N   UNL     1       7.915  -5.669  27.178  0.00  0.00    -0.342 N 
ATOM     24  H   UNL     1       8.200  -4.977  27.862  0.00  0.00    +0.144 HD
ATOM     25  H   UNL     1       7.963  -6.619  27.534  0.00  0.00    +0.144 HD
ATOM     26  N   UNL     1       5.839  -6.547  26.669  0.00  0.00    -0.199 NA
ATOM     27  C   UNL     1       4.606  -6.395  26.189  0.00  0.00    +0.215 A 
ATOM     28  N   UNL     1       3.789  -7.506  26.149  0.00  0.00    -0.327 N 
ATOM     29  H   UNL     1       4.353  -8.343  26.125  0.00  0.00    +0.145 HD
ATOM     30  H   UNL     1       3.097  -7.391  25.422  0.00  0.00    +0.145 HD
ATOM     31  N   UNL     1       4.111  -5.256  25.702  0.00  0.00    -0.219 NA
ATOM     32  C   UNL     1       4.906  -4.160  25.744  0.00  0.00    +0.060 A 
ATOM     33  C   UNL     1       4.287  -2.913  25.181  0.00  0.00    +0.067 C 
ENDBRANCH  20  21
ENDBRANCH   1  19
TORSDOF 5
ENDMDL
MODEL 3
REMARK VINA RESULT:      -7.8      4.263     10.430
REMARK  Name = 
REMARK  10 active torsions:
REMARK  status: ('A' for Active; 'I' for Inactive)
REMARK    1  A    between atoms: C_2  and  C_3
REMARK    2  A    between atoms: C_2  and  C_4
REMARK    3  A    between atoms: C_2  and  C_15
REMARK    4  A    between atoms: C_5  and  C_6
REMARK    5  A    between atoms: C_7  and  C_8
REMARK    6  A    between atoms: C_17  and  O_18
REMARK    7  A    between atoms: O_18  and  C_19
REMARK    8  A    between atoms: C_21  and  C_23
REMARK    9  A    between atoms: C_25  and  C_26
REMARK   10  A    between atoms: C_28  and  C_29
REMARK                            x       y       z     vdW  Elec       q    Type
REMARK                         _______ _______ _______ _____ _____    ______ ____
ROOT
ATOM      1  C   UNL     1       7.737  -4.829  23.117  0.00  0.00    +0.091 C 
ATOM      2  C   UNL     1       7.088  -4.984  21.740  0.00  0.00    +0.026 C 
ENDROOT
BRANCH   1   3
ATOM      3  C   UNL     1       6.747  -5.253  24.194  0.00  0.00    -0.029 A 
ATOM      4  C   UNL     1       5.505  -5.833  23.878  0.00  0.00    +0.013 A 
ATOM      5  C   UNL     1       4.614  -6.282  24.869  0.00  0.00    -0.014 A 
ATOM      6  C   UNL     1       5.015  -6.145  26.212  0.00  0.00    +0.054 A 
ATOM      7  C   UNL     1       6.252  -5.598  26.556  0.00  0.00    +0.121 A 
ATOM      8  C   UNL     1       7.107  -5.150  25.546  0.00  0.00    +0.050 A 
BRANCH   5   9
ATOM      9  C   UNL     1       3.305  -6.887  24.522  0.00  0.00    -0.017 A 
ATOM     10  C   UNL     1       2.483  -6.323  23.527  0.00  0.00    +0.012 A 
ATOM     11  C   UNL     1       1.260  -6.901  23.157  0.00  0.00    -0.050 A 
ATOM     12  C   UNL     1       0.443  -6.271  22.068  0.00  0.00    +0.044 C 
ATOM     13  C   UNL     1       0.829  -8.057  23.809  0.00  0.00    +0.006 A 
ATOM     14  C   UNL     1       1.608  -8.638  24.816  0.00  0.00    -0.050 A 
ATOM     15  C   UNL     1       1.136  -9.885  25.502  0.00  0.00    +0.044 C 
ATOM     16  C   UNL     1       2.838  -8.052  25.158  0.00  0.00    +0.012 A 
ENDBRANCH   5   9
BRANCH   7  17
ATOM     17  O   UNL     1       6.734  -5.458  27.830  0.00  0.00    -0.495 OA
ATOM     18  C   UNL     1       6.027  -6.142  28.860  0.00  0.00    +0.277 C 
ENDBRANCH   7  17
ENDBRANCH   1   3
BRANCH   1  19
ATOM     19  C   UNL     1       8.241  -3.448  23.288  0.00  0.00    -0.089 C 
ATOM     20  C   UNL     1       8.680  -2.335  23.411  0.00  0.00    -0.060 C 
BRANCH  20  21
ATOM     21  C   UNL     1       9.227  -1.012  23.503  0.00  0.00    +0.085 A 
ATOM     22  C   UNL     1       9.676  -0.326  22.377  0.00  0.00    +0.137 A 
ATOM     23  N   UNL     1       9.722  -0.927  21.114  0.00  0.00    -0.342 N 
ATOM     24  H   UNL     1       8.852  -1.387  20.871  0.00  0.00    +0.144 HD
ATOM     25  H   UNL     1       9.995  -0.216  20.441  0.00  0.00    +0.144 HD
ATOM     26  N   UNL     1      10.154   0.928  22.424  0.00  0.00    -0.199 NA
ATOM     27  C   UNL     1      10.167   1.523  23.614  0.00  0.00    +0.215 A 
ATOM     28  N   UNL     1      10.647   2.815  23.683  0.00  0.00    -0.327 N 
ATOM     29  H   UNL     1      11.272   2.988  22.909  0.00  0.00    +0.145 HD
ATOM     30  H   UNL     1      10.998   2.996  24.614  0.00  0.00    +0.145 HD
ATOM     31  N   UNL     1       9.787   0.952  24.759  0.00  0.00    -0.219 NA
ATOM     32  C   UNL     1       9.310  -0.314  24.698  0.00  0.00    +0.060 A 
ATOM     33  C   UNL     1       8.901  -0.896  26.020  0.00  0.00    +0.067 C 
ENDBRANCH  20  21
ENDBRANCH   1  19
TORSDOF 5
ENDMDL
MODEL 4
REMARK VINA RESULT:      -7.7      2.237      2.868
REMARK  Name = 
REMARK  10 active torsions:
REMARK  status: ('A' for Active; 'I' for Inactive)
REMARK    1  A    between atoms: C_2  and  C_3
REMARK    2  A    between atoms: C_2  and  C_4
REMARK    3  A    between atoms: C_2  and  C_15
REMARK    4  A    between atoms: C_5  and  C_6
REMARK    5  A    between atoms: C_7  and  C_8
REMARK    6  A    between atoms: C_17  and  O_18
REMARK    7  A    between atoms: O_18  and  C_19
REMARK    8  A    between atoms: C_21  and  C_23
REMARK    9  A    between atoms: C_25  and  C_26
REMARK   10  A    between atoms: C_28  and  C_29
REMARK                            x       y       z     vdW  Elec       q    Type
REMARK                         _______ _______ _______ _____ _____    ______ ____
ROOT
ATOM      1  C   UNL     1       6.443   0.057  25.322  0.00  0.00    +0.091 C 
ATOM      2  C   UNL     1       5.472   1.228  25.155  0.00  0.00    +0.026 C 
ENDROOT
BRANCH   1   3
ATOM      3  C   UNL     1       7.755   0.382  24.620  0.00  0.00    -0.029 A 
ATOM      4  C   UNL     1       8.254   1.695  24.546  0.00  0.00    +0.013 A 
ATOM      5  C   UNL     1       9.495   1.992  23.952  0.00  0.00    -0.014 A 
ATOM      6  C   UNL     1      10.242   0.915  23.437  0.00  0.00    +0.054 A 
ATOM      7  C   UNL     1       9.784  -0.401  23.520  0.00  0.00    +0.121 A 
ATOM      8  C   UNL     1       8.542  -0.659  24.105  0.00  0.00    +0.050 A 
BRANCH   5   9
ATOM      9  C   UNL     1      10.008   3.382  23.876  0.00  0.00    -0.017 A 
ATOM     10  C   UNL     1       9.209   4.475  24.261  0.00  0.00    +0.012 A 
ATOM     11  C   UNL     1       9.687   5.793  24.233  0.00  0.00    -0.050 A 
ATOM     12  C   UNL     1       8.799   6.913  24.687  0.00  0.00    +0.044 C 
ATOM     13  C   UNL     1      10.987   6.034  23.786  0.00  0.00    +0.006 A 
ATOM     14  C   UNL     1      11.807   4.977  23.376  0.00  0.00    -0.050 A 
ATOM     15  C   UNL     1      13.204   5.251  22.906  0.00  0.00    +0.044 C 
ATOM     16  C   UNL     1      11.312   3.664  23.430  0.00  0.00    +0.012 A 
ENDBRANCH   5   9
BRANCH   7  17
ATOM     17  O   UNL     1      10.458  -1.508  23.077  0.00  0.00    -0.495 OA
ATOM     18  C   UNL     1      10.126  -2.749  23.693  0.00  0.00    +0.277 C 
ENDBRANCH   7  17
ENDBRANCH   1   3
BRANCH   1  19
ATOM     19  C   UNL     1       5.813  -1.195  24.848  0.00  0.00    -0.089 C 
ATOM     20  C   UNL     1       5.278  -2.211  24.488  0.00  0.00    -0.060 C 
BRANCH  20  21
ATOM     21  C   UNL     1       4.586  -3.396  24.070  0.00  0.00    +0.085 A 
ATOM     22  C   UNL     1       4.978  -4.112  22.942  0.00  0.00    +0.137 A 
ATOM     23  N   UNL     1       5.994  -3.658  22.092  0.00  0.00    -0.342 N 
ATOM     24  H   UNL     1       6.831  -3.391  22.597  0.00  0.00    +0.144 HD
ATOM     25  H   UNL     1       6.164  -4.379  21.397  0.00  0.00    +0.144 HD
ATOM     26  N   UNL     1       4.378  -5.247  22.548  0.00  0.00    -0.199 NA
ATOM     27  C   UNL     1       3.379  -5.694  23.305  0.00  0.00    +0.215 A 
ATOM     28  N   UNL     1       2.754  -6.863  22.923  0.00  0.00    -0.327 N 
ATOM     29  H   UNL     1       2.878  -7.007  21.931  0.00  0.00    +0.145 HD
ATOM     30  H   UNL     1       1.808  -6.873  23.280  0.00  0.00    +0.145 HD
ATOM     31  N   UNL     1       2.905  -5.075  24.388  0.00  0.00    -0.219 NA
ATOM     32  C   UNL     1       3.518  -3.929  24.772  0.00  0.00    +0.060 A 
ATOM     33  C   UNL     1       2.934  -3.286  25.997  0.00  0.00    +0.067 C 
ENDBRANCH  20  21
ENDBRANCH   1  19
TORSDOF 5
ENDMDL
MODEL 5
REMARK VINA RESULT:      -7.7      4.251     10.394
REMARK  Name = 
REMARK  10 active torsions:
REMARK  status: ('A' for Active; 'I' for Inactive)
REMARK    1  A    between atoms: C_2  and  C_3
REMARK    2  A    between atoms: C_2  and  C_4
REMARK    3  A    between atoms: C_2  and  C_15
REMARK    4  A    between atoms: C_5  and  C_6
REMARK    5  A    between atoms: C_7  and  C_8
REMARK    6  A    between atoms: C_17  and  O_18
REMARK    7  A    between atoms: O_18  and  C_19
REMARK    8  A    between atoms: C_21  and  C_23
REMARK    9  A    between atoms: C_25  and  C_26
REMARK   10  A    between atoms: C_28  and  C_29
REMARK                            x       y       z     vdW  Elec       q    Type
REMARK                         _______ _______ _______ _____ _____    ______ ____
ROOT
ATOM      1  C   UNL     1       7.808  -4.924  23.225  0.00  0.00    +0.091 C 
ATOM      2  C   UNL     1       7.207  -5.073  21.826  0.00  0.00    +0.026 C 
ENDROOT
BRANCH   1   3
ATOM      3  C   UNL     1       6.766  -5.307  24.267  0.00  0.00    -0.029 A 
ATOM      4  C   UNL     1       5.535  -5.887  23.913  0.00  0.00    +0.013 A 
ATOM      5  C   UNL     1       4.595  -6.298  24.875  0.00  0.00    -0.014 A 
ATOM      6  C   UNL     1       4.935  -6.122  26.230  0.00  0.00    +0.054 A 
ATOM      7  C   UNL     1       6.161  -5.574  26.614  0.00  0.00    +0.121 A 
ATOM      8  C   UNL     1       7.065  -5.164  25.632  0.00  0.00    +0.050 A 
BRANCH   5   9
ATOM      9  C   UNL     1       3.298  -6.904  24.486  0.00  0.00    -0.017 A 
ATOM     10  C   UNL     1       2.799  -8.043  25.146  0.00  0.00    +0.012 A 
ATOM     11  C   UNL     1       1.558  -8.607  24.819  0.00  0.00    -0.050 A 
ATOM     12  C   UNL     1       1.065  -9.803  25.580  0.00  0.00    +0.044 C 
ATOM     13  C   UNL     1       0.802  -8.040  23.793  0.00  0.00    +0.006 A 
ATOM     14  C   UNL     1       1.271  -6.918  23.101  0.00  0.00    -0.050 A 
ATOM     15  C   UNL     1       0.443  -6.314  22.006  0.00  0.00    +0.044 C 
ATOM     16  C   UNL     1       2.509  -6.359  23.457  0.00  0.00    +0.012 A 
ENDBRANCH   5   9
BRANCH   7  17
ATOM     17  O   UNL     1       6.585  -5.398  27.904  0.00  0.00    -0.495 OA
ATOM     18  C   UNL     1       6.074  -6.306  28.875  0.00  0.00    +0.277 C 
ENDBRANCH   7  17
ENDBRANCH   1   3
BRANCH   1  19
ATOM     19  C   UNL     1       8.348  -3.557  23.402  0.00  0.00    -0.089 C 
ATOM     20  C   UNL     1       8.784  -2.441  23.512  0.00  0.00    -0.060 C 
BRANCH  20  21
ATOM     21  C   UNL     1       9.264  -1.092  23.603  0.00  0.00    +0.085 A 
ATOM     22  C   UNL     1       9.717  -0.401  22.482  0.00  0.00    +0.137 A 
ATOM     23  N   UNL     1       9.836  -1.016  21.230  0.00  0.00    -0.342 N 
ATOM     24  H   UNL     1       8.998  -1.520  20.965  0.00  0.00    +0.144 HD
ATOM     25  H   UNL     1      10.097  -0.302  20.556  0.00  0.00    +0.144 HD
ATOM     26  N   UNL     1      10.133   0.875  22.526  0.00  0.00    -0.199 NA
ATOM     27  C   UNL     1      10.077   1.487  23.707  0.00  0.00    +0.215 A 
ATOM     28  N   UNL     1      10.492   2.801  23.772  0.00  0.00    -0.327 N 
ATOM     29  H   UNL     1      11.134   2.993  23.017  0.00  0.00    +0.145 HD
ATOM     30  H   UNL     1      10.801   3.011  24.711  0.00  0.00    +0.145 HD
ATOM     31  N   UNL     1       9.686   0.913  24.847  0.00  0.00    -0.219 NA
ATOM     32  C   UNL     1       9.272  -0.375  24.788  0.00  0.00    +0.060 A 
ATOM     33  C   UNL     1       8.847  -0.958  26.105  0.00  0.00    +0.067 C 
ENDBRANCH  20  21
ENDBRANCH   1  19
TORSDOF 5
ENDMDL
MODEL 6
REMARK VINA RESULT:      -7.5      1.975      3.239
REMARK  Name = 
REMARK  10 active torsions:
REMARK  status: ('A' for Active; 'I' for Inactive)
REMARK    1  A    between atoms: C_2  and  C_3
REMARK    2  A    between atoms: C_2  and  C_4
REMARK    3  A    between atoms: C_2  and  C_15
REMARK    4  A    between atoms: C_5  and  C_6
REMARK    5  A    between atoms: C_7  and  C_8
REMARK    6  A    between atoms: C_17  and  O_18
REMARK    7  A    between atoms: O_18  and  C_19
REMARK    8  A    between atoms: C_21  and  C_23
REMARK    9  A    between atoms: C_25  and  C_26
REMARK   10  A    between atoms: C_28  and  C_29
REMARK                            x       y       z     vdW  Elec       q    Type
REMARK                         _______ _______ _______ _____ _____    ______ ____
ROOT
ATOM      1  C   UNL     1       9.115  -1.475  22.770  0.00  0.00    +0.091 C 
ATOM      2  C   UNL     1      10.585  -1.877  22.902  0.00  0.00    +0.026 C 
ENDROOT
BRANCH   1   3
ATOM      3  C   UNL     1       8.832  -0.283  23.674  0.00  0.00    -0.029 A 
ATOM      4  C   UNL     1       9.405   0.981  23.442  0.00  0.00    +0.013 A 
ATOM      5  C   UNL     1       9.099   2.100  24.238  0.00  0.00    -0.014 A 
ATOM      6  C   UNL     1       8.176   1.918  25.285  0.00  0.00    +0.054 A 
ATOM      7  C   UNL     1       7.571   0.683  25.523  0.00  0.00    +0.121 A 
ATOM      8  C   UNL     1       7.907  -0.410  24.722  0.00  0.00    +0.050 A 
BRANCH   5   9
ATOM      9  C   UNL     1       9.715   3.426  23.985  0.00  0.00    -0.017 A 
ATOM     10  C   UNL     1       8.967   4.612  24.107  0.00  0.00    +0.012 A 
ATOM     11  C   UNL     1       9.540   5.876  23.910  0.00  0.00    -0.050 A 
ATOM     12  C   UNL     1       8.699   7.106  24.085  0.00  0.00    +0.044 C 
ATOM     13  C   UNL     1      10.887   5.965  23.557  0.00  0.00    +0.006 A 
ATOM     14  C   UNL     1      11.661   4.809  23.408  0.00  0.00    -0.050 A 
ATOM     15  C   UNL     1      13.110   4.920  23.037  0.00  0.00    +0.044 C 
ATOM     16  C   UNL     1      11.070   3.554  23.628  0.00  0.00    +0.012 A 
ENDBRANCH   5   9
BRANCH   7  17
ATOM     17  O   UNL     1       6.641   0.427  26.495  0.00  0.00    -0.495 OA
ATOM     18  C   UNL     1       6.103  -0.892  26.534  0.00  0.00    +0.277 C 
ENDBRANCH   7  17
ENDBRANCH   1   3
BRANCH   1  19
ATOM     19  C   UNL     1       8.244  -2.641  23.039  0.00  0.00    -0.089 C 
ATOM     20  C   UNL     1       7.521  -3.571  23.282  0.00  0.00    -0.060 C 
BRANCH  20  21
ATOM     21  C   UNL     1       6.614  -4.642  23.581  0.00  0.00    +0.085 A 
ATOM     22  C   UNL     1       6.265  -4.961  24.890  0.00  0.00    +0.137 A 
ATOM     23  N   UNL     1       6.862  -4.334  25.990  0.00  0.00    -0.342 N 
ATOM     24  H   UNL     1       6.863  -3.323  25.907  0.00  0.00    +0.144 HD
ATOM     25  H   UNL     1       6.391  -4.661  26.829  0.00  0.00    +0.144 HD
ATOM     26  N   UNL     1       5.387  -5.929  25.200  0.00  0.00    -0.199 NA
ATOM     27  C   UNL     1       4.825  -6.581  24.185  0.00  0.00    +0.215 A 
ATOM     28  N   UNL     1       3.914  -7.573  24.482  0.00  0.00    -0.327 N 
ATOM     29  H   UNL     1       4.087  -7.927  25.411  0.00  0.00    +0.145 HD
ATOM     30  H   UNL     1       3.887  -8.244  23.726  0.00  0.00    +0.145 HD
ATOM     31  N   UNL     1       5.106  -6.375  22.896  0.00  0.00    -0.219 NA
ATOM     32  C   UNL     1       5.995  -5.398  22.598  0.00  0.00    +0.060 A 
ATOM     33  C   UNL     1       6.264  -5.221  21.132  0.00  0.00    +0.067 C 
ENDBRANCH  20  21
ENDBRANCH   1  19
TORSDOF 5
ENDMDL
MODEL 7
REMARK VINA RESULT:      -7.5      4.026      9.812
REMARK  Name = 
REMARK  10 active torsions:
REMARK  status: ('A' for Active; 'I' for Inactive)
REMARK    1  A    between atoms: C_2  and  C_3
REMARK    2  A    between atoms: C_2  and  C_4
REMARK    3  A    between atoms: C_2  and  C_15
REMARK    4  A    between atoms: C_5  and  C_6
REMARK    5  A    between atoms: C_7  and  C_8
REMARK    6  A    between atoms: C_17  and  O_18
REMARK    7  A    between atoms: O_18  and  C_19
REMARK    8  A    between atoms: C_21  and  C_23
REMARK    9  A    between atoms: C_25  and  C_26
REMARK   10  A    between atoms: C_28  and  C_29
REMARK                            x       y       z     vdW  Elec       q    Type
REMARK                         _______ _______ _______ _____ _____    ______ ____
ROOT
ATOM      1  C   UNL     1       8.461  -4.096  25.778  0.00  0.00    +0.091 C 
ATOM      2  C   UNL     1       9.745  -4.925  25.852  0.00  0.00    +0.026 C 
ENDROOT
BRANCH   1   3
ATOM      3  C   UNL     1       7.437  -4.824  24.917  0.00  0.00    -0.029 A 
ATOM      4  C   UNL     1       6.197  -5.245  25.429  0.00  0.00    +0.013 A 
ATOM      5  C   UNL     1       5.224  -5.863  24.623  0.00  0.00    -0.014 A 
ATOM      6  C   UNL     1       5.527  -6.038  23.260  0.00  0.00    +0.054 A 
ATOM      7  C   UNL     1       6.739  -5.606  22.716  0.00  0.00    +0.121 A 
ATOM      8  C   UNL     1       7.688  -5.008  23.548  0.00  0.00    +0.050 A 
BRANCH   5   9
ATOM      9  C   UNL     1       3.922  -6.308  25.178  0.00  0.00    -0.017 A 
ATOM     10  C   UNL     1       3.168  -5.473  26.024  0.00  0.00    +0.012 A 
ATOM     11  C   UNL     1       1.918  -5.859  26.528  0.00  0.00    -0.050 A 
ATOM     12  C   UNL     1       1.146  -4.912  27.400  0.00  0.00    +0.044 C 
ATOM     13  C   UNL     1       1.413  -7.119  26.204  0.00  0.00    +0.006 A 
ATOM     14  C   UNL     1       2.140  -7.985  25.380  0.00  0.00    -0.050 A 
ATOM     15  C   UNL     1       1.581  -9.333  25.033  0.00  0.00    +0.044 C 
ATOM     16  C   UNL     1       3.382  -7.571  24.872  0.00  0.00    +0.012 A 
ENDBRANCH   5   9
BRANCH   7  17
ATOM     17  O   UNL     1       7.101  -5.706  21.399  0.00  0.00    -0.495 OA
ATOM     18  C   UNL     1       6.066  -6.022  20.473  0.00  0.00    +0.277 C 
ENDBRANCH   7  17
ENDBRANCH   1   3
BRANCH   1  19
ATOM     19  C   UNL     1       8.768  -2.728  25.304  0.00  0.00    -0.089 C 
ATOM     20  C   UNL     1       9.036  -1.629  24.894  0.00  0.00    -0.060 C 
BRANCH  20  21
ATOM     21  C   UNL     1       9.350  -0.340  24.349  0.00  0.00    +0.085 A 
ATOM     22  C   UNL     1       9.100   0.833  25.055  0.00  0.00    +0.137 A 
ATOM     23  N   UNL     1       8.429   0.830  26.284  0.00  0.00    -0.342 N 
ATOM     24  H   UNL     1       8.813   0.153  26.933  0.00  0.00    +0.144 HD
ATOM     25  H   UNL     1       8.442   1.778  26.649  0.00  0.00    +0.144 HD
ATOM     26  N   UNL     1       9.420   2.052  24.590  0.00  0.00    -0.199 NA
ATOM     27  C   UNL     1      10.023   2.105  23.405  0.00  0.00    +0.215 A 
ATOM     28  N   UNL     1      10.369   3.347  22.913  0.00  0.00    -0.327 N 
ATOM     29  H   UNL     1       9.780   4.054  23.328  0.00  0.00    +0.145 HD
ATOM     30  H   UNL     1      10.411   3.311  21.904  0.00  0.00    +0.145 HD
ATOM     31  N   UNL     1      10.286   1.049  22.633  0.00  0.00    -0.219 NA
ATOM     32  C   UNL     1       9.954  -0.174  23.113  0.00  0.00    +0.060 A 
ATOM     33  C   UNL     1      10.277  -1.317  22.194  0.00  0.00    +0.067 C 
ENDBRANCH  20  21
ENDBRANCH   1  19
TORSDOF 5
ENDMDL
MODEL 8
REMARK VINA RESULT:      -7.3      2.025      3.354
REMARK  Name = 
REMARK  10 active torsions:
REMARK  status: ('A' for Active; 'I' for Inactive)
REMARK    1  A    between atoms: C_2  and  C_3
REMARK    2  A    between atoms: C_2  and  C_4
REMARK    3  A    between atoms: C_2  and  C_15
REMARK    4  A    between atoms: C_5  and  C_6
REMARK    5  A    between atoms: C_7  and  C_8
REMARK    6  A    between atoms: C_17  and  O_18
REMARK    7  A    between atoms: O_18  and  C_19
REMARK    8  A    between atoms: C_21  and  C_23
REMARK    9  A    between atoms: C_25  and  C_26
REMARK   10  A    between atoms: C_28  and  C_29
REMARK                            x       y       z     vdW  Elec       q    Type
REMARK                         _______ _______ _______ _____ _____    ______ ____
ROOT
ATOM      1  C   UNL     1       8.775  -1.055  22.734  0.00  0.00    +0.091 C 
ATOM      2  C   UNL     1      10.299  -1.128  22.853  0.00  0.00    +0.026 C 
ENDROOT
BRANCH   1   3
ATOM      3  C   UNL     1       8.297   0.322  23.174  0.00  0.00    -0.029 A 
ATOM      4  C   UNL     1       9.183   1.403  23.329  0.00  0.00    +0.013 A 
ATOM      5  C   UNL     1       8.739   2.693  23.676  0.00  0.00    -0.014 A 
ATOM      6  C   UNL     1       7.354   2.875  23.853  0.00  0.00    +0.054 A 
ATOM      7  C   UNL     1       6.448   1.827  23.679  0.00  0.00    +0.121 A 
ATOM      8  C   UNL     1       6.925   0.558  23.348  0.00  0.00    +0.050 A 
BRANCH   5   9
ATOM      9  C   UNL     1       9.685   3.823  23.843  0.00  0.00    -0.017 A 
ATOM     10  C   UNL     1       9.371   4.921  24.665  0.00  0.00    +0.012 A 
ATOM     11  C   UNL     1      10.267   5.980  24.866  0.00  0.00    -0.050 A 
ATOM     12  C   UNL     1       9.888   7.108  25.781  0.00  0.00    +0.044 C 
ATOM     13  C   UNL     1      11.500   5.962  24.212  0.00  0.00    +0.006 A 
ATOM     14  C   UNL     1      11.842   4.897  23.371  0.00  0.00    -0.050 A 
ATOM     15  C   UNL     1      13.174   4.886  22.682  0.00  0.00    +0.044 C 
ATOM     16  C   UNL     1      10.936   3.838  23.199  0.00  0.00    +0.012 A 
ENDBRANCH   5   9
BRANCH   7  17
ATOM     17  O   UNL     1       5.087   1.924  23.799  0.00  0.00    -0.495 OA
ATOM     18  C   UNL     1       4.557   1.908  25.121  0.00  0.00    +0.277 C 
ENDBRANCH   7  17
ENDBRANCH   1   3
BRANCH   1  19
ATOM     19  C   UNL     1       8.153  -2.166  23.489  0.00  0.00    -0.089 C 
ATOM     20  C   UNL     1       7.620  -3.052  24.104  0.00  0.00    -0.060 C 
BRANCH  20  21
ATOM     21  C   UNL     1       6.933  -4.098  24.806  0.00  0.00    +0.085 A 
ATOM     22  C   UNL     1       5.637  -4.477  24.467  0.00  0.00    +0.137 A 
ATOM     23  N   UNL     1       4.892  -3.790  23.501  0.00  0.00    -0.342 N 
ATOM     24  H   UNL     1       5.410  -3.648  22.641  0.00  0.00    +0.144 HD
ATOM     25  H   UNL     1       4.022  -4.295  23.360  0.00  0.00    +0.144 HD
ATOM     26  N   UNL     1       4.983  -5.479  25.076  0.00  0.00    -0.199 NA
ATOM     27  C   UNL     1       5.639  -6.134  26.031  0.00  0.00    +0.215 A 
ATOM     28  N   UNL     1       4.988  -7.173  26.664  0.00  0.00    -0.327 N 
ATOM     29  H   UNL     1       3.989  -7.044  26.590  0.00  0.00    +0.145 HD
ATOM     30  H   UNL     1       5.374  -7.299  27.589  0.00  0.00    +0.145 HD
ATOM     31  N   UNL     1       6.870  -5.838  26.453  0.00  0.00    -0.219 NA
ATOM     32  C   UNL     1       7.517  -4.823  25.831  0.00  0.00    +0.060 A 
ATOM     33  C   UNL     1       8.896  -4.544  26.356  0.00  0.00    +0.067 C 
ENDBRANCH  20  21
ENDBRANCH   1  19
TORSDOF 5
ENDMDL
MODEL 9
REMARK VINA RESULT:      -7.1      4.236      9.202
REMARK  Name = 
REMARK  10 active torsions:
REMARK  status: ('A' for Active; 'I' for Inactive)
REMARK    1  A    between atoms: C_2  and  C_3
REMARK    2  A    between atoms: C_2  and  C_4
REMARK    3  A    between atoms: C_2  and  C_15
REMARK    4  A    between atoms: C_5  and  C_6
REMARK    5  A    between atoms: C_7  and  C_8
REMARK    6  A    between atoms: C_17  and  O_18
REMARK    7  A    between atoms: O_18  and  C_19
REMARK    8  A    between atoms: C_21  and  C_23
REMARK    9  A    between atoms: C_25  and  C_26
REMARK   10  A    between atoms: C_28  and  C_29
REMARK                            x       y       z     vdW  Elec       q    Type
REMARK                         _______ _______ _______ _____ _____    ______ ____
ROOT
ATOM      1  C   UNL     1       7.244  -5.306  23.099  0.00  0.00    +0.091 C 
ATOM      2  C   UNL     1       7.075  -5.612  21.609  0.00  0.00    +0.026 C 
ENDROOT
BRANCH   1   3
ATOM      3  C   UNL     1       5.885  -5.359  23.784  0.00  0.00    -0.029 A 
ATOM      4  C   UNL     1       5.742  -5.174  25.171  0.00  0.00    +0.013 A 
ATOM      5  C   UNL     1       4.483  -5.162  25.800  0.00  0.00    -0.014 A 
ATOM      6  C   UNL     1       3.349  -5.330  24.983  0.00  0.00    +0.054 A 
ATOM      7  C   UNL     1       3.458  -5.490  23.600  0.00  0.00    +0.121 A 
ATOM      8  C   UNL     1       4.723  -5.510  23.011  0.00  0.00    +0.050 A 
BRANCH   5   9
ATOM      9  C   UNL     1       4.347  -4.971  27.265  0.00  0.00    -0.017 A 
ATOM     10  C   UNL     1       5.161  -5.677  28.169  0.00  0.00    +0.012 A 
ATOM     11  C   UNL     1       5.075  -5.483  29.556  0.00  0.00    -0.050 A 
ATOM     12  C   UNL     1       5.991  -6.242  30.469  0.00  0.00    +0.044 C 
ATOM     13  C   UNL     1       4.137  -4.579  30.058  0.00  0.00    +0.006 A 
ATOM     14  C   UNL     1       3.297  -3.870  29.193  0.00  0.00    -0.050 A 
ATOM     15  C   UNL     1       2.301  -2.896  29.747  0.00  0.00    +0.044 C 
ATOM     16  C   UNL     1       3.414  -4.068  27.807  0.00  0.00    +0.012 A 
ENDBRANCH   5   9
BRANCH   7  17
ATOM     17  O   UNL     1       2.409  -5.626  22.730  0.00  0.00    -0.495 OA
ATOM     18  C   UNL     1       1.116  -5.297  23.229  0.00  0.00    +0.277 C 
ENDBRANCH   7  17
ENDBRANCH   1   3
BRANCH   1  19
ATOM     19  C   UNL     1       7.944  -4.014  23.275  0.00  0.00    -0.089 C 
ATOM     20  C   UNL     1       8.484  -2.948  23.418  0.00  0.00    -0.060 C 
BRANCH  20  21
ATOM     21  C   UNL     1       9.084  -1.662  23.629  0.00  0.00    +0.085 A 
ATOM     22  C   UNL     1       9.635  -0.932  22.580  0.00  0.00    +0.137 A 
ATOM     23  N   UNL     1       9.736  -1.455  21.285  0.00  0.00    -0.342 N 
ATOM     24  H   UNL     1       8.864  -1.855  20.960  0.00  0.00    +0.144 HD
ATOM     25  H   UNL     1      10.084  -0.718  20.678  0.00  0.00    +0.144 HD
ATOM     26  N   UNL     1      10.166   0.292  22.737  0.00  0.00    -0.199 NA
ATOM     27  C   UNL     1      10.129   0.812  23.962  0.00  0.00    +0.215 A 
ATOM     28  N   UNL     1      10.662   2.071  24.144  0.00  0.00    -0.327 N 
ATOM     29  H   UNL     1      11.343   2.260  23.423  0.00  0.00    +0.145 HD
ATOM     30  H   UNL     1      10.960   2.177  25.104  0.00  0.00    +0.145 HD
ATOM     31  N   UNL     1       9.650   0.190  25.042  0.00  0.00    -0.219 NA
ATOM     32  C   UNL     1       9.120  -1.044  24.869  0.00  0.00    +0.060 A 
ATOM     33  C   UNL     1       8.601  -1.685  26.123  0.00  0.00    +0.067 C 
ENDBRANCH  20  21
ENDBRANCH   1  19
TORSDOF 5
ENDMDL
