MODEL 1
REMARK VINA RESULT:      -4.3      0.000      0.000
REMARK  Name = 
REMARK  4 active torsions:
REMARK  status: ('A' for Active; 'I' for Inactive)
REMARK    1  A    between atoms: CB_1  and  CA_2
REMARK    2  A    between atoms: CA_2  and  N_4
REMARK    3  A    between atoms: CA_2  and  C_8
REMARK    4  A    between atoms: C_8  and  O_9
REMARK                            x       y       z     vdW  Elec       q    Type
REMARK                         _______ _______ _______ _____ _____    ______ ____
ROOT
ATOM      1  N   ALA A   1      10.032   0.687  23.152  0.00  0.00    -0.287 N 
ATOM      2  H   ALA A   1      10.975   0.868  23.461  0.00  0.00    +0.151 HD
ATOM      3  C   UNK A   0       9.656   1.327  22.017  0.00  0.00    +0.298 C 
ATOM      4  O   UNK A   0       8.703   0.994  21.330  0.00  0.00    -0.253 OA
ATOM      5  N   UNK A   0      10.418   2.408  21.741  0.00  0.00    -0.313 N 
ATOM      6  H   UNK A   0      10.068   2.966  20.970  0.00  0.00    +0.146 HD
ATOM      7  H   UNK A   0      10.750   2.952  22.526  0.00  0.00    +0.146 HD
ENDROOT
BRANCH   1   9
ATOM      8  CB  ALA A   1       9.338  -0.663  25.142  0.00  0.00    +0.040 C 
ATOM      9  CA  ALA A   1       9.413  -0.554  23.623  0.00  0.00    +0.180 C 
BRANCH   9  10
ATOM     10  C   ALA A   1      10.047  -1.812  23.010  0.00  0.00    +0.325 C 
ATOM     11  OXT ALA A   1      10.325  -2.806  23.671  0.00  0.00    -0.249 OA
BRANCH  10  12
ATOM     12  O   ALA A   1      10.325  -1.733  21.690  0.00  0.00    -0.479 OA
ATOM     13  H   ALA A   1       9.535  -1.511  21.138  0.00  0.00    +0.295 HD
ENDBRANCH  10  12
ENDBRANCH   9  10
ENDBRANCH   1   9
TORSDOF 3
ENDMDL
MODEL 2
REMARK VINA RESULT:      -4.1      1.853      3.683
REMARK  Name = 
REMARK  4 active torsions:
REMARK  status: ('A' for Active; 'I' for Inactive)
REMARK    1  A    between atoms: CB_1  and  CA_2
REMARK    2  A    between atoms: CA_2  and  N_4
REMARK    3  A    between atoms: CA_2  and  C_8
REMARK    4  A    between atoms: C_8  and  O_9
REMARK                            x       y       z     vdW  Elec       q    Type
REMARK                         _______ _______ _______ _____ _____    ______ ____
ROOT
ATOM      1  N   ALA A   1       9.416  -0.693  23.685  0.00  0.00    -0.287 N 
ATOM      2  H   ALA A   1       8.457  -0.422  23.848  0.00  0.00    +0.151 HD
ATOM      3  C   UNK A   0       9.626  -2.019  23.498  0.00  0.00    +0.298 C 
ATOM      4  O   UNK A   0      10.629  -2.484  22.980  0.00  0.00    -0.253 OA
ATOM      5  N   UNK A   0       8.626  -2.788  23.983  0.00  0.00    -0.313 N 
ATOM      6  H   UNK A   0       8.831  -3.780  23.964  0.00  0.00    +0.146 HD
ATOM      7  H   UNK A   0       8.175  -2.477  24.832  0.00  0.00    +0.146 HD
ENDROOT
BRANCH   1   9
ATOM      8  CB  ALA A   1      10.668   1.409  24.218  0.00  0.00    +0.040 C 
ATOM      9  CA  ALA A   1      10.316   0.348  23.180  0.00  0.00    +0.180 C 
BRANCH   9  10
ATOM     10  C   ALA A   1       9.817   0.993  21.879  0.00  0.00    +0.325 C 
ATOM     11  OXT ALA A   1       9.110   0.402  21.072  0.00  0.00    -0.249 OA
BRANCH  10  12
ATOM     12  O   ALA A   1      10.252   2.253  21.656  0.00  0.00    -0.479 OA
ATOM     13  H   ALA A   1      11.188   2.291  21.335  0.00  0.00    +0.295 HD
ENDBRANCH  10  12
ENDBRANCH   9  10
ENDBRANCH   1   9
TORSDOF 3
ENDMDL
MODEL 3
REMARK VINA RESULT:      -4.0      4.627      5.988
REMARK  Name = 
REMARK  4 active torsions:
REMARK  status: ('A' for Active; 'I' for Inactive)
REMARK    1  A    between atoms: CB_1  and  CA_2
REMARK    2  A    between atoms: CA_2  and  N_4
REMARK    3  A    between atoms: CA_2  and  C_8
REMARK    4  A    between atoms: C_8  and  O_9
REMARK                            x       y       z     vdW  Elec       q    Type
REMARK                         _______ _______ _______ _____ _____    ______ ____
ROOT
ATOM      1  N   ALA A   1      10.639   4.098  22.792  0.00  0.00    -0.287 N 
ATOM      2  H   ALA A   1      10.911   4.358  21.855  0.00  0.00    +0.151 HD
ATOM      3  C   UNK A   0      10.414   2.776  22.991  0.00  0.00    +0.298 C 
ATOM      4  O   UNK A   0      10.399   2.245  24.090  0.00  0.00    -0.253 OA
ATOM      5  N   UNK A   0      10.163   2.103  21.847  0.00  0.00    -0.313 N 
ATOM      6  H   UNK A   0       9.867   1.145  21.995  0.00  0.00    +0.146 HD
ATOM      7  H   UNK A   0       9.639   2.589  21.131  0.00  0.00    +0.146 HD
ENDROOT
BRANCH   1   9
ATOM      8  CB  ALA A   1      10.071   6.220  23.993  0.00  0.00    +0.040 C 
ATOM      9  CA  ALA A   1      11.010   5.026  23.864  0.00  0.00    +0.180 C 
BRANCH   9  10
ATOM     10  C   ALA A   1      12.475   5.482  23.784  0.00  0.00    +0.325 C 
ATOM     11  OXT ALA A   1      13.273   5.015  22.980  0.00  0.00    -0.249 OA
BRANCH  10  12
ATOM     12  O   ALA A   1      12.841   6.407  24.698  0.00  0.00    -0.479 OA
ATOM     13  H   ALA A   1      13.791   6.334  24.968  0.00  0.00    +0.295 HD
ENDBRANCH  10  12
ENDBRANCH   9  10
ENDBRANCH   1   9
TORSDOF 3
ENDMDL
MODEL 4
REMARK VINA RESULT:      -4.0      3.350      4.461
REMARK  Name = 
REMARK  4 active torsions:
REMARK  status: ('A' for Active; 'I' for Inactive)
REMARK    1  A    between atoms: CB_1  and  CA_2
REMARK    2  A    between atoms: CA_2  and  N_4
REMARK    3  A    between atoms: CA_2  and  C_8
REMARK    4  A    between atoms: C_8  and  O_9
REMARK                            x       y       z     vdW  Elec       q    Type
REMARK                         _______ _______ _______ _____ _____    ______ ____
ROOT
ATOM      1  N   ALA A   1       8.727  -2.985  24.532  0.00  0.00    -0.287 N 
ATOM      2  H   ALA A   1       8.370  -2.660  25.418  0.00  0.00    +0.151 HD
ATOM      3  C   UNK A   0       9.712  -2.230  23.985  0.00  0.00    +0.298 C 
ATOM      4  O   UNK A   0      10.470  -2.624  23.113  0.00  0.00    -0.253 OA
ATOM      5  N   UNK A   0       9.746  -0.970  24.473  0.00  0.00    -0.313 N 
ATOM      6  H   UNK A   0      10.391  -0.361  23.983  0.00  0.00    +0.146 HD
ATOM      7  H   UNK A   0       8.860  -0.537  24.696  0.00  0.00    +0.146 HD
ENDROOT
BRANCH   1   9
ATOM      8  CB  ALA A   1       7.116  -4.745  23.775  0.00  0.00    +0.040 C 
ATOM      9  CA  ALA A   1       8.533  -4.404  24.225  0.00  0.00    +0.180 C 
BRANCH   9  10
ATOM     10  C   ALA A   1       8.988  -5.332  25.362  0.00  0.00    +0.325 C 
ATOM     11  OXT ALA A   1       8.225  -5.751  26.223  0.00  0.00    -0.249 OA
BRANCH  10  12
ATOM     12  O   ALA A   1      10.309  -5.620  25.376  0.00  0.00    -0.479 OA
ATOM     13  H   ALA A   1      10.499  -6.581  25.231  0.00  0.00    +0.295 HD
ENDBRANCH  10  12
ENDBRANCH   9  10
ENDBRANCH   1   9
TORSDOF 3
ENDMDL
MODEL 5
REMARK VINA RESULT:      -3.9      5.197      6.430
REMARK  Name = 
REMARK  4 active torsions:
REMARK  status: ('A' for Active; 'I' for Inactive)
REMARK    1  A    between atoms: CB_1  and  CA_2
REMARK    2  A    between atoms: CA_2  and  N_4
REMARK    3  A    between atoms: CA_2  and  C_8
REMARK    4  A    between atoms: C_8  and  O_9
REMARK                            x       y       z     vdW  Elec       q    Type
REMARK                         _______ _______ _______ _____ _____    ______ ____
ROOT
ATOM      1  N   ALA A   1       7.480  -5.101  24.301  0.00  0.00    -0.287 N 
ATOM      2  H   ALA A   1       6.647  -5.577  24.613  0.00  0.00    +0.151 HD
ATOM      3  C   UNK A   0       8.585  -5.294  25.062  0.00  0.00    +0.298 C 
ATOM      4  O   UNK A   0       9.724  -5.078  24.679  0.00  0.00    -0.253 OA
ATOM      5  N   UNK A   0       8.299  -5.713  26.314  0.00  0.00    -0.313 N 
ATOM      6  H   UNK A   0       9.104  -5.736  26.929  0.00  0.00    +0.146 HD
ATOM      7  H   UNK A   0       7.463  -5.341  26.745  0.00  0.00    +0.146 HD
ENDROOT
BRANCH   1   9
ATOM      8  CB  ALA A   1       7.574  -3.216  22.655  0.00  0.00    +0.040 C 
ATOM      9  CA  ALA A   1       7.530  -4.723  22.885  0.00  0.00    +0.180 C 
BRANCH   9  10
ATOM     10  C   ALA A   1       6.418  -5.377  22.050  0.00  0.00    +0.325 C 
ATOM     11  OXT ALA A   1       5.604  -4.728  21.404  0.00  0.00    -0.249 OA
BRANCH  10  12
ATOM     12  O   ALA A   1       6.365  -6.725  22.115  0.00  0.00    -0.479 OA
ATOM     13  H   ALA A   1       6.154  -7.149  21.246  0.00  0.00    +0.295 HD
ENDBRANCH  10  12
ENDBRANCH   9  10
ENDBRANCH   1   9
TORSDOF 3
ENDMDL
MODEL 6
REMARK VINA RESULT:      -3.8      2.544      4.229
REMARK  Name = 
REMARK  4 active torsions:
REMARK  status: ('A' for Active; 'I' for Inactive)
REMARK    1  A    between atoms: CB_1  and  CA_2
REMARK    2  A    between atoms: CA_2  and  N_4
REMARK    3  A    between atoms: CA_2  and  C_8
REMARK    4  A    between atoms: C_8  and  O_9
REMARK                            x       y       z     vdW  Elec       q    Type
REMARK                         _______ _______ _______ _____ _____    ______ ____
ROOT
ATOM      1  N   ALA A   1       9.436   1.923  24.807  0.00  0.00    -0.287 N 
ATOM      2  H   ALA A   1       8.542   1.930  25.275  0.00  0.00    +0.151 HD
ATOM      3  C   UNK A   0      10.100   0.741  24.831  0.00  0.00    +0.298 C 
ATOM      4  O   UNK A   0      11.009   0.453  24.068  0.00  0.00    -0.253 OA
ATOM      5  N   UNK A   0       9.685  -0.080  25.820  0.00  0.00    -0.313 N 
ATOM      6  H   UNK A   0      10.258  -0.908  25.929  0.00  0.00    +0.146 HD
ATOM      7  H   UNK A   0       9.414   0.351  26.695  0.00  0.00    +0.146 HD
ENDROOT
BRANCH   1   9
ATOM      8  CB  ALA A   1       9.181   4.339  24.201  0.00  0.00    +0.040 C 
ATOM      9  CA  ALA A   1       9.649   2.949  23.783  0.00  0.00    +0.180 C 
BRANCH   9  10
ATOM     10  C   ALA A   1       9.070   2.560  22.413  0.00  0.00    +0.325 C 
ATOM     11  OXT ALA A   1       7.881   2.665  22.142  0.00  0.00    -0.249 OA
BRANCH  10  12
ATOM     12  O   ALA A   1       9.961   2.046  21.536  0.00  0.00    -0.479 OA
ATOM     13  H   ALA A   1       9.586   1.315  20.985  0.00  0.00    +0.295 HD
ENDBRANCH  10  12
ENDBRANCH   9  10
ENDBRANCH   1   9
TORSDOF 3
ENDMDL
MODEL 7
REMARK VINA RESULT:      -3.7      2.163      2.500
REMARK  Name = 
REMARK  4 active torsions:
REMARK  status: ('A' for Active; 'I' for Inactive)
REMARK    1  A    between atoms: CB_1  and  CA_2
REMARK    2  A    between atoms: CA_2  and  N_4
REMARK    3  A    between atoms: CA_2  and  C_8
REMARK    4  A    between atoms: C_8  and  O_9
REMARK                            x       y       z     vdW  Elec       q    Type
REMARK                         _______ _______ _______ _____ _____    ______ ____
ROOT
ATOM      1  N   ALA A   1       8.498   0.055  23.230  0.00  0.00    -0.287 N 
ATOM      2  H   ALA A   1       8.625   0.301  22.260  0.00  0.00    +0.151 HD
ATOM      3  C   UNK A   0       7.212  -0.089  23.634  0.00  0.00    +0.298 C 
ATOM      4  O   UNK A   0       6.878  -0.683  24.648  0.00  0.00    -0.253 OA
ATOM      5  N   UNK A   0       6.329   0.532  22.823  0.00  0.00    -0.313 N 
ATOM      6  H   UNK A   0       5.381   0.540  23.183  0.00  0.00    +0.146 HD
ATOM      7  H   UNK A   0       6.619   1.407  22.408  0.00  0.00    +0.146 HD
ENDROOT
BRANCH   1   9
ATOM      8  CB  ALA A   1      10.797   0.356  24.175  0.00  0.00    +0.040 C 
ATOM      9  CA  ALA A   1       9.632  -0.589  23.899  0.00  0.00    +0.180 C 
BRANCH   9  10
ATOM     10  C   ALA A   1      10.111  -1.859  23.179  0.00  0.00    +0.325 C 
ATOM     11  OXT ALA A   1      10.273  -2.928  23.756  0.00  0.00    -0.249 OA
BRANCH  10  12
ATOM     12  O   ALA A   1      10.390  -1.707  21.866  0.00  0.00    -0.479 OA
ATOM     13  H   ALA A   1       9.598  -1.825  21.283  0.00  0.00    +0.295 HD
ENDBRANCH  10  12
ENDBRANCH   9  10
ENDBRANCH   1   9
TORSDOF 3
ENDMDL
MODEL 8
REMARK VINA RESULT:      -3.6      4.665      6.092
REMARK  Name = 
REMARK  4 active torsions:
REMARK  status: ('A' for Active; 'I' for Inactive)
REMARK    1  A    between atoms: CB_1  and  CA_2
REMARK    2  A    between atoms: CA_2  and  N_4
REMARK    3  A    between atoms: CA_2  and  C_8
REMARK    4  A    between atoms: C_8  and  O_9
REMARK                            x       y       z     vdW  Elec       q    Type
REMARK                         _______ _______ _______ _____ _____    ______ ____
ROOT
ATOM      1  N   ALA A   1       8.673  -4.935  24.139  0.00  0.00    -0.287 N 
ATOM      2  H   ALA A   1       9.468  -4.431  23.775  0.00  0.00    +0.151 HD
ATOM      3  C   UNK A   0       8.795  -5.380  25.413  0.00  0.00    +0.298 C 
ATOM      4  O   UNK A   0       7.850  -5.711  26.113  0.00  0.00    -0.253 OA
ATOM      5  N   UNK A   0      10.079  -5.467  25.824  0.00  0.00    -0.313 N 
ATOM      6  H   UNK A   0      10.188  -5.919  26.725  0.00  0.00    +0.146 HD
ATOM      7  H   UNK A   0      10.766  -5.747  25.137  0.00  0.00    +0.146 HD
ENDROOT
BRANCH   1   9
ATOM      8  CB  ALA A   1       6.940  -5.799  22.552  0.00  0.00    +0.040 C 
ATOM      9  CA  ALA A   1       7.384  -4.682  23.490  0.00  0.00    +0.180 C 
BRANCH   9  10
ATOM     10  C   ALA A   1       7.321  -3.316  22.789  0.00  0.00    +0.325 C 
ATOM     11  OXT ALA A   1       8.316  -2.635  22.572  0.00  0.00    -0.249 OA
BRANCH  10  12
ATOM     12  O   ALA A   1       6.080  -2.889  22.468  0.00  0.00    -0.479 OA
ATOM     13  H   ALA A   1       5.383  -3.211  23.094  0.00  0.00    +0.295 HD
ENDBRANCH  10  12
ENDBRANCH   9  10
ENDBRANCH   1   9
TORSDOF 3
ENDMDL
MODEL 9
REMARK VINA RESULT:      -3.6      4.104      5.691
REMARK  Name = 
REMARK  4 active torsions:
REMARK  status: ('A' for Active; 'I' for Inactive)
REMARK    1  A    between atoms: CB_1  and  CA_2
REMARK    2  A    between atoms: CA_2  and  N_4
REMARK    3  A    between atoms: CA_2  and  C_8
REMARK    4  A    between atoms: C_8  and  O_9
REMARK                            x       y       z     vdW  Elec       q    Type
REMARK                         _______ _______ _______ _____ _____    ______ ____
ROOT
ATOM      1  N   ALA A   1       9.302   3.599  22.917  0.00  0.00    -0.287 N 
ATOM      2  H   ALA A   1       9.000   4.028  22.054  0.00  0.00    +0.151 HD
ATOM      3  C   UNK A   0      10.000   2.445  22.784  0.00  0.00    +0.298 C 
ATOM      4  O   UNK A   0      10.707   1.970  23.660  0.00  0.00    -0.253 OA
ATOM      5  N   UNK A   0       9.803   1.840  21.592  0.00  0.00    -0.313 N 
ATOM      6  H   UNK A   0      10.215   0.916  21.531  0.00  0.00    +0.146 HD
ATOM      7  H   UNK A   0       8.877   1.905  21.189  0.00  0.00    +0.146 HD
ENDROOT
BRANCH   1   9
ATOM      8  CB  ALA A   1       8.108   4.606  24.874  0.00  0.00    +0.040 C 
ATOM      9  CA  ALA A   1       9.407   4.478  24.085  0.00  0.00    +0.180 C 
BRANCH   9  10
ATOM     10  C   ALA A   1       9.985   5.861  23.746  0.00  0.00    +0.325 C 
ATOM     11  OXT ALA A   1       9.453   6.907  24.096  0.00  0.00    -0.249 OA
BRANCH  10  12
ATOM     12  O   ALA A   1      11.105   5.847  22.989  0.00  0.00    -0.479 OA
ATOM     13  H   ALA A   1      11.909   6.156  23.477  0.00  0.00    +0.295 HD
ENDBRANCH  10  12
ENDBRANCH   9  10
ENDBRANCH   1   9
TORSDOF 3
ENDMDL
