MODEL 1
REMARK VINA RESULT:      -7.7      0.000      0.000
REMARK  Name = 
REMARK  4 active torsions:
REMARK  status: ('A' for Active; 'I' for Inactive)
REMARK    1  A    between atoms: N_2  and  C_4
REMARK    2  A    between atoms: C_5  and  C_14
REMARK    3  A    between atoms: C_8  and  C_10
REMARK    4  A    between atoms: C_14  and  C_16
REMARK                            x       y       z     vdW  Elec       q    Type
REMARK                         _______ _______ _______ _____ _____    ______ ____
ROOT
ATOM      1  C   UNL     1       8.237  -3.892  24.215  0.00  0.00    +0.284 A 
ATOM      2  C   UNL     1       7.677  -4.916  23.433  0.00  0.00    +0.097 A 
ATOM      3  C   UNL     1       6.664  -4.611  22.514  0.00  0.00    +0.061 A 
ATOM      4  C   UNL     1       6.224  -3.279  22.416  0.00  0.00    +0.013 A 
ATOM      5  C   UNL     1       6.800  -2.259  23.195  0.00  0.00    +0.019 A 
ATOM      6  C   UNL     1       7.827  -2.554  24.098  0.00  0.00    +0.096 A 
ENDROOT
BRANCH   3   7
ATOM      7  C   UNL     1       6.074  -5.709  21.656  0.00  0.00    +0.418 C 
ATOM      8  F   UNL     1       4.781  -5.978  21.983  0.00  0.00    -0.166 F 
ATOM      9  F   UNL     1       6.748  -6.884  21.788  0.00  0.00    -0.166 F 
ATOM     10  F   UNL     1       6.076  -5.421  20.326  0.00  0.00    -0.166 F 
ENDBRANCH   3   7
BRANCH   1  12
ATOM     11  O   UNL     1       8.808  -4.365  26.387  0.00  0.00    -0.576 OA
ATOM     12  N   UNL     1       9.214  -4.284  25.217  0.00  0.00    +0.080 N 
ATOM     13  O   UNL     1      10.345  -4.592  24.817  0.00  0.00    +0.041 OA
ENDBRANCH   1  12
BRANCH   6  14
ATOM     14  C   UNL     1       8.604  -1.471  24.765  0.00  0.00    +0.187 C 
ATOM     15  O   UNL     1       8.325  -1.249  25.940  0.00  0.00    -0.291 OA
BRANCH  14  16
ATOM     16  C   UNL     1       9.724  -0.731  24.068  0.00  0.00    +0.192 C 
ATOM     17  C   UNL     1       9.396   0.741  23.959  0.00  0.00    +0.151 C 
ATOM     18  O   UNL     1       9.899   1.573  24.712  0.00  0.00    -0.296 OA
ATOM     19  C   UNL     1       8.431   1.130  22.867  0.00  0.00    +0.076 C 
ATOM     20  C   UNL     1       9.094   0.770  21.552  0.00  0.00    +0.015 C 
ATOM     21  C   UNL     1       9.400  -0.724  21.469  0.00  0.00    +0.076 C 
ATOM     22  C   UNL     1      10.069  -1.298  22.712  0.00  0.00    +0.151 C 
ATOM     23  O   UNL     1      10.783  -2.302  22.627  0.00  0.00    -0.296 OA
ENDBRANCH  14  16
ENDBRANCH   6  14
TORSDOF 4
ENDMDL
MODEL 2
REMARK VINA RESULT:      -7.1      1.184      2.033
REMARK  Name = 
REMARK  4 active torsions:
REMARK  status: ('A' for Active; 'I' for Inactive)
REMARK    1  A    between atoms: N_2  and  C_4
REMARK    2  A    between atoms: C_5  and  C_14
REMARK    3  A    between atoms: C_8  and  C_10
REMARK    4  A    between atoms: C_14  and  C_16
REMARK                            x       y       z     vdW  Elec       q    Type
REMARK                         _______ _______ _______ _____ _____    ______ ____
ROOT
ATOM      1  C   UNL     1       8.495  -3.950  23.890  0.00  0.00    +0.284 A 
ATOM      2  C   UNL     1       7.707  -5.003  23.398  0.00  0.00    +0.097 A 
ATOM      3  C   UNL     1       6.825  -4.773  22.334  0.00  0.00    +0.061 A 
ATOM      4  C   UNL     1       6.743  -3.475  21.798  0.00  0.00    +0.013 A 
ATOM      5  C   UNL     1       7.546  -2.429  22.288  0.00  0.00    +0.019 A 
ATOM      6  C   UNL     1       8.444  -2.659  23.336  0.00  0.00    +0.096 A 
ENDROOT
BRANCH   3   7
ATOM      7  C   UNL     1       5.991  -5.912  21.790  0.00  0.00    +0.418 C 
ATOM      8  F   UNL     1       4.714  -5.885  22.261  0.00  0.00    -0.166 F 
ATOM      9  F   UNL     1       6.494  -7.129  22.136  0.00  0.00    -0.166 F 
ATOM     10  F   UNL     1       5.894  -5.916  20.433  0.00  0.00    -0.166 F 
ENDBRANCH   3   7
BRANCH   1  12
ATOM     11  O   UNL     1       8.822  -3.958  26.161  0.00  0.00    -0.576 OA
ATOM     12  N   UNL     1       9.317  -4.225  25.055  0.00  0.00    +0.080 N 
ATOM     13  O   UNL     1      10.406  -4.785  24.862  0.00  0.00    +0.041 OA
ENDBRANCH   1  12
BRANCH   6  14
ATOM     14  C   UNL     1       9.459  -1.638  23.722  0.00  0.00    +0.187 C 
ATOM     15  O   UNL     1      10.413  -1.507  22.960  0.00  0.00    -0.291 OA
BRANCH  14  16
ATOM     16  C   UNL     1       9.298  -0.756  24.941  0.00  0.00    +0.192 C 
ATOM     17  C   UNL     1       7.834  -0.490  25.208  0.00  0.00    +0.151 C 
ATOM     18  O   UNL     1       7.219  -1.083  26.093  0.00  0.00    -0.296 OA
ATOM     19  C   UNL     1       7.177   0.554  24.340  0.00  0.00    +0.076 C 
ATOM     20  C   UNL     1       7.881   1.865  24.627  0.00  0.00    +0.015 C 
ATOM     21  C   UNL     1       9.372   1.783  24.306  0.00  0.00    +0.076 C 
ATOM     22  C   UNL     1      10.065   0.541  24.852  0.00  0.00    +0.151 C 
ATOM     23  O   UNL     1      11.275   0.559  25.095  0.00  0.00    -0.296 OA
ENDBRANCH  14  16
ENDBRANCH   6  14
TORSDOF 4
ENDMDL
MODEL 3
REMARK VINA RESULT:      -7.1      1.264      2.369
REMARK  Name = 
REMARK  4 active torsions:
REMARK  status: ('A' for Active; 'I' for Inactive)
REMARK    1  A    between atoms: N_2  and  C_4
REMARK    2  A    between atoms: C_5  and  C_14
REMARK    3  A    between atoms: C_8  and  C_10
REMARK    4  A    between atoms: C_14  and  C_16
REMARK                            x       y       z     vdW  Elec       q    Type
REMARK                         _______ _______ _______ _____ _____    ______ ____
ROOT
ATOM      1  C   UNL     1       7.948  -3.273  23.687  0.00  0.00    +0.284 A 
ATOM      2  C   UNL     1       7.596  -4.474  23.049  0.00  0.00    +0.097 A 
ATOM      3  C   UNL     1       6.420  -4.540  22.291  0.00  0.00    +0.061 A 
ATOM      4  C   UNL     1       5.611  -3.393  22.206  0.00  0.00    +0.013 A 
ATOM      5  C   UNL     1       5.977  -2.190  22.837  0.00  0.00    +0.019 A 
ATOM      6  C   UNL     1       7.162  -2.113  23.578  0.00  0.00    +0.096 A 
ENDROOT
BRANCH   3   7
ATOM      7  C   UNL     1       6.052  -5.827  21.586  0.00  0.00    +0.418 C 
ATOM      8  F   UNL     1       6.104  -5.704  20.231  0.00  0.00    -0.166 F 
ATOM      9  F   UNL     1       4.786  -6.231  21.879  0.00  0.00    -0.166 F 
ATOM     10  F   UNL     1       6.864  -6.872  21.902  0.00  0.00    -0.166 F 
ENDBRANCH   3   7
BRANCH   1  12
ATOM     11  O   UNL     1       8.937  -3.526  25.742  0.00  0.00    -0.576 OA
ATOM     12  N   UNL     1       9.125  -3.294  24.537  0.00  0.00    +0.080 N 
ATOM     13  O   UNL     1      10.227  -3.170  23.984  0.00  0.00    +0.041 OA
ENDBRANCH   1  12
BRANCH   6  14
ATOM     14  C   UNL     1       7.685  -0.805  24.065  0.00  0.00    +0.187 C 
ATOM     15  O   UNL     1       7.708  -0.650  25.282  0.00  0.00    -0.291 OA
BRANCH  14  16
ATOM     16  C   UNL     1       8.229   0.249  23.126  0.00  0.00    +0.192 C 
ATOM     17  C   UNL     1       9.671  -0.045  22.780  0.00  0.00    +0.151 C 
ATOM     18  O   UNL     1       9.988  -0.547  21.703  0.00  0.00    -0.296 OA
ATOM     19  C   UNL     1      10.695   0.325  23.824  0.00  0.00    +0.076 C 
ATOM     20  C   UNL     1      10.623   1.830  23.989  0.00  0.00    +0.015 C 
ATOM     21  C   UNL     1       9.235   2.279  24.440  0.00  0.00    +0.076 C 
ATOM     22  C   UNL     1       8.087   1.657  23.654  0.00  0.00    +0.151 C 
ATOM     23  O   UNL     1       7.005   2.243  23.563  0.00  0.00    -0.296 OA
ENDBRANCH  14  16
ENDBRANCH   6  14
TORSDOF 4
ENDMDL
MODEL 4
REMARK VINA RESULT:      -7.0      3.804      6.009
REMARK  Name = 
REMARK  4 active torsions:
REMARK  status: ('A' for Active; 'I' for Inactive)
REMARK    1  A    between atoms: N_2  and  C_4
REMARK    2  A    between atoms: C_5  and  C_14
REMARK    3  A    between atoms: C_8  and  C_10
REMARK    4  A    between atoms: C_14  and  C_16
REMARK                            x       y       z     vdW  Elec       q    Type
REMARK                         _______ _______ _______ _____ _____    ______ ____
ROOT
ATOM      1  C   UNL     1       8.969  -3.054  24.259  0.00  0.00    +0.284 A 
ATOM      2  C   UNL     1       9.659  -1.831  24.271  0.00  0.00    +0.097 A 
ATOM      3  C   UNL     1       9.376  -0.864  23.297  0.00  0.00    +0.061 A 
ATOM      4  C   UNL     1       8.410  -1.160  22.318  0.00  0.00    +0.013 A 
ATOM      5  C   UNL     1       7.715  -2.383  22.322  0.00  0.00    +0.019 A 
ATOM      6  C   UNL     1       7.979  -3.343  23.305  0.00  0.00    +0.096 A 
ENDROOT
BRANCH   3   7
ATOM      7  C   UNL     1      10.103   0.462  23.321  0.00  0.00    +0.418 C 
ATOM      8  F   UNL     1      11.285   0.387  23.992  0.00  0.00    -0.166 F 
ATOM      9  F   UNL     1       9.380   1.435  23.941  0.00  0.00    -0.166 F 
ATOM     10  F   UNL     1      10.400   0.943  22.084  0.00  0.00    -0.166 F 
ENDBRANCH   3   7
BRANCH   1  12
ATOM     11  O   UNL     1      10.203  -4.895  24.854  0.00  0.00    -0.576 OA
ATOM     12  N   UNL     1       9.374  -4.053  25.233  0.00  0.00    +0.080 N 
ATOM     13  O   UNL     1       8.934  -3.933  26.385  0.00  0.00    +0.041 OA
ENDBRANCH   1  12
BRANCH   6  14
ATOM     14  C   UNL     1       7.108  -4.542  23.469  0.00  0.00    +0.187 C 
ATOM     15  O   UNL     1       7.607  -5.620  23.160  0.00  0.00    -0.291 OA
BRANCH  14  16
ATOM     16  C   UNL     1       5.714  -4.456  24.049  0.00  0.00    +0.192 C 
ATOM     17  C   UNL     1       5.769  -4.483  25.560  0.00  0.00    +0.151 C 
ATOM     18  O   UNL     1       5.642  -3.460  26.230  0.00  0.00    -0.296 OA
ATOM     19  C   UNL     1       5.974  -5.836  26.195  0.00  0.00    +0.076 C 
ATOM     20  C   UNL     1       4.769  -6.678  25.824  0.00  0.00    +0.015 C 
ATOM     21  C   UNL     1       4.634  -6.828  24.310  0.00  0.00    +0.076 C 
ATOM     22  C   UNL     1       4.780  -5.525  23.534  0.00  0.00    +0.151 C 
ATOM     23  O   UNL     1       4.244  -5.395  22.429  0.00  0.00    -0.296 OA
ENDBRANCH  14  16
ENDBRANCH   6  14
TORSDOF 4
ENDMDL
MODEL 5
REMARK VINA RESULT:      -6.8      4.064      6.300
REMARK  Name = 
REMARK  4 active torsions:
REMARK  status: ('A' for Active; 'I' for Inactive)
REMARK    1  A    between atoms: N_2  and  C_4
REMARK    2  A    between atoms: C_5  and  C_14
REMARK    3  A    between atoms: C_8  and  C_10
REMARK    4  A    between atoms: C_14  and  C_16
REMARK                            x       y       z     vdW  Elec       q    Type
REMARK                         _______ _______ _______ _____ _____    ______ ____
ROOT
ATOM      1  C   UNL     1       7.598  -1.198  23.870  0.00  0.00    +0.284 A 
ATOM      2  C   UNL     1       8.396  -0.089  24.193  0.00  0.00    +0.097 A 
ATOM      3  C   UNL     1       9.490   0.240  23.382  0.00  0.00    +0.061 A 
ATOM      4  C   UNL     1       9.767  -0.571  22.268  0.00  0.00    +0.013 A 
ATOM      5  C   UNL     1       8.955  -1.674  21.944  0.00  0.00    +0.019 A 
ATOM      6  C   UNL     1       7.848  -1.993  22.738  0.00  0.00    +0.096 A 
ENDROOT
BRANCH   3   7
ATOM      7  C   UNL     1      10.337   1.448  23.718  0.00  0.00    +0.418 C 
ATOM      8  F   UNL     1      10.709   2.139  22.606  0.00  0.00    -0.166 F 
ATOM      9  F   UNL     1      11.492   1.106  24.353  0.00  0.00    -0.166 F 
ATOM     10  F   UNL     1       9.711   2.344  24.529  0.00  0.00    -0.166 F 
ENDBRANCH   3   7
BRANCH   1  12
ATOM     11  O   UNL     1       6.842  -2.313  25.728  0.00  0.00    -0.576 OA
ATOM     12  N   UNL     1       6.538  -1.546  24.801  0.00  0.00    +0.080 N 
ATOM     13  O   UNL     1       5.444  -0.984  24.651  0.00  0.00    +0.041 OA
ENDBRANCH   1  12
BRANCH   6  14
ATOM     14  C   UNL     1       6.848  -3.006  22.298  0.00  0.00    +0.187 C 
ATOM     15  O   UNL     1       5.790  -2.568  21.856  0.00  0.00    -0.291 OA
BRANCH  14  16
ATOM     16  C   UNL     1       7.136  -4.491  22.322  0.00  0.00    +0.192 C 
ATOM     17  C   UNL     1       5.952  -5.267  21.790  0.00  0.00    +0.151 C 
ATOM     18  O   UNL     1       5.940  -5.728  20.650  0.00  0.00    -0.296 OA
ATOM     19  C   UNL     1       4.797  -5.455  22.742  0.00  0.00    +0.076 C 
ATOM     20  C   UNL     1       5.321  -6.273  23.906  0.00  0.00    +0.015 C 
ATOM     21  C   UNL     1       6.472  -5.564  24.617  0.00  0.00    +0.076 C 
ATOM     22  C   UNL     1       7.539  -5.006  23.683  0.00  0.00    +0.151 C 
ATOM     23  O   UNL     1       8.697  -4.853  24.082  0.00  0.00    -0.296 OA
ENDBRANCH  14  16
ENDBRANCH   6  14
TORSDOF 4
ENDMDL
MODEL 6
REMARK VINA RESULT:      -6.6      3.880      6.073
REMARK  Name = 
REMARK  4 active torsions:
REMARK  status: ('A' for Active; 'I' for Inactive)
REMARK    1  A    between atoms: N_2  and  C_4
REMARK    2  A    between atoms: C_5  and  C_14
REMARK    3  A    between atoms: C_8  and  C_10
REMARK    4  A    between atoms: C_14  and  C_16
REMARK                            x       y       z     vdW  Elec       q    Type
REMARK                         _______ _______ _______ _____ _____    ______ ____
ROOT
ATOM      1  C   UNL     1       8.520  -1.210  24.390  0.00  0.00    +0.284 A 
ATOM      2  C   UNL     1       9.006   0.099  24.232  0.00  0.00    +0.097 A 
ATOM      3  C   UNL     1       9.542   0.497  23.000  0.00  0.00    +0.061 A 
ATOM      4  C   UNL     1       9.594  -0.443  21.955  0.00  0.00    +0.013 A 
ATOM      5  C   UNL     1       9.093  -1.748  22.118  0.00  0.00    +0.019 A 
ATOM      6  C   UNL     1       8.537  -2.143  23.340  0.00  0.00    +0.096 A 
ENDROOT
BRANCH   3   7
ATOM      7  C   UNL     1      10.046   1.913  22.823  0.00  0.00    +0.418 C 
ATOM      8  F   UNL     1       9.050   2.832  22.951  0.00  0.00    -0.166 F 
ATOM      9  F   UNL     1      10.589   2.116  21.591  0.00  0.00    -0.166 F 
ATOM     10  F   UNL     1      11.004   2.266  23.721  0.00  0.00    -0.166 F 
ENDBRANCH   3   7
BRANCH   1  12
ATOM     11  O   UNL     1       8.778  -2.398  26.335  0.00  0.00    -0.576 OA
ATOM     12  N   UNL     1       8.067  -1.592  25.715  0.00  0.00    +0.080 N 
ATOM     13  O   UNL     1       7.060  -1.021  26.158  0.00  0.00    +0.041 OA
ENDBRANCH   1  12
BRANCH   6  14
ATOM     14  C   UNL     1       7.801  -3.432  23.472  0.00  0.00    +0.187 C 
ATOM     15  O   UNL     1       8.483  -4.422  23.722  0.00  0.00    -0.291 OA
BRANCH  14  16
ATOM     16  C   UNL     1       6.293  -3.517  23.378  0.00  0.00    +0.192 C 
ATOM     17  C   UNL     1       5.723  -4.154  24.625  0.00  0.00    +0.151 C 
ATOM     18  O   UNL     1       5.196  -3.484  25.511  0.00  0.00    -0.296 OA
ATOM     19  C   UNL     1       5.823  -5.657  24.711  0.00  0.00    +0.076 C 
ATOM     20  C   UNL     1       5.002  -6.215  23.566  0.00  0.00    +0.015 C 
ATOM     21  C   UNL     1       5.527  -5.734  22.214  0.00  0.00    +0.076 C 
ATOM     22  C   UNL     1       5.806  -4.238  22.144  0.00  0.00    +0.151 C 
ATOM     23  O   UNL     1       5.763  -3.647  21.062  0.00  0.00    -0.296 OA
ENDBRANCH  14  16
ENDBRANCH   6  14
TORSDOF 4
ENDMDL
MODEL 7
REMARK VINA RESULT:      -6.6      1.856      2.657
REMARK  Name = 
REMARK  4 active torsions:
REMARK  status: ('A' for Active; 'I' for Inactive)
REMARK    1  A    between atoms: N_2  and  C_4
REMARK    2  A    between atoms: C_5  and  C_14
REMARK    3  A    between atoms: C_8  and  C_10
REMARK    4  A    between atoms: C_14  and  C_16
REMARK                            x       y       z     vdW  Elec       q    Type
REMARK                         _______ _______ _______ _____ _____    ______ ____
ROOT
ATOM      1  C   UNL     1       6.677  -1.939  23.774  0.00  0.00    +0.284 A 
ATOM      2  C   UNL     1       5.699  -2.899  23.465  0.00  0.00    +0.097 A 
ATOM      3  C   UNL     1       6.068  -4.243  23.318  0.00  0.00    +0.061 A 
ATOM      4  C   UNL     1       7.423  -4.588  23.468  0.00  0.00    +0.013 A 
ATOM      5  C   UNL     1       8.394  -3.621  23.790  0.00  0.00    +0.019 A 
ATOM      6  C   UNL     1       8.027  -2.281  23.960  0.00  0.00    +0.096 A 
ENDROOT
BRANCH   3   7
ATOM      7  C   UNL     1       5.013  -5.281  23.007  0.00  0.00    +0.418 C 
ATOM      8  F   UNL     1       3.759  -4.752  22.997  0.00  0.00    -0.166 F 
ATOM      9  F   UNL     1       4.990  -6.284  23.927  0.00  0.00    -0.166 F 
ATOM     10  F   UNL     1       5.179  -5.882  21.797  0.00  0.00    -0.166 F 
ENDBRANCH   3   7
BRANCH   1  12
ATOM     11  O   UNL     1       6.593   0.167  22.865  0.00  0.00    -0.576 OA
ATOM     12  N   UNL     1       6.251  -0.551  23.819  0.00  0.00    +0.080 N 
ATOM     13  O   UNL     1       5.508  -0.215  24.752  0.00  0.00    +0.041 OA
ENDBRANCH   1  12
BRANCH   6  14
ATOM     14  C   UNL     1       8.983  -1.283  24.517  0.00  0.00    +0.187 C 
ATOM     15  O   UNL     1       8.781  -0.925  25.673  0.00  0.00    -0.291 OA
BRANCH  14  16
ATOM     16  C   UNL     1      10.181  -0.787  23.737  0.00  0.00    +0.192 C 
ATOM     17  C   UNL     1      10.592   0.586  24.218  0.00  0.00    +0.151 C 
ATOM     18  O   UNL     1      11.556   0.749  24.964  0.00  0.00    -0.296 OA
ATOM     19  C   UNL     1       9.762   1.742  23.718  0.00  0.00    +0.076 C 
ATOM     20  C   UNL     1       9.930   1.779  22.212  0.00  0.00    +0.015 C 
ATOM     21  C   UNL     1       9.457   0.480  21.563  0.00  0.00    +0.076 C 
ATOM     22  C   UNL     1       9.969  -0.784  22.242  0.00  0.00    +0.151 C 
ATOM     23  O   UNL     1      10.082  -1.833  21.601  0.00  0.00    -0.296 OA
ENDBRANCH  14  16
ENDBRANCH   6  14
TORSDOF 4
ENDMDL
MODEL 8
REMARK VINA RESULT:      -6.5      4.064      6.386
REMARK  Name = 
REMARK  4 active torsions:
REMARK  status: ('A' for Active; 'I' for Inactive)
REMARK    1  A    between atoms: N_2  and  C_4
REMARK    2  A    between atoms: C_5  and  C_14
REMARK    3  A    between atoms: C_8  and  C_10
REMARK    4  A    between atoms: C_14  and  C_16
REMARK                            x       y       z     vdW  Elec       q    Type
REMARK                         _______ _______ _______ _____ _____    ______ ____
ROOT
ATOM      1  C   UNL     1       7.411  -0.660  24.270  0.00  0.00    +0.284 A 
ATOM      2  C   UNL     1       8.261   0.453  24.383  0.00  0.00    +0.097 A 
ATOM      3  C   UNL     1       9.380   0.560  23.546  0.00  0.00    +0.061 A 
ATOM      4  C   UNL     1       9.628  -0.471  22.622  0.00  0.00    +0.013 A 
ATOM      5  C   UNL     1       8.764  -1.575  22.507  0.00  0.00    +0.019 A 
ATOM      6  C   UNL     1       7.633  -1.676  23.325  0.00  0.00    +0.096 A 
ENDROOT
BRANCH   3   7
ATOM      7  C   UNL     1      10.284   1.768  23.653  0.00  0.00    +0.418 C 
ATOM      8  F   UNL     1      11.463   1.475  24.267  0.00  0.00    -0.166 F 
ATOM      9  F   UNL     1       9.720   2.771  24.379  0.00  0.00    -0.166 F 
ATOM     10  F   UNL     1      10.610   2.312  22.449  0.00  0.00    -0.166 F 
ENDBRANCH   3   7
BRANCH   1  12
ATOM     11  O   UNL     1       6.567  -1.375  26.281  0.00  0.00    -0.576 OA
ATOM     12  N   UNL     1       6.324  -0.763  25.229  0.00  0.00    +0.080 N 
ATOM     13  O   UNL     1       5.275  -0.160  24.964  0.00  0.00    +0.041 OA
ENDBRANCH   1  12
BRANCH   6  14
ATOM     14  C   UNL     1       6.587  -2.707  23.075  0.00  0.00    +0.187 C 
ATOM     15  O   UNL     1       5.786  -2.461  22.178  0.00  0.00    -0.291 OA
BRANCH  14  16
ATOM     16  C   UNL     1       6.550  -4.021  23.825  0.00  0.00    +0.192 C 
ATOM     17  C   UNL     1       7.614  -4.958  23.300  0.00  0.00    +0.151 C 
ATOM     18  O   UNL     1       8.669  -5.142  23.903  0.00  0.00    -0.296 OA
ATOM     19  C   UNL     1       7.298  -5.665  22.005  0.00  0.00    +0.076 C 
ATOM     20  C   UNL     1       6.089  -6.540  22.269  0.00  0.00    +0.015 C 
ATOM     21  C   UNL     1       4.886  -5.713  22.718  0.00  0.00    +0.076 C 
ATOM     22  C   UNL     1       5.197  -4.689  23.803  0.00  0.00    +0.151 C 
ATOM     23  O   UNL     1       4.310  -4.312  24.575  0.00  0.00    -0.296 OA
ENDBRANCH  14  16
ENDBRANCH   6  14
TORSDOF 4
ENDMDL
MODEL 9
REMARK VINA RESULT:      -6.5      4.106      6.346
REMARK  Name = 
REMARK  4 active torsions:
REMARK  status: ('A' for Active; 'I' for Inactive)
REMARK    1  A    between atoms: N_2  and  C_4
REMARK    2  A    between atoms: C_5  and  C_14
REMARK    3  A    between atoms: C_8  and  C_10
REMARK    4  A    between atoms: C_14  and  C_16
REMARK                            x       y       z     vdW  Elec       q    Type
REMARK                         _______ _______ _______ _____ _____    ______ ____
ROOT
ATOM      1  C   UNL     1       7.160  -3.456  22.724  0.00  0.00    +0.284 A 
ATOM      2  C   UNL     1       8.254  -2.701  22.270  0.00  0.00    +0.097 A 
ATOM      3  C   UNL     1       8.816  -1.723  23.101  0.00  0.00    +0.061 A 
ATOM      4  C   UNL     1       8.251  -1.516  24.371  0.00  0.00    +0.013 A 
ATOM      5  C   UNL     1       7.163  -2.286  24.824  0.00  0.00    +0.019 A 
ATOM      6  C   UNL     1       6.611  -3.278  24.005  0.00  0.00    +0.096 A 
ENDROOT
BRANCH   3   7
ATOM      7  C   UNL     1      10.008  -0.925  22.620  0.00  0.00    +0.418 C 
ATOM      8  F   UNL     1       9.710  -0.162  21.533  0.00  0.00    -0.166 F 
ATOM      9  F   UNL     1      11.046  -1.722  22.247  0.00  0.00    -0.166 F 
ATOM     10  F   UNL     1      10.505  -0.072  23.556  0.00  0.00    -0.166 F 
ENDBRANCH   3   7
BRANCH   1  12
ATOM     11  O   UNL     1       5.592  -3.965  21.128  0.00  0.00    -0.576 OA
ATOM     12  N   UNL     1       6.559  -4.385  21.783  0.00  0.00    +0.080 N 
ATOM     13  O   UNL     1       7.110  -5.486  21.642  0.00  0.00    +0.041 OA
ENDBRANCH   1  12
BRANCH   6  14
ATOM     14  C   UNL     1       5.617  -4.252  24.537  0.00  0.00    +0.187 C 
ATOM     15  O   UNL     1       4.440  -3.904  24.493  0.00  0.00    -0.291 OA
BRANCH  14  16
ATOM     16  C   UNL     1       6.014  -5.624  25.036  0.00  0.00    +0.192 C 
ATOM     17  C   UNL     1       4.793  -6.502  25.192  0.00  0.00    +0.151 C 
ATOM     18  O   UNL     1       4.505  -7.364  24.363  0.00  0.00    -0.296 OA
ATOM     19  C   UNL     1       3.959  -6.271  26.428  0.00  0.00    +0.076 C 
ATOM     20  C   UNL     1       4.842  -6.598  27.616  0.00  0.00    +0.015 C 
ATOM     21  C   UNL     1       6.085  -5.712  27.652  0.00  0.00    +0.076 C 
ATOM     22  C   UNL     1       6.810  -5.592  26.318  0.00  0.00    +0.151 C 
ATOM     23  O   UNL     1       8.018  -5.338  26.286  0.00  0.00    -0.296 OA
ENDBRANCH  14  16
ENDBRANCH   6  14
TORSDOF 4
ENDMDL
