MODEL 1
REMARK VINA RESULT:      -4.7      0.000      0.000
REMARK  Name = 
REMARK  10 active torsions:
REMARK  status: ('A' for Active; 'I' for Inactive)
REMARK    1  A    between atoms: C_1  and  C_2
REMARK    2  A    between atoms: C_2  and  C_3
REMARK    3  A    between atoms: C_2  and  C_4
REMARK    4  A    between atoms: C_2  and  O_5
REMARK    5  A    between atoms: O_5  and  C_6
REMARK    6  A    between atoms: C_6  and  C_8
REMARK    7  A    between atoms: C_8  and  N_10
REMARK    8  A    between atoms: C_8  and  C_11
REMARK    9  A    between atoms: C_11  and  C_12
REMARK   10  A    between atoms: C_12  and  C_13
REMARK                            x       y       z     vdW  Elec       q    Type
REMARK                         _______ _______ _______ _____ _____    ______ ____
ROOT
ATOM      1  C   UNL     1       9.746  -1.528  22.934  0.00  0.00    +0.161 C 
ENDROOT
BRANCH   1   2
ATOM      2  N   UNL     1      10.083  -1.371  21.505  0.00  0.00    -0.318 NA
ATOM      3  H   UNL     1       9.441  -1.930  20.945  0.00  0.00    +0.119 HD
ATOM      4  H   UNL     1       9.932  -0.400  21.231  0.00  0.00    +0.119 HD
ENDBRANCH   1   2
BRANCH   1   5
ATOM      5  C   UNL     1       8.655  -2.591  23.114  0.00  0.00    +0.325 C 
ATOM      6  O   UNL     1       7.502  -2.409  22.741  0.00  0.00    -0.249 OA
BRANCH   5   7
ATOM      7  O   UNL     1       9.134  -3.721  23.705  0.00  0.00    -0.458 OA
BRANCH   7   9
ATOM      8  C   UNL     1       7.341  -4.941  24.857  0.00  0.00    +0.055 C 
ATOM      9  C   UNL     1       8.635  -4.130  25.005  0.00  0.00    +0.105 C 
ATOM     10  C   UNL     1       9.711  -5.056  25.598  0.00  0.00    +0.055 C 
ATOM     11  C   UNL     1       8.470  -2.927  25.941  0.00  0.00    +0.055 C 
ENDBRANCH   7   9
ENDBRANCH   5   7
ENDBRANCH   1   5
BRANCH   1  12
ATOM     12  C   UNL     1       9.337  -0.186  23.546  0.00  0.00    +0.039 C 
BRANCH  12  13
ATOM     13  C   UNL     1      10.517   0.781  23.687  0.00  0.00    +0.097 C 
BRANCH  13  14
ATOM     14  C   UNL     1      10.264   2.078  22.948  0.00  0.00    +0.211 C 
ATOM     15  O   UNL     1      10.336   3.193  23.446  0.00  0.00    -0.276 OA
ATOM     16  N   UNL     1       9.930   1.921  21.635  0.00  0.00    -0.329 N 
ATOM     17  H   UNL     1       9.781   2.761  21.091  0.00  0.00    +0.145 HD
ATOM     18  H   UNL     1       9.925   1.028  21.164  0.00  0.00    +0.145 HD
ENDBRANCH  13  14
ENDBRANCH  12  13
ENDBRANCH   1  12
TORSDOF 7
ENDMDL
MODEL 2
REMARK VINA RESULT:      -4.7      1.649      2.363
REMARK  Name = 
REMARK  10 active torsions:
REMARK  status: ('A' for Active; 'I' for Inactive)
REMARK    1  A    between atoms: C_1  and  C_2
REMARK    2  A    between atoms: C_2  and  C_3
REMARK    3  A    between atoms: C_2  and  C_4
REMARK    4  A    between atoms: C_2  and  O_5
REMARK    5  A    between atoms: O_5  and  C_6
REMARK    6  A    between atoms: C_6  and  C_8
REMARK    7  A    between atoms: C_8  and  N_10
REMARK    8  A    between atoms: C_8  and  C_11
REMARK    9  A    between atoms: C_11  and  C_12
REMARK   10  A    between atoms: C_12  and  C_13
REMARK                            x       y       z     vdW  Elec       q    Type
REMARK                         _______ _______ _______ _____ _____    ______ ____
ROOT
ATOM      1  C   UNL     1       9.964  -1.265  23.320  0.00  0.00    +0.161 C 
ENDROOT
BRANCH   1   2
ATOM      2  N   UNL     1      10.199  -1.479  21.878  0.00  0.00    -0.318 NA
ATOM      3  H   UNL     1       9.529  -2.162  21.526  0.00  0.00    +0.119 HD
ATOM      4  H   UNL     1      10.015  -0.611  21.376  0.00  0.00    +0.119 HD
ENDBRANCH   1   2
BRANCH   1   5
ATOM      5  C   UNL     1       9.423  -2.543  23.972  0.00  0.00    +0.325 C 
ATOM      6  O   UNL     1      10.111  -3.549  24.098  0.00  0.00    -0.249 OA
BRANCH   5   7
ATOM      7  O   UNL     1       8.134  -2.400  24.389  0.00  0.00    -0.458 OA
BRANCH   7   9
ATOM      8  C   UNL     1       6.968  -4.549  24.609  0.00  0.00    +0.055 C 
ATOM      9  C   UNL     1       7.090  -3.237  23.825  0.00  0.00    +0.105 C 
ATOM     10  C   UNL     1       5.779  -2.452  24.004  0.00  0.00    +0.055 C 
ATOM     11  C   UNL     1       7.311  -3.466  22.326  0.00  0.00    +0.055 C 
ENDBRANCH   7   9
ENDBRANCH   5   7
ENDBRANCH   1   5
BRANCH   1  12
ATOM     12  C   UNL     1       9.030  -0.073  23.546  0.00  0.00    +0.039 C 
BRANCH  12  13
ATOM     13  C   UNL     1       8.345   0.391  22.256  0.00  0.00    +0.097 C 
BRANCH  13  14
ATOM     14  C   UNL     1       8.731   1.812  21.903  0.00  0.00    +0.211 C 
ATOM     15  O   UNL     1       7.959   2.761  21.878  0.00  0.00    -0.276 OA
ATOM     16  N   UNL     1      10.049   1.976  21.594  0.00  0.00    -0.329 N 
ATOM     17  H   UNL     1      10.361   2.915  21.381  0.00  0.00    +0.145 HD
ATOM     18  H   UNL     1      10.735   1.239  21.667  0.00  0.00    +0.145 HD
ENDBRANCH  13  14
ENDBRANCH  12  13
ENDBRANCH   1  12
TORSDOF 7
ENDMDL
MODEL 3
REMARK VINA RESULT:      -4.6      1.662      2.052
REMARK  Name = 
REMARK  10 active torsions:
REMARK  status: ('A' for Active; 'I' for Inactive)
REMARK    1  A    between atoms: C_1  and  C_2
REMARK    2  A    between atoms: C_2  and  C_3
REMARK    3  A    between atoms: C_2  and  C_4
REMARK    4  A    between atoms: C_2  and  O_5
REMARK    5  A    between atoms: O_5  and  C_6
REMARK    6  A    between atoms: C_6  and  C_8
REMARK    7  A    between atoms: C_8  and  N_10
REMARK    8  A    between atoms: C_8  and  C_11
REMARK    9  A    between atoms: C_11  and  C_12
REMARK   10  A    between atoms: C_12  and  C_13
REMARK                            x       y       z     vdW  Elec       q    Type
REMARK                         _______ _______ _______ _____ _____    ______ ____
ROOT
ATOM      1  C   UNL     1       8.599  -2.152  22.526  0.00  0.00    +0.161 C 
ENDROOT
BRANCH   1   2
ATOM      2  N   UNL     1       7.463  -1.247  22.793  0.00  0.00    -0.318 NA
ATOM      3  H   UNL     1       7.207  -1.309  23.777  0.00  0.00    +0.119 HD
ATOM      4  H   UNL     1       7.758  -0.283  22.633  0.00  0.00    +0.119 HD
ENDBRANCH   1   2
BRANCH   1   5
ATOM      5  C   UNL     1       8.975  -2.928  23.794  0.00  0.00    +0.325 C 
ATOM      6  O   UNL     1      10.131  -3.259  24.034  0.00  0.00    -0.249 OA
BRANCH   5   7
ATOM      7  O   UNL     1       7.895  -3.169  24.587  0.00  0.00    -0.458 OA
BRANCH   7   9
ATOM      8  C   UNL     1       7.630  -5.264  23.335  0.00  0.00    +0.055 C 
ATOM      9  C   UNL     1       7.291  -4.488  24.614  0.00  0.00    +0.105 C 
ATOM     10  C   UNL     1       7.937  -5.224  25.801  0.00  0.00    +0.055 C 
ATOM     11  C   UNL     1       5.781  -4.404  24.867  0.00  0.00    +0.055 C 
ENDBRANCH   7   9
ENDBRANCH   5   7
ENDBRANCH   1   5
BRANCH   1  12
ATOM     12  C   UNL     1       9.790  -1.374  21.961  0.00  0.00    +0.039 C 
BRANCH  12  13
ATOM     13  C   UNL     1       9.398   0.016  21.451  0.00  0.00    +0.097 C 
BRANCH  13  14
ATOM     14  C   UNL     1      10.037   1.112  22.277  0.00  0.00    +0.211 C 
ATOM     15  O   UNL     1      10.477   0.968  23.410  0.00  0.00    -0.276 OA
ATOM     16  N   UNL     1      10.090   2.325  21.658  0.00  0.00    -0.329 N 
ATOM     17  H   UNL     1      10.536   3.083  22.159  0.00  0.00    +0.145 HD
ATOM     18  H   UNL     1       9.802   2.476  20.702  0.00  0.00    +0.145 HD
ENDBRANCH  13  14
ENDBRANCH  12  13
ENDBRANCH   1  12
TORSDOF 7
ENDMDL
MODEL 4
REMARK VINA RESULT:      -4.6      2.471      5.785
REMARK  Name = 
REMARK  10 active torsions:
REMARK  status: ('A' for Active; 'I' for Inactive)
REMARK    1  A    between atoms: C_1  and  C_2
REMARK    2  A    between atoms: C_2  and  C_3
REMARK    3  A    between atoms: C_2  and  C_4
REMARK    4  A    between atoms: C_2  and  O_5
REMARK    5  A    between atoms: O_5  and  C_6
REMARK    6  A    between atoms: C_6  and  C_8
REMARK    7  A    between atoms: C_8  and  N_10
REMARK    8  A    between atoms: C_8  and  C_11
REMARK    9  A    between atoms: C_11  and  C_12
REMARK   10  A    between atoms: C_12  and  C_13
REMARK                            x       y       z     vdW  Elec       q    Type
REMARK                         _______ _______ _______ _____ _____    ______ ____
ROOT
ATOM      1  C   UNL     1       8.572  -2.481  23.464  0.00  0.00    +0.161 C 
ENDROOT
BRANCH   1   2
ATOM      2  N   UNL     1       7.805  -3.369  22.567  0.00  0.00    -0.318 NA
ATOM      3  H   UNL     1       8.420  -4.100  22.212  0.00  0.00    +0.119 HD
ATOM      4  H   UNL     1       7.078  -3.840  23.104  0.00  0.00    +0.119 HD
ENDBRANCH   1   2
BRANCH   1   5
ATOM      5  C   UNL     1       9.415  -1.493  22.649  0.00  0.00    +0.325 C 
ATOM      6  O   UNL     1      10.499  -1.805  22.168  0.00  0.00    -0.249 OA
BRANCH   5   7
ATOM      7  O   UNL     1       8.807  -0.280  22.525  0.00  0.00    -0.458 OA
BRANCH   7   9
ATOM      8  C   UNL     1      10.099   1.770  22.132  0.00  0.00    +0.055 C 
ATOM      9  C   UNL     1       9.381   0.891  23.162  0.00  0.00    +0.105 C 
ATOM     10  C   UNL     1       8.192   1.690  23.723  0.00  0.00    +0.055 C 
ATOM     11  C   UNL     1      10.288   0.497  24.333  0.00  0.00    +0.055 C 
ENDBRANCH   7   9
ENDBRANCH   5   7
ENDBRANCH   1   5
BRANCH   1  12
ATOM     12  C   UNL     1       9.432  -3.298  24.431  0.00  0.00    +0.039 C 
BRANCH  12  13
ATOM     13  C   UNL     1       8.687  -3.660  25.720  0.00  0.00    +0.097 C 
BRANCH  13  14
ATOM     14  C   UNL     1       8.708  -5.152  25.974  0.00  0.00    +0.211 C 
ATOM     15  O   UNL     1       7.816  -5.781  26.526  0.00  0.00    -0.276 OA
ATOM     16  N   UNL     1       9.836  -5.781  25.535  0.00  0.00    -0.329 N 
ATOM     17  H   UNL     1       9.883  -6.785  25.654  0.00  0.00    +0.145 HD
ATOM     18  H   UNL     1      10.566  -5.318  25.014  0.00  0.00    +0.145 HD
ENDBRANCH  13  14
ENDBRANCH  12  13
ENDBRANCH   1  12
TORSDOF 7
ENDMDL
MODEL 5
REMARK VINA RESULT:      -4.6      1.454      1.963
REMARK  Name = 
REMARK  10 active torsions:
REMARK  status: ('A' for Active; 'I' for Inactive)
REMARK    1  A    between atoms: C_1  and  C_2
REMARK    2  A    between atoms: C_2  and  C_3
REMARK    3  A    between atoms: C_2  and  C_4
REMARK    4  A    between atoms: C_2  and  O_5
REMARK    5  A    between atoms: O_5  and  C_6
REMARK    6  A    between atoms: C_6  and  C_8
REMARK    7  A    between atoms: C_8  and  N_10
REMARK    8  A    between atoms: C_8  and  C_11
REMARK    9  A    between atoms: C_11  and  C_12
REMARK   10  A    between atoms: C_12  and  C_13
REMARK                            x       y       z     vdW  Elec       q    Type
REMARK                         _______ _______ _______ _____ _____    ______ ____
ROOT
ATOM      1  C   UNL     1       9.151  -1.686  22.814  0.00  0.00    +0.161 C 
ENDROOT
BRANCH   1   2
ATOM      2  N   UNL     1       9.864  -1.502  21.534  0.00  0.00    -0.318 NA
ATOM      3  H   UNL     1      10.088  -2.415  21.140  0.00  0.00    +0.119 HD
ATOM      4  H   UNL     1       9.242  -1.046  20.866  0.00  0.00    +0.119 HD
ENDBRANCH   1   2
BRANCH   1   5
ATOM      5  C   UNL     1       7.684  -2.053  22.563  0.00  0.00    +0.325 C 
ATOM      6  O   UNL     1       6.768  -1.278  22.813  0.00  0.00    -0.249 OA
BRANCH   5   7
ATOM      7  O   UNL     1       7.551  -3.299  22.029  0.00  0.00    -0.458 OA
BRANCH   7   9
ATOM      8  C   UNL     1       5.322  -4.109  22.662  0.00  0.00    +0.055 C 
ATOM      9  C   UNL     1       6.837  -4.331  22.757  0.00  0.00    +0.105 C 
ATOM     10  C   UNL     1       7.169  -5.655  22.048  0.00  0.00    +0.055 C 
ATOM     11  C   UNL     1       7.325  -4.428  24.207  0.00  0.00    +0.055 C 
ENDBRANCH   7   9
ENDBRANCH   5   7
ENDBRANCH   1   5
BRANCH   1  12
ATOM     12  C   UNL     1       9.283  -0.438  23.691  0.00  0.00    +0.039 C 
BRANCH  12  13
ATOM     13  C   UNL     1      10.514   0.403  23.339  0.00  0.00    +0.097 C 
BRANCH  13  14
ATOM     14  C   UNL     1      10.125   1.791  22.878  0.00  0.00    +0.211 C 
ATOM     15  O   UNL     1      10.098   2.784  23.593  0.00  0.00    -0.276 OA
ATOM     16  N   UNL     1       9.786   1.872  21.560  0.00  0.00    -0.329 N 
ATOM     17  H   UNL     1       9.548   2.786  21.197  0.00  0.00    +0.145 HD
ATOM     18  H   UNL     1       9.859   1.096  20.917  0.00  0.00    +0.145 HD
ENDBRANCH  13  14
ENDBRANCH  12  13
ENDBRANCH   1  12
TORSDOF 7
ENDMDL
MODEL 6
REMARK VINA RESULT:      -4.5      2.566      5.550
REMARK  Name = 
REMARK  10 active torsions:
REMARK  status: ('A' for Active; 'I' for Inactive)
REMARK    1  A    between atoms: C_1  and  C_2
REMARK    2  A    between atoms: C_2  and  C_3
REMARK    3  A    between atoms: C_2  and  C_4
REMARK    4  A    between atoms: C_2  and  O_5
REMARK    5  A    between atoms: O_5  and  C_6
REMARK    6  A    between atoms: C_6  and  C_8
REMARK    7  A    between atoms: C_8  and  N_10
REMARK    8  A    between atoms: C_8  and  C_11
REMARK    9  A    between atoms: C_11  and  C_12
REMARK   10  A    between atoms: C_12  and  C_13
REMARK                            x       y       z     vdW  Elec       q    Type
REMARK                         _______ _______ _______ _____ _____    ______ ____
ROOT
ATOM      1  C   UNL     1       7.144  -2.430  23.911  0.00  0.00    +0.161 C 
ENDROOT
BRANCH   1   2
ATOM      2  N   UNL     1       6.286  -1.765  22.910  0.00  0.00    -0.318 NA
ATOM      3  H   UNL     1       5.326  -1.745  23.250  0.00  0.00    +0.119 HD
ATOM      4  H   UNL     1       6.577  -0.792  22.813  0.00  0.00    +0.119 HD
ENDBRANCH   1   2
BRANCH   1   5
ATOM      5  C   UNL     1       8.244  -1.477  24.393  0.00  0.00    +0.325 C 
ATOM      6  O   UNL     1       8.861  -1.669  25.435  0.00  0.00    -0.249 OA
BRANCH   5   7
ATOM      7  O   UNL     1       8.443  -0.444  23.527  0.00  0.00    -0.458 OA
BRANCH   7   9
ATOM      8  C   UNL     1      10.401  -1.519  22.507  0.00  0.00    +0.055 C 
ATOM      9  C   UNL     1       9.763  -0.204  22.972  0.00  0.00    +0.105 C 
ATOM     10  C   UNL     1       9.544   0.682  21.733  0.00  0.00    +0.055 C 
ATOM     11  C   UNL     1      10.650   0.563  23.959  0.00  0.00    +0.055 C 
ENDBRANCH   7   9
ENDBRANCH   5   7
ENDBRANCH   1   5
BRANCH   1  12
ATOM     12  C   UNL     1       7.725  -3.730  23.349  0.00  0.00    +0.039 C 
BRANCH  12  13
ATOM     13  C   UNL     1       7.537  -4.918  24.298  0.00  0.00    +0.097 C 
BRANCH  13  14
ATOM     14  C   UNL     1       8.769  -5.152  25.145  0.00  0.00    +0.211 C 
ATOM     15  O   UNL     1       9.911  -4.856  24.819  0.00  0.00    -0.276 OA
ATOM     16  N   UNL     1       8.520  -5.746  26.348  0.00  0.00    -0.329 N 
ATOM     17  H   UNL     1       9.309  -5.895  26.963  0.00  0.00    +0.145 HD
ATOM     18  H   UNL     1       7.591  -5.946  26.689  0.00  0.00    +0.145 HD
ENDBRANCH  13  14
ENDBRANCH  12  13
ENDBRANCH   1  12
TORSDOF 7
ENDMDL
MODEL 7
REMARK VINA RESULT:      -4.5      1.984      2.493
REMARK  Name = 
REMARK  10 active torsions:
REMARK  status: ('A' for Active; 'I' for Inactive)
REMARK    1  A    between atoms: C_1  and  C_2
REMARK    2  A    between atoms: C_2  and  C_3
REMARK    3  A    between atoms: C_2  and  C_4
REMARK    4  A    between atoms: C_2  and  O_5
REMARK    5  A    between atoms: O_5  and  C_6
REMARK    6  A    between atoms: C_6  and  C_8
REMARK    7  A    between atoms: C_8  and  N_10
REMARK    8  A    between atoms: C_8  and  C_11
REMARK    9  A    between atoms: C_11  and  C_12
REMARK   10  A    between atoms: C_12  and  C_13
REMARK                            x       y       z     vdW  Elec       q    Type
REMARK                         _______ _______ _______ _____ _____    ______ ____
ROOT
ATOM      1  C   UNL     1       8.778  -1.385  23.869  0.00  0.00    +0.161 C 
ENDROOT
BRANCH   1   2
ATOM      2  N   UNL     1      10.063  -0.781  24.275  0.00  0.00    -0.318 NA
ATOM      3  H   UNL     1      10.545  -1.414  24.911  0.00  0.00    +0.119 HD
ATOM      4  H   UNL     1      10.662  -0.686  23.455  0.00  0.00    +0.119 HD
ENDBRANCH   1   2
BRANCH   1   5
ATOM      5  C   UNL     1       8.957  -2.877  23.567  0.00  0.00    +0.325 C 
ATOM      6  O   UNL     1       9.762  -3.572  24.179  0.00  0.00    -0.249 OA
BRANCH   5   7
ATOM      7  O   UNL     1       8.120  -3.306  22.582  0.00  0.00    -0.458 OA
BRANCH   7   9
ATOM      8  C   UNL     1       5.699  -3.512  22.231  0.00  0.00    +0.055 C 
ATOM      9  C   UNL     1       6.945  -4.089  22.915  0.00  0.00    +0.105 C 
ATOM     10  C   UNL     1       7.196  -5.493  22.338  0.00  0.00    +0.055 C 
ATOM     11  C   UNL     1       6.775  -4.219  24.433  0.00  0.00    +0.055 C 
ENDBRANCH   7   9
ENDBRANCH   5   7
ENDBRANCH   1   5
BRANCH   1  12
ATOM     12  C   UNL     1       8.178  -0.633  22.678  0.00  0.00    +0.039 C 
BRANCH  12  13
ATOM     13  C   UNL     1       9.247   0.005  21.785  0.00  0.00    +0.097 C 
BRANCH  13  14
ATOM     14  C   UNL     1       9.028   1.495  21.633  0.00  0.00    +0.211 C 
ATOM     15  O   UNL     1       7.942   2.028  21.452  0.00  0.00    -0.276 OA
ATOM     16  N   UNL     1      10.167   2.241  21.709  0.00  0.00    -0.329 N 
ATOM     17  H   UNL     1      10.067   3.246  21.644  0.00  0.00    +0.145 HD
ATOM     18  H   UNL     1      11.074   1.854  21.925  0.00  0.00    +0.145 HD
ENDBRANCH  13  14
ENDBRANCH  12  13
ENDBRANCH   1  12
TORSDOF 7
ENDMDL
MODEL 8
REMARK VINA RESULT:      -4.5      2.440      5.545
REMARK  Name = 
REMARK  10 active torsions:
REMARK  status: ('A' for Active; 'I' for Inactive)
REMARK    1  A    between atoms: C_1  and  C_2
REMARK    2  A    between atoms: C_2  and  C_3
REMARK    3  A    between atoms: C_2  and  C_4
REMARK    4  A    between atoms: C_2  and  O_5
REMARK    5  A    between atoms: O_5  and  C_6
REMARK    6  A    between atoms: C_6  and  C_8
REMARK    7  A    between atoms: C_8  and  N_10
REMARK    8  A    between atoms: C_8  and  C_11
REMARK    9  A    between atoms: C_11  and  C_12
REMARK   10  A    between atoms: C_12  and  C_13
REMARK                            x       y       z     vdW  Elec       q    Type
REMARK                         _______ _______ _______ _____ _____    ______ ____
ROOT
ATOM      1  C   UNL     1       8.772  -2.530  23.079  0.00  0.00    +0.161 C 
ENDROOT
BRANCH   1   2
ATOM      2  N   UNL     1      10.177  -2.654  23.516  0.00  0.00    -0.318 NA
ATOM      3  H   UNL     1      10.202  -2.860  24.513  0.00  0.00    +0.119 HD
ATOM      4  H   UNL     1      10.604  -3.453  23.047  0.00  0.00    +0.119 HD
ENDBRANCH   1   2
BRANCH   1   5
ATOM      5  C   UNL     1       8.208  -1.159  23.471  0.00  0.00    +0.325 C 
ATOM      6  O   UNL     1       7.102  -0.781  23.102  0.00  0.00    -0.249 OA
BRANCH   5   7
ATOM      7  O   UNL     1       9.064  -0.462  24.269  0.00  0.00    -0.458 OA
BRANCH   7   9
ATOM      8  C   UNL     1       8.826   1.982  24.285  0.00  0.00    +0.055 C 
ATOM      9  C   UNL     1       9.647   0.782  23.799  0.00  0.00    +0.105 C 
ATOM     10  C   UNL     1      11.040   0.866  24.447  0.00  0.00    +0.055 C 
ATOM     11  C   UNL     1       9.827   0.771  22.276  0.00  0.00    +0.055 C 
ENDBRANCH   7   9
ENDBRANCH   5   7
ENDBRANCH   1   5
BRANCH   1  12
ATOM     12  C   UNL     1       7.926  -3.675  23.641  0.00  0.00    +0.039 C 
BRANCH  12  13
ATOM     13  C   UNL     1       8.028  -3.790  25.165  0.00  0.00    +0.097 C 
BRANCH  13  14
ATOM     14  C   UNL     1       8.868  -4.980  25.577  0.00  0.00    +0.211 C 
ATOM     15  O   UNL     1       9.946  -5.280  25.083  0.00  0.00    -0.276 OA
ATOM     16  N   UNL     1       8.323  -5.735  26.573  0.00  0.00    -0.329 N 
ATOM     17  H   UNL     1       8.863  -6.524  26.905  0.00  0.00    +0.145 HD
ATOM     18  H   UNL     1       7.472  -5.489  27.058  0.00  0.00    +0.145 HD
ENDBRANCH  13  14
ENDBRANCH  12  13
ENDBRANCH   1  12
TORSDOF 7
ENDMDL
MODEL 9
REMARK VINA RESULT:      -4.4      2.778      5.197
REMARK  Name = 
REMARK  10 active torsions:
REMARK  status: ('A' for Active; 'I' for Inactive)
REMARK    1  A    between atoms: C_1  and  C_2
REMARK    2  A    between atoms: C_2  and  C_3
REMARK    3  A    between atoms: C_2  and  C_4
REMARK    4  A    between atoms: C_2  and  O_5
REMARK    5  A    between atoms: O_5  and  C_6
REMARK    6  A    between atoms: C_6  and  C_8
REMARK    7  A    between atoms: C_8  and  N_10
REMARK    8  A    between atoms: C_8  and  C_11
REMARK    9  A    between atoms: C_11  and  C_12
REMARK   10  A    between atoms: C_12  and  C_13
REMARK                            x       y       z     vdW  Elec       q    Type
REMARK                         _______ _______ _______ _____ _____    ______ ____
ROOT
ATOM      1  C   UNL     1       9.681  -2.066  23.497  0.00  0.00    +0.161 C 
ENDROOT
BRANCH   1   2
ATOM      2  N   UNL     1       9.834  -3.359  24.194  0.00  0.00    -0.318 NA
ATOM      3  H   UNL     1       9.067  -3.976  23.930  0.00  0.00    +0.119 HD
ATOM      4  H   UNL     1      10.690  -3.811  23.876  0.00  0.00    +0.119 HD
ENDBRANCH   1   2
BRANCH   1   5
ATOM      5  C   UNL     1       9.197  -0.985  24.470  0.00  0.00    +0.325 C 
ATOM      6  O   UNL     1       9.216  -1.148  25.685  0.00  0.00    -0.249 OA
BRANCH   5   7
ATOM      7  O   UNL     1       8.779   0.138  23.823  0.00  0.00    -0.458 OA
BRANCH   7   9
ATOM      8  C   UNL     1       9.139   2.497  24.401  0.00  0.00    +0.055 C 
ATOM      9  C   UNL     1       9.680   1.265  23.665  0.00  0.00    +0.105 C 
ATOM     10  C   UNL     1      10.998   0.849  24.340  0.00  0.00    +0.055 C 
ATOM     11  C   UNL     1       9.967   1.545  22.185  0.00  0.00    +0.055 C 
ENDBRANCH   7   9
ENDBRANCH   5   7
ENDBRANCH   1   5
BRANCH   1  12
ATOM     12  C   UNL     1       8.746  -2.206  22.293  0.00  0.00    +0.039 C 
BRANCH  12  13
ATOM     13  C   UNL     1       7.674  -3.281  22.502  0.00  0.00    +0.097 C 
BRANCH  13  14
ATOM     14  C   UNL     1       6.279  -2.707  22.376  0.00  0.00    +0.211 C 
ATOM     15  O   UNL     1       5.340  -3.263  21.822  0.00  0.00    -0.276 OA
ATOM     16  N   UNL     1       6.126  -1.473  22.936  0.00  0.00    -0.329 N 
ATOM     17  H   UNL     1       5.203  -1.060  22.903  0.00  0.00    +0.145 HD
ATOM     18  H   UNL     1       6.851  -1.005  23.461  0.00  0.00    +0.145 HD
ENDBRANCH  13  14
ENDBRANCH  12  13
ENDBRANCH   1  12
TORSDOF 7
ENDMDL
