MODEL 1
REMARK VINA RESULT:      -5.4      0.000      0.000
REMARK  Name = 
REMARK  11 active torsions:
REMARK  status: ('A' for Active; 'I' for Inactive)
REMARK    1  A    between atoms: C_2  and  C_3
REMARK    2  A    between atoms: C_3  and  O_4
REMARK    3  A    between atoms: O_4  and  P_5
REMARK    4  A    between atoms: P_5  and  O_6
REMARK    5  A    between atoms: P_5  and  C_8
REMARK    6  A    between atoms: C_8  and  C_9
REMARK    7  A    between atoms: C_9  and  C_10
REMARK    8  A    between atoms: C_10  and  C_11
REMARK    9  A    between atoms: C_11  and  C_12
REMARK   10  A    between atoms: C_16  and  C_17
REMARK   11  A    between atoms: C_16  and  C_18
REMARK                            x       y       z     vdW  Elec       q    Type
REMARK                         _______ _______ _______ _____ _____    ______ ____
ROOT
ATOM      1  P   UNL     1       9.031  -4.495  24.973  0.00  0.00    +0.330 P 
ATOM      2  O   UNL     1       8.642  -5.570  23.957  0.00  0.00    -0.259 OA
ENDROOT
BRANCH   1   3
ATOM      3  O   UNL     1      10.439  -5.428  25.353  0.00  0.00    -0.324 OA
ATOM      4  H   UNL     1      10.062  -6.171  25.872  0.00  0.00    +0.220 HD
ENDBRANCH   1   3
BRANCH   1   5
ATOM      5  O   UNL     1      10.025  -3.406  24.232  0.00  0.00    -0.305 OA
BRANCH   5   6
ATOM      6  C   UNL     1       9.563  -2.169  23.689  0.00  0.00    +0.204 C 
BRANCH   6   7
ATOM      7  C   UNL     1      10.043  -0.878  24.381  0.00  0.00    +0.173 C 
ATOM      8  O   UNL     1      10.722  -0.026  23.446  0.00  0.00    -0.341 OA
ATOM      9  C   UNL     1       9.835   1.065  23.181  0.00  0.00    +0.165 C 
ATOM     10  C   UNL     1       9.542   1.089  21.690  0.00  0.00    +0.074 C 
ATOM     11  C   UNL     1      10.500   2.366  23.631  0.00  0.00    +0.074 C 
ATOM     12  O   UNL     1       8.607   0.882  23.888  0.00  0.00    -0.347 OA
ATOM     13  C   UNL     1       8.935  -0.015  24.950  0.00  0.00    +0.197 C 
ENDBRANCH   6   7
ENDBRANCH   5   6
ENDBRANCH   1   5
BRANCH   1  14
ATOM     14  C   UNL     1       7.545  -3.507  24.572  0.00  0.00    +0.127 C 
BRANCH  14  15
ATOM     15  C   UNL     1       6.266  -4.284  24.883  0.00  0.00    +0.012 C 
BRANCH  15  16
ATOM     16  C   UNL     1       5.336  -4.369  23.674  0.00  0.00    +0.005 C 
BRANCH  16  17
ATOM     17  C   UNL     1       5.957  -3.681  22.455  0.00  0.00    +0.026 C 
BRANCH  17  18
ATOM     18  C   UNL     1       6.138  -4.643  21.318  0.00  0.00    -0.034 C 
ATOM     19  C   UNL     1       6.237  -5.970  21.468  0.00  0.00    +0.004 C 
ENDBRANCH  17  18
ENDBRANCH  16  17
ENDBRANCH  15  16
ENDBRANCH  14  15
ENDBRANCH   1  14
TORSDOF 9
ENDMDL
MODEL 2
REMARK VINA RESULT:      -5.3      2.096      6.234
REMARK  Name = 
REMARK  11 active torsions:
REMARK  status: ('A' for Active; 'I' for Inactive)
REMARK    1  A    between atoms: C_2  and  C_3
REMARK    2  A    between atoms: C_3  and  O_4
REMARK    3  A    between atoms: O_4  and  P_5
REMARK    4  A    between atoms: P_5  and  O_6
REMARK    5  A    between atoms: P_5  and  C_8
REMARK    6  A    between atoms: C_8  and  C_9
REMARK    7  A    between atoms: C_9  and  C_10
REMARK    8  A    between atoms: C_10  and  C_11
REMARK    9  A    between atoms: C_11  and  C_12
REMARK   10  A    between atoms: C_16  and  C_17
REMARK   11  A    between atoms: C_16  and  C_18
REMARK                            x       y       z     vdW  Elec       q    Type
REMARK                         _______ _______ _______ _____ _____    ______ ____
ROOT
ATOM      1  P   UNL     1       9.910  -1.023  22.892  0.00  0.00    +0.330 P 
ATOM      2  O   UNL     1      10.113  -2.400  23.527  0.00  0.00    -0.259 OA
ENDROOT
BRANCH   1   3
ATOM      3  O   UNL     1       9.884  -1.792  21.342  0.00  0.00    -0.324 OA
ATOM      4  H   UNL     1      10.677  -2.369  21.382  0.00  0.00    +0.220 HD
ENDBRANCH   1   3
BRANCH   1   5
ATOM      5  O   UNL     1       8.291  -0.756  22.722  0.00  0.00    -0.305 OA
BRANCH   5   6
ATOM      6  C   UNL     1       7.295  -1.599  23.302  0.00  0.00    +0.204 C 
BRANCH   6   7
ATOM      7  C   UNL     1       6.632  -2.639  22.377  0.00  0.00    +0.173 C 
ATOM      8  O   UNL     1       7.525  -3.735  22.128  0.00  0.00    -0.341 OA
ATOM      9  C   UNL     1       7.016  -4.844  22.875  0.00  0.00    +0.165 C 
ATOM     10  C   UNL     1       8.093  -5.297  23.847  0.00  0.00    +0.074 C 
ATOM     11  C   UNL     1       6.643  -5.966  21.906  0.00  0.00    +0.074 C 
ATOM     12  O   UNL     1       5.862  -4.446  23.618  0.00  0.00    -0.347 OA
ATOM     13  C   UNL     1       5.383  -3.284  22.942  0.00  0.00    +0.197 C 
ENDBRANCH   6   7
ENDBRANCH   5   6
ENDBRANCH   1   5
BRANCH   1  14
ATOM     14  C   UNL     1       9.937  -0.209  24.531  0.00  0.00    +0.127 C 
BRANCH  14  15
ATOM     15  C   UNL     1      11.021   0.865  24.596  0.00  0.00    +0.012 C 
BRANCH  15  16
ATOM     16  C   UNL     1      10.615   2.139  23.858  0.00  0.00    +0.005 C 
BRANCH  16  17
ATOM     17  C   UNL     1       9.192   2.561  24.235  0.00  0.00    +0.026 C 
BRANCH  17  18
ATOM     18  C   UNL     1       8.509   3.257  23.095  0.00  0.00    -0.034 C 
ATOM     19  C   UNL     1       7.927   2.623  22.070  0.00  0.00    +0.004 C 
ENDBRANCH  17  18
ENDBRANCH  16  17
ENDBRANCH  15  16
ENDBRANCH  14  15
ENDBRANCH   1  14
TORSDOF 9
ENDMDL
MODEL 3
REMARK VINA RESULT:      -5.3      1.971      6.196
REMARK  Name = 
REMARK  11 active torsions:
REMARK  status: ('A' for Active; 'I' for Inactive)
REMARK    1  A    between atoms: C_2  and  C_3
REMARK    2  A    between atoms: C_3  and  O_4
REMARK    3  A    between atoms: O_4  and  P_5
REMARK    4  A    between atoms: P_5  and  O_6
REMARK    5  A    between atoms: P_5  and  C_8
REMARK    6  A    between atoms: C_8  and  C_9
REMARK    7  A    between atoms: C_9  and  C_10
REMARK    8  A    between atoms: C_10  and  C_11
REMARK    9  A    between atoms: C_11  and  C_12
REMARK   10  A    between atoms: C_16  and  C_17
REMARK   11  A    between atoms: C_16  and  C_18
REMARK                            x       y       z     vdW  Elec       q    Type
REMARK                         _______ _______ _______ _____ _____    ______ ____
ROOT
ATOM      1  P   UNL     1       9.410  -1.738  23.198  0.00  0.00    +0.330 P 
ATOM      2  O   UNL     1      10.497  -2.755  23.548  0.00  0.00    -0.259 OA
ENDROOT
BRANCH   1   3
ATOM      3  O   UNL     1       9.908  -1.844  21.544  0.00  0.00    -0.324 OA
ATOM      4  H   UNL     1      10.328  -0.969  21.396  0.00  0.00    +0.220 HD
ENDBRANCH   1   3
BRANCH   1   5
ATOM      5  O   UNL     1       8.040  -2.556  22.777  0.00  0.00    -0.305 OA
BRANCH   5   6
ATOM      6  C   UNL     1       6.736  -1.978  22.834  0.00  0.00    +0.204 C 
BRANCH   6   7
ATOM      7  C   UNL     1       5.602  -2.863  23.388  0.00  0.00    +0.173 C 
ATOM      8  O   UNL     1       5.035  -3.671  22.346  0.00  0.00    -0.341 OA
ATOM      9  C   UNL     1       5.488  -5.007  22.583  0.00  0.00    +0.165 C 
ATOM     10  C   UNL     1       6.259  -5.473  21.358  0.00  0.00    +0.074 C 
ATOM     11  C   UNL     1       4.278  -5.903  22.843  0.00  0.00    +0.074 C 
ATOM     12  O   UNL     1       6.361  -5.036  23.713  0.00  0.00    -0.347 OA
ATOM     13  C   UNL     1       6.034  -3.856  24.448  0.00  0.00    +0.197 C 
ENDBRANCH   6   7
ENDBRANCH   5   6
ENDBRANCH   1   5
BRANCH   1  14
ATOM     14  C   UNL     1       8.882  -1.626  24.946  0.00  0.00    +0.127 C 
BRANCH  14  15
ATOM     15  C   UNL     1       9.083  -0.213  25.494  0.00  0.00    +0.012 C 
BRANCH  15  16
ATOM     16  C   UNL     1      10.169   0.548  24.737  0.00  0.00    +0.005 C 
BRANCH  16  17
ATOM     17  C   UNL     1       9.736   1.990  24.460  0.00  0.00    +0.026 C 
BRANCH  17  18
ATOM     18  C   UNL     1      10.175   2.439  23.097  0.00  0.00    -0.034 C 
ATOM     19  C   UNL     1       9.985   1.730  21.977  0.00  0.00    +0.004 C 
ENDBRANCH  17  18
ENDBRANCH  16  17
ENDBRANCH  15  16
ENDBRANCH  14  15
ENDBRANCH   1  14
TORSDOF 9
ENDMDL
MODEL 4
REMARK VINA RESULT:      -5.3      1.319      2.069
REMARK  Name = 
REMARK  11 active torsions:
REMARK  status: ('A' for Active; 'I' for Inactive)
REMARK    1  A    between atoms: C_2  and  C_3
REMARK    2  A    between atoms: C_3  and  O_4
REMARK    3  A    between atoms: O_4  and  P_5
REMARK    4  A    between atoms: P_5  and  O_6
REMARK    5  A    between atoms: P_5  and  C_8
REMARK    6  A    between atoms: C_8  and  C_9
REMARK    7  A    between atoms: C_9  and  C_10
REMARK    8  A    between atoms: C_10  and  C_11
REMARK    9  A    between atoms: C_11  and  C_12
REMARK   10  A    between atoms: C_16  and  C_17
REMARK   11  A    between atoms: C_16  and  C_18
REMARK                            x       y       z     vdW  Elec       q    Type
REMARK                         _______ _______ _______ _____ _____    ______ ____
ROOT
ATOM      1  P   UNL     1       8.824  -3.372  24.523  0.00  0.00    +0.330 P 
ATOM      2  O   UNL     1       9.037  -4.860  24.234  0.00  0.00    -0.259 OA
ENDROOT
BRANCH   1   3
ATOM      3  O   UNL     1      10.368  -3.059  23.806  0.00  0.00    -0.324 OA
ATOM      4  H   UNL     1      10.803  -3.937  23.855  0.00  0.00    +0.220 HD
ENDBRANCH   1   3
BRANCH   1   5
ATOM      5  O   UNL     1       8.132  -2.673  23.198  0.00  0.00    -0.305 OA
BRANCH   5   6
ATOM      6  C   UNL     1       7.371  -1.467  23.259  0.00  0.00    +0.204 C 
BRANCH   6   7
ATOM      7  C   UNL     1       7.978  -0.221  22.582  0.00  0.00    +0.173 C 
ATOM      8  O   UNL     1       8.418   0.725  23.568  0.00  0.00    -0.341 OA
ATOM      9  C   UNL     1       9.848   0.669  23.566  0.00  0.00    +0.165 C 
ATOM     10  C   UNL     1      10.312   0.285  24.961  0.00  0.00    +0.074 C 
ATOM     11  C   UNL     1      10.398   2.037  23.162  0.00  0.00    +0.074 C 
ATOM     12  O   UNL     1      10.299  -0.323  22.642  0.00  0.00    -0.347 OA
ATOM     13  C   UNL     1       9.207  -0.495  21.739  0.00  0.00    +0.197 C 
ENDBRANCH   6   7
ENDBRANCH   5   6
ENDBRANCH   1   5
BRANCH   1  14
ATOM     14  C   UNL     1       7.192  -3.703  25.280  0.00  0.00    +0.127 C 
BRANCH  14  15
ATOM     15  C   UNL     1       6.699  -5.108  24.939  0.00  0.00    +0.012 C 
BRANCH  15  16
ATOM     16  C   UNL     1       5.308  -5.093  24.310  0.00  0.00    +0.005 C 
BRANCH  16  17
ATOM     17  C   UNL     1       5.185  -6.162  23.221  0.00  0.00    +0.026 C 
BRANCH  17  18
ATOM     18  C   UNL     1       6.354  -6.120  22.281  0.00  0.00    -0.034 C 
ATOM     19  C   UNL     1       6.301  -5.612  21.043  0.00  0.00    +0.004 C 
ENDBRANCH  17  18
ENDBRANCH  16  17
ENDBRANCH  15  16
ENDBRANCH  14  15
ENDBRANCH   1  14
TORSDOF 9
ENDMDL
MODEL 5
REMARK VINA RESULT:      -5.2      2.355      5.750
REMARK  Name = 
REMARK  11 active torsions:
REMARK  status: ('A' for Active; 'I' for Inactive)
REMARK    1  A    between atoms: C_2  and  C_3
REMARK    2  A    between atoms: C_3  and  O_4
REMARK    3  A    between atoms: O_4  and  P_5
REMARK    4  A    between atoms: P_5  and  O_6
REMARK    5  A    between atoms: P_5  and  C_8
REMARK    6  A    between atoms: C_8  and  C_9
REMARK    7  A    between atoms: C_9  and  C_10
REMARK    8  A    between atoms: C_10  and  C_11
REMARK    9  A    between atoms: C_11  and  C_12
REMARK   10  A    between atoms: C_16  and  C_17
REMARK   11  A    between atoms: C_16  and  C_18
REMARK                            x       y       z     vdW  Elec       q    Type
REMARK                         _______ _______ _______ _____ _____    ______ ____
ROOT
ATOM      1  P   UNL     1       9.343  -4.287  25.250  0.00  0.00    +0.330 P 
ATOM      2  O   UNL     1       8.456  -4.365  26.494  0.00  0.00    -0.259 OA
ENDROOT
BRANCH   1   3
ATOM      3  O   UNL     1      10.210  -5.665  25.838  0.00  0.00    -0.324 OA
ATOM      4  H   UNL     1      11.029  -5.642  25.297  0.00  0.00    +0.220 HD
ENDBRANCH   1   3
BRANCH   1   5
ATOM      5  O   UNL     1       8.701  -5.263  24.084  0.00  0.00    -0.305 OA
BRANCH   5   6
ATOM      6  C   UNL     1       7.762  -4.805  23.111  0.00  0.00    +0.204 C 
BRANCH   6   7
ATOM      7  C   UNL     1       6.457  -5.611  22.963  0.00  0.00    +0.173 C 
ATOM      8  O   UNL     1       5.591  -5.382  24.085  0.00  0.00    -0.341 OA
ATOM      9  C   UNL     1       4.524  -4.558  23.607  0.00  0.00    +0.165 C 
ATOM     10  C   UNL     1       4.513  -3.274  24.420  0.00  0.00    +0.074 C 
ATOM     11  C   UNL     1       3.205  -5.316  23.759  0.00  0.00    +0.074 C 
ATOM     12  O   UNL     1       4.736  -4.230  22.232  0.00  0.00    -0.347 OA
ATOM     13  C   UNL     1       5.620  -5.245  21.754  0.00  0.00    +0.197 C 
ENDBRANCH   6   7
ENDBRANCH   5   6
ENDBRANCH   1   5
BRANCH   1  14
ATOM     14  C   UNL     1       8.426  -2.832  24.627  0.00  0.00    +0.127 C 
BRANCH  14  15
ATOM     15  C   UNL     1       9.372  -1.670  24.327  0.00  0.00    +0.012 C 
BRANCH  15  16
ATOM     16  C   UNL     1      10.168  -1.893  23.043  0.00  0.00    +0.005 C 
BRANCH  16  17
ATOM     17  C   UNL     1       9.479  -1.228  21.848  0.00  0.00    +0.026 C 
BRANCH  17  18
ATOM     18  C   UNL     1       9.751   0.247  21.813  0.00  0.00    -0.034 C 
ATOM     19  C   UNL     1       8.836   1.171  21.494  0.00  0.00    +0.004 C 
ENDBRANCH  17  18
ENDBRANCH  16  17
ENDBRANCH  15  16
ENDBRANCH  14  15
ENDBRANCH   1  14
TORSDOF 9
ENDMDL
MODEL 6
REMARK VINA RESULT:      -5.0      2.325      6.925
REMARK  Name = 
REMARK  11 active torsions:
REMARK  status: ('A' for Active; 'I' for Inactive)
REMARK    1  A    between atoms: C_2  and  C_3
REMARK    2  A    between atoms: C_3  and  O_4
REMARK    3  A    between atoms: O_4  and  P_5
REMARK    4  A    between atoms: P_5  and  O_6
REMARK    5  A    between atoms: P_5  and  C_8
REMARK    6  A    between atoms: C_8  and  C_9
REMARK    7  A    between atoms: C_9  and  C_10
REMARK    8  A    between atoms: C_10  and  C_11
REMARK    9  A    between atoms: C_11  and  C_12
REMARK   10  A    between atoms: C_16  and  C_17
REMARK   11  A    between atoms: C_16  and  C_18
REMARK                            x       y       z     vdW  Elec       q    Type
REMARK                         _______ _______ _______ _____ _____    ______ ____
ROOT
ATOM      1  P   UNL     1       9.549  -0.070  21.862  0.00  0.00    +0.330 P 
ATOM      2  O   UNL     1      10.570  -0.009  22.999  0.00  0.00    -0.259 OA
ENDROOT
BRANCH   1   3
ATOM      3  O   UNL     1      10.015  -1.715  21.592  0.00  0.00    -0.324 OA
ATOM      4  H   UNL     1      10.992  -1.672  21.683  0.00  0.00    +0.220 HD
ENDBRANCH   1   3
BRANCH   1   5
ATOM      5  O   UNL     1       8.122  -0.636  22.467  0.00  0.00    -0.305 OA
BRANCH   5   6
ATOM      6  C   UNL     1       7.716  -0.445  23.823  0.00  0.00    +0.204 C 
BRANCH   6   7
ATOM      7  C   UNL     1       7.591  -1.706  24.701  0.00  0.00    +0.173 C 
ATOM      8  O   UNL     1       6.658  -2.632  24.124  0.00  0.00    -0.341 OA
ATOM      9  C   UNL     1       7.438  -3.711  23.598  0.00  0.00    +0.165 C 
ATOM     10  C   UNL     1       7.160  -3.816  22.107  0.00  0.00    +0.074 C 
ATOM     11  C   UNL     1       7.053  -5.001  24.321  0.00  0.00    +0.074 C 
ATOM     12  O   UNL     1       8.830  -3.448  23.789  0.00  0.00    -0.347 OA
ATOM     13  C   UNL     1       8.873  -2.499  24.855  0.00  0.00    +0.197 C 
ENDBRANCH   6   7
ENDBRANCH   5   6
ENDBRANCH   1   5
BRANCH   1  14
ATOM     14  C   UNL     1       9.054   1.668  22.148  0.00  0.00    +0.127 C 
BRANCH  14  15
ATOM     15  C   UNL     1      10.171   2.454  22.834  0.00  0.00    +0.012 C 
BRANCH  15  16
ATOM     16  C   UNL     1       9.626   3.582  23.708  0.00  0.00    +0.005 C 
BRANCH  16  17
ATOM     17  C   UNL     1      10.592   4.770  23.735  0.00  0.00    +0.026 C 
BRANCH  17  18
ATOM     18  C   UNL     1      11.968   4.364  23.295  0.00  0.00    -0.034 C 
ATOM     19  C   UNL     1      12.978   5.223  23.108  0.00  0.00    +0.004 C 
ENDBRANCH  17  18
ENDBRANCH  16  17
ENDBRANCH  15  16
ENDBRANCH  14  15
ENDBRANCH   1  14
TORSDOF 9
ENDMDL
MODEL 7
REMARK VINA RESULT:      -5.0      1.904      6.309
REMARK  Name = 
REMARK  11 active torsions:
REMARK  status: ('A' for Active; 'I' for Inactive)
REMARK    1  A    between atoms: C_2  and  C_3
REMARK    2  A    between atoms: C_3  and  O_4
REMARK    3  A    between atoms: O_4  and  P_5
REMARK    4  A    between atoms: P_5  and  O_6
REMARK    5  A    between atoms: P_5  and  C_8
REMARK    6  A    between atoms: C_8  and  C_9
REMARK    7  A    between atoms: C_9  and  C_10
REMARK    8  A    between atoms: C_10  and  C_11
REMARK    9  A    between atoms: C_11  and  C_12
REMARK   10  A    between atoms: C_16  and  C_17
REMARK   11  A    between atoms: C_16  and  C_18
REMARK                            x       y       z     vdW  Elec       q    Type
REMARK                         _______ _______ _______ _____ _____    ______ ____
ROOT
ATOM      1  P   UNL     1       8.701  -2.703  25.034  0.00  0.00    +0.330 P 
ATOM      2  O   UNL     1       7.354  -1.995  24.870  0.00  0.00    -0.259 OA
ENDROOT
BRANCH   1   3
ATOM      3  O   UNL     1       7.889  -3.940  25.932  0.00  0.00    -0.324 OA
ATOM      4  H   UNL     1       7.637  -4.577  25.229  0.00  0.00    +0.220 HD
ENDBRANCH   1   3
BRANCH   1   5
ATOM      5  O   UNL     1       8.876  -3.792  23.806  0.00  0.00    -0.305 OA
BRANCH   5   6
ATOM      6  C   UNL     1       7.908  -3.964  22.771  0.00  0.00    +0.204 C 
BRANCH   6   7
ATOM      7  C   UNL     1       7.098  -5.276  22.781  0.00  0.00    +0.173 C 
ATOM      8  O   UNL     1       6.293  -5.364  23.966  0.00  0.00    -0.341 OA
ATOM      9  C   UNL     1       4.942  -5.143  23.550  0.00  0.00    +0.165 C 
ATOM     10  C   UNL     1       4.404  -3.935  24.301  0.00  0.00    +0.074 C 
ATOM     11  C   UNL     1       4.117  -6.392  23.857  0.00  0.00    +0.074 C 
ATOM     12  O   UNL     1       4.899  -4.870  22.148  0.00  0.00    -0.347 OA
ATOM     13  C   UNL     1       6.113  -5.421  21.638  0.00  0.00    +0.197 C 
ENDBRANCH   6   7
ENDBRANCH   5   6
ENDBRANCH   1   5
BRANCH   1  14
ATOM     14  C   UNL     1       9.559  -1.397  24.084  0.00  0.00    +0.127 C 
BRANCH  14  15
ATOM     15  C   UNL     1       9.865  -0.185  24.963  0.00  0.00    +0.012 C 
BRANCH  15  16
ATOM     16  C   UNL     1      10.902   0.739  24.328  0.00  0.00    +0.005 C 
BRANCH  16  17
ATOM     17  C   UNL     1      10.229   1.935  23.650  0.00  0.00    +0.026 C 
BRANCH  17  18
ATOM     18  C   UNL     1      10.102   1.724  22.170  0.00  0.00    -0.034 C 
ATOM     19  C   UNL     1       8.981   1.312  21.565  0.00  0.00    +0.004 C 
ENDBRANCH  17  18
ENDBRANCH  16  17
ENDBRANCH  15  16
ENDBRANCH  14  15
ENDBRANCH   1  14
TORSDOF 9
ENDMDL
MODEL 8
REMARK VINA RESULT:      -4.9      2.194      3.514
REMARK  Name = 
REMARK  11 active torsions:
REMARK  status: ('A' for Active; 'I' for Inactive)
REMARK    1  A    between atoms: C_2  and  C_3
REMARK    2  A    between atoms: C_3  and  O_4
REMARK    3  A    between atoms: O_4  and  P_5
REMARK    4  A    between atoms: P_5  and  O_6
REMARK    5  A    between atoms: P_5  and  C_8
REMARK    6  A    between atoms: C_8  and  C_9
REMARK    7  A    between atoms: C_9  and  C_10
REMARK    8  A    between atoms: C_10  and  C_11
REMARK    9  A    between atoms: C_11  and  C_12
REMARK   10  A    between atoms: C_16  and  C_17
REMARK   11  A    between atoms: C_16  and  C_18
REMARK                            x       y       z     vdW  Elec       q    Type
REMARK                         _______ _______ _______ _____ _____    ______ ____
ROOT
ATOM      1  P   UNL     1       6.416  -4.937  22.866  0.00  0.00    +0.330 P 
ATOM      2  O   UNL     1       5.205  -4.498  22.041  0.00  0.00    -0.259 OA
ENDROOT
BRANCH   1   3
ATOM      3  O   UNL     1       7.108  -5.589  21.420  0.00  0.00    -0.324 OA
ATOM      4  H   UNL     1       6.319  -5.709  20.847  0.00  0.00    +0.220 HD
ENDBRANCH   1   3
BRANCH   1   5
ATOM      5  O   UNL     1       7.555  -3.744  22.802  0.00  0.00    -0.305 OA
BRANCH   5   6
ATOM      6  C   UNL     1       7.262  -2.370  23.055  0.00  0.00    +0.204 C 
BRANCH   6   7
ATOM      7  C   UNL     1       8.378  -1.350  22.753  0.00  0.00    +0.173 C 
ATOM      8  O   UNL     1       8.342  -0.268  23.696  0.00  0.00    -0.341 OA
ATOM      9  C   UNL     1       9.465  -0.455  24.564  0.00  0.00    +0.165 C 
ATOM     10  C   UNL     1       8.949  -0.588  25.987  0.00  0.00    +0.074 C 
ATOM     11  C   UNL     1      10.401   0.746  24.429  0.00  0.00    +0.074 C 
ATOM     12  O   UNL     1      10.162  -1.651  24.212  0.00  0.00    -0.347 OA
ATOM     13  C   UNL     1       9.785  -1.901  22.858  0.00  0.00    +0.197 C 
ENDBRANCH   6   7
ENDBRANCH   5   6
ENDBRANCH   1   5
BRANCH   1  14
ATOM     14  C   UNL     1       5.686  -4.246  24.395  0.00  0.00    +0.127 C 
BRANCH  14  15
ATOM     15  C   UNL     1       5.535  -5.322  25.469  0.00  0.00    +0.012 C 
BRANCH  15  16
ATOM     16  C   UNL     1       6.827  -5.536  26.256  0.00  0.00    +0.005 C 
BRANCH  16  17
ATOM     17  C   UNL     1       7.522  -4.202  26.541  0.00  0.00    +0.026 C 
BRANCH  17  18
ATOM     18  C   UNL     1       8.991  -4.277  26.245  0.00  0.00    -0.034 C 
ATOM     19  C   UNL     1       9.541  -5.159  25.400  0.00  0.00    +0.004 C 
ENDBRANCH  17  18
ENDBRANCH  16  17
ENDBRANCH  15  16
ENDBRANCH  14  15
ENDBRANCH   1  14
TORSDOF 9
ENDMDL
MODEL 9
REMARK VINA RESULT:      -4.9      1.711      2.075
REMARK  Name = 
REMARK  11 active torsions:
REMARK  status: ('A' for Active; 'I' for Inactive)
REMARK    1  A    between atoms: C_2  and  C_3
REMARK    2  A    between atoms: C_3  and  O_4
REMARK    3  A    between atoms: O_4  and  P_5
REMARK    4  A    between atoms: P_5  and  O_6
REMARK    5  A    between atoms: P_5  and  C_8
REMARK    6  A    between atoms: C_8  and  C_9
REMARK    7  A    between atoms: C_9  and  C_10
REMARK    8  A    between atoms: C_10  and  C_11
REMARK    9  A    between atoms: C_11  and  C_12
REMARK   10  A    between atoms: C_16  and  C_17
REMARK   11  A    between atoms: C_16  and  C_18
REMARK                            x       y       z     vdW  Elec       q    Type
REMARK                         _______ _______ _______ _____ _____    ______ ____
ROOT
ATOM      1  P   UNL     1       7.613  -4.755  26.447  0.00  0.00    +0.330 P 
ATOM      2  O   UNL     1       7.352  -6.132  27.060  0.00  0.00    -0.259 OA
ENDROOT
BRANCH   1   3
ATOM      3  O   UNL     1       9.226  -4.833  27.070  0.00  0.00    -0.324 OA
ATOM      4  H   UNL     1       9.098  -4.582  28.011  0.00  0.00    +0.220 HD
ENDBRANCH   1   3
BRANCH   1   5
ATOM      5  O   UNL     1       8.249  -4.963  24.939  0.00  0.00    -0.305 OA
BRANCH   5   6
ATOM      6  C   UNL     1       8.639  -3.877  24.098  0.00  0.00    +0.204 C 
BRANCH   6   7
ATOM      7  C   UNL     1       8.631  -2.469  24.725  0.00  0.00    +0.173 C 
ATOM      8  O   UNL     1       9.796  -1.731  24.326  0.00  0.00    -0.341 OA
ATOM      9  C   UNL     1       9.347  -0.748  23.388  0.00  0.00    +0.165 C 
ATOM     10  C   UNL     1      10.083  -0.971  22.077  0.00  0.00    +0.074 C 
ATOM     11  C   UNL     1       9.635   0.643  23.951  0.00  0.00    +0.074 C 
ATOM     12  O   UNL     1       7.944  -0.894  23.159  0.00  0.00    -0.347 OA
ATOM     13  C   UNL     1       7.465  -1.596  24.306  0.00  0.00    +0.197 C 
ENDBRANCH   6   7
ENDBRANCH   5   6
ENDBRANCH   1   5
BRANCH   1  14
ATOM     14  C   UNL     1       5.909  -4.671  25.786  0.00  0.00    +0.127 C 
BRANCH  14  15
ATOM     15  C   UNL     1       5.396  -6.059  25.405  0.00  0.00    +0.012 C 
BRANCH  15  16
ATOM     16  C   UNL     1       4.863  -6.102  23.974  0.00  0.00    +0.005 C 
BRANCH  16  17
ATOM     17  C   UNL     1       5.041  -4.747  23.282  0.00  0.00    +0.026 C 
BRANCH  17  18
ATOM     18  C   UNL     1       5.874  -4.875  22.041  0.00  0.00    -0.034 C 
ATOM     19  C   UNL     1       6.441  -6.016  21.633  0.00  0.00    +0.004 C 
ENDBRANCH  17  18
ENDBRANCH  16  17
ENDBRANCH  15  16
ENDBRANCH  14  15
ENDBRANCH   1  14
TORSDOF 9
ENDMDL
