MODEL 1
REMARK VINA RESULT:      -6.8      0.000      0.000
REMARK  Name = 
REMARK  3 active torsions:
REMARK  status: ('A' for Active; 'I' for Inactive)
REMARK    1  A    between atoms: C_7  and  C_8
REMARK    2  A    between atoms: N_13  and  C_14
REMARK    3  A    between atoms: C_14  and  C_15
REMARK                            x       y       z     vdW  Elec       q    Type
REMARK                         _______ _______ _______ _____ _____    ______ ____
ROOT
ATOM      1  C   UNL     1       7.416  -1.500  23.107  0.00  0.00    +0.078 C 
ATOM      2  C   UNL     1       6.449  -1.638  24.258  0.00  0.00    +0.023 A 
ATOM      3  C   UNL     1       5.999  -0.458  24.890  0.00  0.00    +0.032 A 
ATOM      4  C   UNL     1       5.081  -0.505  25.938  0.00  0.00    +0.042 A 
ATOM      5  C   UNL     1       4.531  -1.713  26.328  0.00  0.00    +0.022 A 
ATOM      6  C   UNL     1       4.971  -2.890  25.727  0.00  0.00    +0.025 A 
ATOM      7 CL   UNL     1       4.630   0.941  26.751  0.00  0.00    -0.084 Cl
ATOM      8  C   UNL     1       5.967  -2.885  24.725  0.00  0.00    +0.044 A 
ATOM      9  N   UNL     1       6.454  -4.165  24.275  0.00  0.00    -0.287 N 
ATOM     10  C   UNL     1       6.720  -4.441  22.929  0.00  0.00    +0.077 C 
ATOM     11  S   UNL     1       7.282  -5.916  22.337  0.00  0.00    -0.038 S 
ATOM     12  C   UNL     1       6.424  -3.326  21.944  0.00  0.00    +0.201 C 
ATOM     13  N   UNL     1       7.435  -2.298  22.096  0.00  0.00    -0.276 NA
ENDROOT
BRANCH   1  16
ATOM     14  F   UNL     1       9.767  -1.333  24.697  0.00  0.00    -0.205 F 
ATOM     15  C   UNL     1       9.518  -0.339  23.831  0.00  0.00    +0.133 A 
ATOM     16  C   UNL     1       8.361  -0.326  23.034  0.00  0.00    +0.036 A 
ATOM     17  C   UNL     1       8.166   0.745  22.153  0.00  0.00    +0.013 A 
ATOM     18  C   UNL     1       9.153   1.731  22.024  0.00  0.00    +0.001 A 
ATOM     19  C   UNL     1      10.318   1.679  22.788  0.00  0.00    +0.003 A 
ATOM     20  C   UNL     1      10.488   0.654  23.713  0.00  0.00    +0.039 A 
ENDBRANCH   1  16
BRANCH   9  21
ATOM     21  C   UNL     1       6.714  -5.182  25.344  0.00  0.00    +0.224 C 
BRANCH  21  22
ATOM     22  C   UNL     1       8.057  -5.094  26.073  0.00  0.00    +0.406 C 
ATOM     23  F   UNL     1       7.910  -5.520  27.355  0.00  0.00    -0.169 F 
ATOM     24  F   UNL     1       8.519  -3.826  26.128  0.00  0.00    -0.169 F 
ATOM     25  F   UNL     1       9.015  -5.866  25.515  0.00  0.00    -0.169 F 
ENDBRANCH  21  22
ENDBRANCH   9  21
TORSDOF 3
ENDMDL
MODEL 2
REMARK VINA RESULT:      -6.7      0.998      1.594
REMARK  Name = 
REMARK  3 active torsions:
REMARK  status: ('A' for Active; 'I' for Inactive)
REMARK    1  A    between atoms: C_7  and  C_8
REMARK    2  A    between atoms: N_13  and  C_14
REMARK    3  A    between atoms: C_14  and  C_15
REMARK                            x       y       z     vdW  Elec       q    Type
REMARK                         _______ _______ _______ _____ _____    ______ ____
ROOT
ATOM      1  C   UNL     1       7.869  -1.350  23.458  0.00  0.00    +0.078 C 
ATOM      2  C   UNL     1       6.768  -1.422  24.489  0.00  0.00    +0.023 A 
ATOM      3  C   UNL     1       6.363  -0.221  25.111  0.00  0.00    +0.032 A 
ATOM      4  C   UNL     1       5.332  -0.204  26.048  0.00  0.00    +0.042 A 
ATOM      5  C   UNL     1       4.628  -1.362  26.329  0.00  0.00    +0.022 A 
ATOM      6  C   UNL     1       5.018  -2.560  25.736  0.00  0.00    +0.025 A 
ATOM      7 CL   UNL     1       4.931   1.257  26.860  0.00  0.00    -0.084 Cl
ATOM      8  C   UNL     1       6.118  -2.627  24.851  0.00  0.00    +0.044 A 
ATOM      9  N   UNL     1       6.528  -3.936  24.410  0.00  0.00    -0.287 N 
ATOM     10  C   UNL     1       6.919  -4.201  23.092  0.00  0.00    +0.077 C 
ATOM     11  S   UNL     1       7.400  -5.708  22.510  0.00  0.00    -0.038 S 
ATOM     12  C   UNL     1       6.845  -3.036  22.124  0.00  0.00    +0.201 C 
ATOM     13  N   UNL     1       7.926  -2.118  22.425  0.00  0.00    -0.276 NA
ENDROOT
BRANCH   1  16
ATOM     14  F   UNL     1       7.764   1.005  21.869  0.00  0.00    -0.205 F 
ATOM     15  C   UNL     1       8.777   0.873  22.738  0.00  0.00    +0.133 A 
ATOM     16  C   UNL     1       8.923  -0.274  23.535  0.00  0.00    +0.036 A 
ATOM     17  C   UNL     1      10.008  -0.342  24.420  0.00  0.00    +0.013 A 
ATOM     18  C   UNL     1      10.871   0.753  24.551  0.00  0.00    +0.001 A 
ATOM     19  C   UNL     1      10.684   1.905  23.788  0.00  0.00    +0.003 A 
ATOM     20  C   UNL     1       9.649   1.954  22.860  0.00  0.00    +0.039 A 
ENDBRANCH   1  16
BRANCH   9  21
ATOM     21  C   UNL     1       6.566  -5.002  25.462  0.00  0.00    +0.224 C 
BRANCH  21  22
ATOM     22  C   UNL     1       7.828  -5.080  26.325  0.00  0.00    +0.406 C 
ATOM     23  F   UNL     1       8.771  -5.825  25.691  0.00  0.00    -0.169 F 
ATOM     24  F   UNL     1       7.589  -5.674  27.514  0.00  0.00    -0.169 F 
ATOM     25  F   UNL     1       8.382  -3.872  26.563  0.00  0.00    -0.169 F 
ENDBRANCH  21  22
ENDBRANCH   9  21
TORSDOF 3
ENDMDL
MODEL 3
REMARK VINA RESULT:      -6.3      5.118      7.509
REMARK  Name = 
REMARK  3 active torsions:
REMARK  status: ('A' for Active; 'I' for Inactive)
REMARK    1  A    between atoms: C_7  and  C_8
REMARK    2  A    between atoms: N_13  and  C_14
REMARK    3  A    between atoms: C_14  and  C_15
REMARK                            x       y       z     vdW  Elec       q    Type
REMARK                         _______ _______ _______ _____ _____    ______ ____
ROOT
ATOM      1  C   UNL     1       8.507   2.447  22.970  0.00  0.00    +0.078 C 
ATOM      2  C   UNL     1       9.257   3.689  23.386  0.00  0.00    +0.023 A 
ATOM      3  C   UNL     1      10.656   3.713  23.196  0.00  0.00    +0.032 A 
ATOM      4  C   UNL     1      11.411   4.837  23.525  0.00  0.00    +0.042 A 
ATOM      5  C   UNL     1      10.787   5.988  23.973  0.00  0.00    +0.022 A 
ATOM      6  C   UNL     1       9.410   5.982  24.178  0.00  0.00    +0.025 A 
ATOM      7 CL   UNL     1      13.123   4.798  23.377  0.00  0.00    -0.084 Cl
ATOM      8  C   UNL     1       8.628   4.830  23.941  0.00  0.00    +0.044 A 
ATOM      9  N   UNL     1       7.240   4.885  24.326  0.00  0.00    -0.287 N 
ATOM     10  C   UNL     1       6.216   4.341  23.541  0.00  0.00    +0.077 C 
ATOM     11  S   UNL     1       4.576   4.381  23.927  0.00  0.00    -0.038 S 
ATOM     12  C   UNL     1       6.640   3.721  22.223  0.00  0.00    +0.201 C 
ATOM     13  N   UNL     1       7.308   2.465  22.500  0.00  0.00    -0.276 NA
ENDROOT
BRANCH   1  16
ATOM     14  F   UNL     1       9.055   1.045  25.382  0.00  0.00    -0.205 F 
ATOM     15  C   UNL     1       9.389   0.461  24.222  0.00  0.00    +0.133 A 
ATOM     16  C   UNL     1       9.185   1.099  22.987  0.00  0.00    +0.036 A 
ATOM     17  C   UNL     1       9.559   0.428  21.816  0.00  0.00    +0.013 A 
ATOM     18  C   UNL     1      10.048  -0.883  21.889  0.00  0.00    +0.001 A 
ATOM     19  C   UNL     1      10.199  -1.522  23.119  0.00  0.00    +0.003 A 
ATOM     20  C   UNL     1       9.892  -0.837  24.291  0.00  0.00    +0.039 A 
ENDBRANCH   1  16
BRANCH   9  21
ATOM     21  C   UNL     1       6.950   5.518  25.652  0.00  0.00    +0.224 C 
BRANCH  21  22
ATOM     22  C   UNL     1       6.981   4.602  26.879  0.00  0.00    +0.406 C 
ATOM     23  F   UNL     1       5.719   4.203  27.183  0.00  0.00    -0.169 F 
ATOM     24  F   UNL     1       7.470   5.234  27.967  0.00  0.00    -0.169 F 
ATOM     25  F   UNL     1       7.707   3.480  26.684  0.00  0.00    -0.169 F 
ENDBRANCH  21  22
ENDBRANCH   9  21
TORSDOF 3
ENDMDL
MODEL 4
REMARK VINA RESULT:      -6.2      3.326      5.853
REMARK  Name = 
REMARK  3 active torsions:
REMARK  status: ('A' for Active; 'I' for Inactive)
REMARK    1  A    between atoms: C_7  and  C_8
REMARK    2  A    between atoms: N_13  and  C_14
REMARK    3  A    between atoms: C_14  and  C_15
REMARK                            x       y       z     vdW  Elec       q    Type
REMARK                         _______ _______ _______ _____ _____    ______ ____
ROOT
ATOM      1  C   UNL     1       8.528  -1.223  24.370  0.00  0.00    +0.078 C 
ATOM      2  C   UNL     1       7.439  -0.432  25.053  0.00  0.00    +0.023 A 
ATOM      3  C   UNL     1       6.401  -1.147  25.689  0.00  0.00    +0.032 A 
ATOM      4  C   UNL     1       5.379  -0.486  26.368  0.00  0.00    +0.042 A 
ATOM      5  C   UNL     1       5.407   0.892  26.499  0.00  0.00    +0.022 A 
ATOM      6  C   UNL     1       6.416   1.616  25.870  0.00  0.00    +0.025 A 
ATOM      7 CL   UNL     1       4.077  -1.381  27.046  0.00  0.00    -0.084 Cl
ATOM      8  C   UNL     1       7.415   0.983  25.097  0.00  0.00    +0.044 A 
ATOM      9  N   UNL     1       8.321   1.835  24.368  0.00  0.00    -0.287 N 
ATOM     10  C   UNL     1       9.693   1.569  24.271  0.00  0.00    +0.077 C 
ATOM     11  S   UNL     1      10.807   2.527  23.444  0.00  0.00    -0.038 S 
ATOM     12  C   UNL     1      10.195   0.349  25.019  0.00  0.00    +0.201 C 
ATOM     13  N   UNL     1       9.756  -0.837  24.310  0.00  0.00    -0.276 NA
ENDROOT
BRANCH   1  16
ATOM     14  F   UNL     1       9.162  -3.617  25.765  0.00  0.00    -0.205 F 
ATOM     15  C   UNL     1       8.558  -3.722  24.572  0.00  0.00    +0.133 A 
ATOM     16  C   UNL     1       8.242  -2.591  23.801  0.00  0.00    +0.036 A 
ATOM     17  C   UNL     1       7.612  -2.777  22.564  0.00  0.00    +0.013 A 
ATOM     18  C   UNL     1       7.239  -4.065  22.158  0.00  0.00    +0.001 A 
ATOM     19  C   UNL     1       7.516  -5.174  22.956  0.00  0.00    +0.003 A 
ATOM     20  C   UNL     1       8.200  -5.004  24.156  0.00  0.00    +0.039 A 
ENDBRANCH   1  16
BRANCH   9  21
ATOM     21  C   UNL     1       7.704   3.005  23.667  0.00  0.00    +0.224 C 
BRANCH  21  22
ATOM     22  C   UNL     1       7.137   2.755  22.267  0.00  0.00    +0.406 C 
ATOM     23  F   UNL     1       6.779   3.938  21.702  0.00  0.00    -0.169 F 
ATOM     24  F   UNL     1       6.031   1.982  22.302  0.00  0.00    -0.169 F 
ATOM     25  F   UNL     1       8.027   2.179  21.431  0.00  0.00    -0.169 F 
ENDBRANCH  21  22
ENDBRANCH   9  21
TORSDOF 3
ENDMDL
MODEL 5
REMARK VINA RESULT:      -6.1      3.617      5.279
REMARK  Name = 
REMARK  3 active torsions:
REMARK  status: ('A' for Active; 'I' for Inactive)
REMARK    1  A    between atoms: C_7  and  C_8
REMARK    2  A    between atoms: N_13  and  C_14
REMARK    3  A    between atoms: C_14  and  C_15
REMARK                            x       y       z     vdW  Elec       q    Type
REMARK                         _______ _______ _______ _____ _____    ______ ____
ROOT
ATOM      1  C   UNL     1       6.999   1.456  25.055  0.00  0.00    +0.078 C 
ATOM      2  C   UNL     1       8.452   1.265  24.691  0.00  0.00    +0.023 A 
ATOM      3  C   UNL     1       9.186   2.398  24.278  0.00  0.00    +0.032 A 
ATOM      4  C   UNL     1      10.539   2.305  23.957  0.00  0.00    +0.042 A 
ATOM      5  C   UNL     1      11.211   1.105  24.116  0.00  0.00    +0.022 A 
ATOM      6  C   UNL     1      10.503  -0.027  24.511  0.00  0.00    +0.025 A 
ATOM      7 CL   UNL     1      11.379   3.681  23.361  0.00  0.00    -0.084 Cl
ATOM      8  C   UNL     1       9.112   0.014  24.755  0.00  0.00    +0.044 A 
ATOM      9  N   UNL     1       8.453  -1.242  25.014  0.00  0.00    -0.287 N 
ATOM     10  C   UNL     1       7.460  -1.386  25.991  0.00  0.00    +0.077 C 
ATOM     11  S   UNL     1       6.657  -2.824  26.349  0.00  0.00    -0.038 S 
ATOM     12  C   UNL     1       7.139  -0.149  26.808  0.00  0.00    +0.201 C 
ATOM     13  N   UNL     1       6.401   0.776  25.972  0.00  0.00    -0.276 NA
ENDROOT
BRANCH   1  16
ATOM     14  F   UNL     1       6.294   1.434  22.301  0.00  0.00    -0.205 F 
ATOM     15  C   UNL     1       5.855   2.450  23.058  0.00  0.00    +0.133 A 
ATOM     16  C   UNL     1       6.187   2.556  24.419  0.00  0.00    +0.036 A 
ATOM     17  C   UNL     1       5.692   3.647  25.147  0.00  0.00    +0.013 A 
ATOM     18  C   UNL     1       4.821   4.557  24.534  0.00  0.00    +0.001 A 
ATOM     19  C   UNL     1       4.462   4.411  23.195  0.00  0.00    +0.003 A 
ATOM     20  C   UNL     1       5.001   3.369  22.448  0.00  0.00    +0.039 A 
ENDBRANCH   1  16
BRANCH   9  21
ATOM     21  C   UNL     1       8.852  -2.387  24.136  0.00  0.00    +0.224 C 
BRANCH  21  22
ATOM     22  C   UNL     1       8.265  -2.415  22.722  0.00  0.00    +0.406 C 
ATOM     23  F   UNL     1       9.208  -2.018  21.828  0.00  0.00    -0.169 F 
ATOM     24  F   UNL     1       7.218  -1.572  22.594  0.00  0.00    -0.169 F 
ATOM     25  F   UNL     1       7.862  -3.646  22.340  0.00  0.00    -0.169 F 
ENDBRANCH  21  22
ENDBRANCH   9  21
TORSDOF 3
ENDMDL
MODEL 6
REMARK VINA RESULT:      -6.1      3.289      5.706
REMARK  Name = 
REMARK  3 active torsions:
REMARK  status: ('A' for Active; 'I' for Inactive)
REMARK    1  A    between atoms: C_7  and  C_8
REMARK    2  A    between atoms: N_13  and  C_14
REMARK    3  A    between atoms: C_14  and  C_15
REMARK                            x       y       z     vdW  Elec       q    Type
REMARK                         _______ _______ _______ _____ _____    ______ ____
ROOT
ATOM      1  C   UNL     1       8.036  -2.403  23.702  0.00  0.00    +0.078 C 
ATOM      2  C   UNL     1       7.357  -1.736  24.873  0.00  0.00    +0.023 A 
ATOM      3  C   UNL     1       6.560  -2.536  25.721  0.00  0.00    +0.032 A 
ATOM      4  C   UNL     1       5.928  -1.997  26.840  0.00  0.00    +0.042 A 
ATOM      5  C   UNL     1       6.136  -0.673  27.187  0.00  0.00    +0.022 A 
ATOM      6  C   UNL     1       6.908   0.136  26.358  0.00  0.00    +0.025 A 
ATOM      7 CL   UNL     1       4.885  -2.975  27.794  0.00  0.00    -0.084 Cl
ATOM      8  C   UNL     1       7.488  -0.357  25.167  0.00  0.00    +0.044 A 
ATOM      9  N   UNL     1       8.141   0.599  24.309  0.00  0.00    -0.287 N 
ATOM     10  C   UNL     1       9.349   0.324  23.655  0.00  0.00    +0.077 C 
ATOM     11  S   UNL     1      10.169   1.398  22.647  0.00  0.00    -0.038 S 
ATOM     12  C   UNL     1       9.969  -1.031  23.933  0.00  0.00    +0.201 C 
ATOM     13  N   UNL     1       9.188  -2.043  23.250  0.00  0.00    -0.276 NA
ENDROOT
BRANCH   1  16
ATOM     14  F   UNL     1       5.816  -2.252  21.934  0.00  0.00    -0.205 F 
ATOM     15  C   UNL     1       6.355  -3.457  22.169  0.00  0.00    +0.133 A 
ATOM     16  C   UNL     1       7.431  -3.625  23.057  0.00  0.00    +0.036 A 
ATOM     17  C   UNL     1       7.942  -4.914  23.255  0.00  0.00    +0.013 A 
ATOM     18  C   UNL     1       7.431  -5.988  22.514  0.00  0.00    +0.001 A 
ATOM     19  C   UNL     1       6.395  -5.798  21.600  0.00  0.00    +0.003 A 
ATOM     20  C   UNL     1       5.839  -4.532  21.447  0.00  0.00    +0.039 A 
ENDBRANCH   1  16
BRANCH   9  21
ATOM     21  C   UNL     1       7.426   1.899  24.108  0.00  0.00    +0.224 C 
BRANCH  21  22
ATOM     22  C   UNL     1       6.495   1.999  22.897  0.00  0.00    +0.406 C 
ATOM     23  F   UNL     1       6.441   0.799  22.262  0.00  0.00    -0.169 F 
ATOM     24  F   UNL     1       6.934   2.904  21.996  0.00  0.00    -0.169 F 
ATOM     25  F   UNL     1       5.226   2.320  23.229  0.00  0.00    -0.169 F 
ENDBRANCH  21  22
ENDBRANCH   9  21
TORSDOF 3
ENDMDL
MODEL 7
REMARK VINA RESULT:      -6.1      3.581      4.798
REMARK  Name = 
REMARK  3 active torsions:
REMARK  status: ('A' for Active; 'I' for Inactive)
REMARK    1  A    between atoms: C_7  and  C_8
REMARK    2  A    between atoms: N_13  and  C_14
REMARK    3  A    between atoms: C_14  and  C_15
REMARK                            x       y       z     vdW  Elec       q    Type
REMARK                         _______ _______ _______ _____ _____    ______ ____
ROOT
ATOM      1  C   UNL     1       7.387  -3.817  25.311  0.00  0.00    +0.078 C 
ATOM      2  C   UNL     1       6.445  -4.686  24.513  0.00  0.00    +0.023 A 
ATOM      3  C   UNL     1       6.690  -4.833  23.130  0.00  0.00    +0.032 A 
ATOM      4  C   UNL     1       5.883  -5.645  22.336  0.00  0.00    +0.042 A 
ATOM      5  C   UNL     1       4.866  -6.389  22.908  0.00  0.00    +0.022 A 
ATOM      6  C   UNL     1       4.601  -6.250  24.268  0.00  0.00    +0.025 A 
ATOM      7 CL   UNL     1       6.147  -5.723  20.639  0.00  0.00    -0.084 Cl
ATOM      8  C   UNL     1       5.342  -5.366  25.083  0.00  0.00    +0.044 A 
ATOM      9  N   UNL     1       4.890  -5.187  26.440  0.00  0.00    -0.287 N 
ATOM     10  C   UNL     1       5.771  -5.102  27.525  0.00  0.00    +0.077 C 
ATOM     11  S   UNL     1       5.309  -4.903  29.134  0.00  0.00    -0.038 S 
ATOM     12  C   UNL     1       7.246  -5.254  27.204  0.00  0.00    +0.201 C 
ATOM     13  N   UNL     1       7.699  -4.048  26.539  0.00  0.00    -0.276 NA
ENDROOT
BRANCH   1  16
ATOM     14  F   UNL     1      10.102  -3.993  24.485  0.00  0.00    -0.205 F 
ATOM     15  C   UNL     1       9.443  -2.849  24.249  0.00  0.00    +0.133 A 
ATOM     16  C   UNL     1       8.110  -2.666  24.656  0.00  0.00    +0.036 A 
ATOM     17  C   UNL     1       7.486  -1.444  24.376  0.00  0.00    +0.013 A 
ATOM     18  C   UNL     1       8.164  -0.467  23.634  0.00  0.00    +0.001 A 
ATOM     19  C   UNL     1       9.469  -0.683  23.195  0.00  0.00    +0.003 A 
ATOM     20  C   UNL     1      10.119  -1.868  23.526  0.00  0.00    +0.039 A 
ENDBRANCH   1  16
BRANCH   9  21
ATOM     21  C   UNL     1       3.411  -5.043  26.627  0.00  0.00    +0.224 C 
BRANCH  21  22
ATOM     22  C   UNL     1       2.783  -3.716  26.193  0.00  0.00    +0.406 C 
ATOM     23  F   UNL     1       3.706  -2.723  26.281  0.00  0.00    -0.169 F 
ATOM     24  F   UNL     1       1.748  -3.365  26.985  0.00  0.00    -0.169 F 
ATOM     25  F   UNL     1       2.347  -3.729  24.915  0.00  0.00    -0.169 F 
ENDBRANCH  21  22
ENDBRANCH   9  21
TORSDOF 3
ENDMDL
MODEL 8
REMARK VINA RESULT:      -6.0      2.933      4.569
REMARK  Name = 
REMARK  3 active torsions:
REMARK  status: ('A' for Active; 'I' for Inactive)
REMARK    1  A    between atoms: C_7  and  C_8
REMARK    2  A    between atoms: N_13  and  C_14
REMARK    3  A    between atoms: C_14  and  C_15
REMARK                            x       y       z     vdW  Elec       q    Type
REMARK                         _______ _______ _______ _____ _____    ______ ____
ROOT
ATOM      1  C   UNL     1       7.339  -1.226  25.830  0.00  0.00    +0.078 C 
ATOM      2  C   UNL     1       7.934  -1.359  24.450  0.00  0.00    +0.023 A 
ATOM      3  C   UNL     1       8.601  -0.240  23.905  0.00  0.00    +0.032 A 
ATOM      4  C   UNL     1       9.204  -0.298  22.650  0.00  0.00    +0.042 A 
ATOM      5  C   UNL     1       9.228  -1.488  21.944  0.00  0.00    +0.022 A 
ATOM      6  C   UNL     1       8.566  -2.600  22.457  0.00  0.00    +0.025 A 
ATOM      7 CL   UNL     1       9.920   1.111  21.974  0.00  0.00    -0.084 Cl
ATOM      8  C   UNL     1       7.868  -2.549  23.684  0.00  0.00    +0.044 A 
ATOM      9  N   UNL     1       7.095  -3.709  24.050  0.00  0.00    -0.287 N 
ATOM     10  C   UNL     1       7.049  -4.203  25.360  0.00  0.00    +0.077 C 
ATOM     11  S   UNL     1       6.175  -5.557  25.852  0.00  0.00    -0.038 S 
ATOM     12  C   UNL     1       7.900  -3.474  26.382  0.00  0.00    +0.201 C 
ATOM     13  N   UNL     1       7.276  -2.198  26.674  0.00  0.00    -0.276 NA
ENDROOT
BRANCH   1  16
ATOM     14  F   UNL     1       5.292   0.267  24.541  0.00  0.00    -0.205 F 
ATOM     15  C   UNL     1       5.832   0.771  25.660  0.00  0.00    +0.133 A 
ATOM     16  C   UNL     1       6.872   0.115  26.339  0.00  0.00    +0.036 A 
ATOM     17  C   UNL     1       7.388   0.702  27.502  0.00  0.00    +0.013 A 
ATOM     18  C   UNL     1       6.812   1.875  28.006  0.00  0.00    +0.001 A 
ATOM     19  C   UNL     1       5.749   2.489  27.347  0.00  0.00    +0.003 A 
ATOM     20  C   UNL     1       5.274   1.948  26.156  0.00  0.00    +0.039 A 
ENDBRANCH   1  16
BRANCH   9  21
ATOM     21  C   UNL     1       6.291  -4.337  22.954  0.00  0.00    +0.224 C 
BRANCH  21  22
ATOM     22  C   UNL     1       6.859  -5.609  22.318  0.00  0.00    +0.406 C 
ATOM     23  F   UNL     1       6.026  -6.654  22.564  0.00  0.00    -0.169 F 
ATOM     24  F   UNL     1       8.065  -5.934  22.832  0.00  0.00    -0.169 F 
ATOM     25  F   UNL     1       6.985  -5.520  20.977  0.00  0.00    -0.169 F 
ENDBRANCH  21  22
ENDBRANCH   9  21
TORSDOF 3
ENDMDL
MODEL 9
REMARK VINA RESULT:      -5.9      2.525      5.703
REMARK  Name = 
REMARK  3 active torsions:
REMARK  status: ('A' for Active; 'I' for Inactive)
REMARK    1  A    between atoms: C_7  and  C_8
REMARK    2  A    between atoms: N_13  and  C_14
REMARK    3  A    between atoms: C_14  and  C_15
REMARK                            x       y       z     vdW  Elec       q    Type
REMARK                         _______ _______ _______ _____ _____    ______ ____
ROOT
ATOM      1  C   UNL     1       6.998  -3.395  24.572  0.00  0.00    +0.078 C 
ATOM      2  C   UNL     1       6.813  -2.207  25.486  0.00  0.00    +0.023 A 
ATOM      3  C   UNL     1       5.852  -2.308  26.516  0.00  0.00    +0.032 A 
ATOM      4  C   UNL     1       5.649  -1.265  27.418  0.00  0.00    +0.042 A 
ATOM      5  C   UNL     1       6.446  -0.135  27.368  0.00  0.00    +0.022 A 
ATOM      6  C   UNL     1       7.391  -0.011  26.353  0.00  0.00    +0.025 A 
ATOM      7 CL   UNL     1       4.403  -1.379  28.597  0.00  0.00    -0.084 Cl
ATOM      8  C   UNL     1       7.560  -1.010  25.368  0.00  0.00    +0.044 A 
ATOM      9  N   UNL     1       8.459  -0.716  24.280  0.00  0.00    -0.287 N 
ATOM     10  C   UNL     1       9.345  -1.665  23.756  0.00  0.00    +0.077 C 
ATOM     11  S   UNL     1      10.426  -1.385  22.493  0.00  0.00    -0.038 S 
ATOM     12  C   UNL     1       9.346  -3.025  24.428  0.00  0.00    +0.201 C 
ATOM     13  N   UNL     1       8.131  -3.723  24.055  0.00  0.00    -0.276 NA
ENDROOT
BRANCH   1  16
ATOM     14  F   UNL     1       6.737  -5.896  25.898  0.00  0.00    -0.205 F 
ATOM     15  C   UNL     1       5.784  -5.542  25.024  0.00  0.00    +0.133 A 
ATOM     16  C   UNL     1       5.854  -4.340  24.300  0.00  0.00    +0.036 A 
ATOM     17  C   UNL     1       4.822  -4.036  23.403  0.00  0.00    +0.013 A 
ATOM     18  C   UNL     1       3.712  -4.886  23.303  0.00  0.00    +0.001 A 
ATOM     19  C   UNL     1       3.634  -6.051  24.065  0.00  0.00    +0.003 A 
ATOM     20  C   UNL     1       4.685  -6.392  24.909  0.00  0.00    +0.039 A 
ENDBRANCH   1  16
BRANCH   9  21
ATOM     21  C   UNL     1       8.358   0.659  23.697  0.00  0.00    +0.224 C 
BRANCH  21  22
ATOM     22  C   UNL     1       9.416   1.676  24.132  0.00  0.00    +0.406 C 
ATOM     23  F   UNL     1      10.119   2.096  23.047  0.00  0.00    -0.169 F 
ATOM     24  F   UNL     1      10.304   1.142  24.997  0.00  0.00    -0.169 F 
ATOM     25  F   UNL     1       8.887   2.781  24.702  0.00  0.00    -0.169 F 
ENDBRANCH  21  22
ENDBRANCH   9  21
TORSDOF 3
ENDMDL
