MODEL 1
REMARK VINA RESULT:      -7.3      0.000      0.000
REMARK  Name = 
REMARK  9 active torsions:
REMARK  status: ('A' for Active; 'I' for Inactive)
REMARK    1  A    between atoms: C_2  and  S_3
REMARK    2  A    between atoms: C_2  and  C_4
REMARK    3  A    between atoms: C_2  and  C_11
REMARK    4  A    between atoms: C_4  and  C_5
REMARK    5  A    between atoms: N_13  and  C_14
REMARK    6  A    between atoms: C_14  and  C_15
REMARK    7  A    between atoms: C_18  and  C_30
REMARK    8  A    between atoms: C_22  and  C_24
REMARK    9  A    between atoms: C_30  and  O_31
REMARK                            x       y       z     vdW  Elec       q    Type
REMARK                         _______ _______ _______ _____ _____    ______ ____
ROOT
ATOM      1  C   UNL     1       6.628  -5.283  23.780  0.00  0.00    +0.234 C 
ATOM      2  N   UNL     1       5.974  -5.164  25.015  0.00  0.00    -0.280 N 
ATOM      3  C   UNL     1       4.535  -4.858  24.926  0.00  0.00    +0.107 C 
ATOM      4  C   UNL     1       4.137  -4.305  26.308  0.00  0.00    +0.030 C 
ATOM      5  C   UNL     1       5.393  -4.401  27.158  0.00  0.00    +0.036 C 
ATOM      6  C   UNL     1       6.526  -4.384  26.143  0.00  0.00    +0.185 C 
ATOM      7  O   UNL     1       6.083  -5.795  22.796  0.00  0.00    -0.274 OA
ENDROOT
BRANCH   3   8
ATOM      8  C   UNL     1       3.576  -5.921  24.438  0.00  0.00    -0.027 A 
ATOM      9  C   UNL     1       3.495  -7.206  24.982  0.00  0.00    +0.005 A 
ATOM     10  C   UNL     1       2.568  -8.129  24.483  0.00  0.00    +0.000 A 
ATOM     11  C   UNL     1       1.704  -7.775  23.444  0.00  0.00    +0.000 A 
ATOM     12  C   UNL     1       1.760  -6.497  22.904  0.00  0.00    +0.000 A 
ATOM     13  C   UNL     1       2.685  -5.577  23.399  0.00  0.00    +0.005 A 
ENDBRANCH   3   8
BRANCH   6  14
ATOM     14  C   UNL     1       7.794  -4.915  26.814  0.00  0.00    +0.325 C 
ATOM     15  O   UNL     1       8.840  -4.291  26.888  0.00  0.00    -0.249 OA
BRANCH  14  16
ATOM     16  O   UNL     1       7.642  -6.137  27.368  0.00  0.00    -0.479 OA
ATOM     17  H   UNL     1       6.994  -6.102  28.109  0.00  0.00    +0.295 HD
ENDBRANCH  14  16
ENDBRANCH   6  14
BRANCH   1  18
ATOM     18  C   UNL     1       8.046  -4.712  23.626  0.00  0.00    +0.200 C 
BRANCH  18  20
ATOM     19  C   UNL     1       9.122  -2.502  23.714  0.00  0.00    +0.226 C 
ATOM     20  N   UNL     1       7.984  -3.265  23.521  0.00  0.00    -0.306 N 
ATOM     21  H   UNL     1       7.071  -2.837  23.603  0.00  0.00    +0.149 HD
ATOM     22  O   UNL     1      10.209  -3.010  23.978  0.00  0.00    -0.275 OA
BRANCH  19  23
ATOM     23  C   UNL     1       8.984  -0.995  23.524  0.00  0.00    +0.133 C 
BRANCH  23  24
ATOM     24  S   UNL     1       7.249  -0.624  23.055  0.00  0.00    -0.165 S 
ATOM     25  H   UNL     1       7.528   0.393  22.228  0.00  0.00    +0.102 HD
ENDBRANCH  23  24
BRANCH  23  26
ATOM     26  C   UNL     1       9.399  -0.171  24.744  0.00  0.00    +0.058 C 
BRANCH  26  27
ATOM     27  C   UNL     1       9.554   1.303  24.451  0.00  0.00    -0.046 A 
ATOM     28  C   UNL     1       8.623   2.226  24.944  0.00  0.00    +0.004 A 
ATOM     29  C   UNL     1       8.750   3.585  24.654  0.00  0.00    +0.000 A 
ATOM     30  C   UNL     1       9.811   4.038  23.873  0.00  0.00    +0.000 A 
ATOM     31  C   UNL     1      10.749   3.131  23.385  0.00  0.00    +0.000 A 
ATOM     32  C   UNL     1      10.620   1.770  23.669  0.00  0.00    +0.004 A 
ENDBRANCH  26  27
ENDBRANCH  23  26
ENDBRANCH  19  23
ENDBRANCH  18  20
ENDBRANCH   1  18
TORSDOF 9
ENDMDL
MODEL 2
REMARK VINA RESULT:      -7.2      1.639      2.189
REMARK  Name = 
REMARK  9 active torsions:
REMARK  status: ('A' for Active; 'I' for Inactive)
REMARK    1  A    between atoms: C_2  and  S_3
REMARK    2  A    between atoms: C_2  and  C_4
REMARK    3  A    between atoms: C_2  and  C_11
REMARK    4  A    between atoms: C_4  and  C_5
REMARK    5  A    between atoms: N_13  and  C_14
REMARK    6  A    between atoms: C_14  and  C_15
REMARK    7  A    between atoms: C_18  and  C_30
REMARK    8  A    between atoms: C_22  and  C_24
REMARK    9  A    between atoms: C_30  and  O_31
REMARK                            x       y       z     vdW  Elec       q    Type
REMARK                         _______ _______ _______ _____ _____    ______ ____
ROOT
ATOM      1  C   UNL     1       5.642  -5.815  25.407  0.00  0.00    +0.234 C 
ATOM      2  N   UNL     1       4.586  -5.953  26.320  0.00  0.00    -0.280 N 
ATOM      3  C   UNL     1       3.270  -5.520  25.815  0.00  0.00    +0.107 C 
ATOM      4  C   UNL     1       2.395  -5.297  27.062  0.00  0.00    +0.030 C 
ATOM      5  C   UNL     1       3.263  -5.702  28.243  0.00  0.00    +0.036 C 
ATOM      6  C   UNL     1       4.684  -5.525  27.731  0.00  0.00    +0.185 C 
ATOM      7  O   UNL     1       5.494  -6.021  24.198  0.00  0.00    -0.274 OA
ENDROOT
BRANCH   3   8
ATOM      8  C   UNL     1       2.566  -6.348  24.763  0.00  0.00    -0.027 A 
ATOM      9  C   UNL     1       2.447  -7.739  24.817  0.00  0.00    +0.005 A 
ATOM     10  C   UNL     1       1.765  -8.432  23.809  0.00  0.00    +0.000 A 
ATOM     11  C   UNL     1       1.185  -7.741  22.743  0.00  0.00    +0.000 A 
ATOM     12  C   UNL     1       1.280  -6.357  22.682  0.00  0.00    +0.000 A 
ATOM     13  C   UNL     1       1.961  -5.667  23.685  0.00  0.00    +0.005 A 
ENDBRANCH   3   8
BRANCH   6  14
ATOM     14  C   UNL     1       5.634  -6.306  28.641  0.00  0.00    +0.325 C 
ATOM     15  O   UNL     1       6.385  -5.787  29.451  0.00  0.00    -0.249 OA
BRANCH  14  16
ATOM     16  O   UNL     1       5.537  -7.646  28.501  0.00  0.00    -0.479 OA
ATOM     17  H   UNL     1       5.164  -8.052  29.317  0.00  0.00    +0.295 HD
ENDBRANCH  14  16
ENDBRANCH   6  14
BRANCH   1  18
ATOM     18  C   UNL     1       7.012  -5.340  25.914  0.00  0.00    +0.200 C 
BRANCH  18  20
ATOM     19  C   UNL     1       8.221  -3.916  24.314  0.00  0.00    +0.226 C 
ATOM     20  N   UNL     1       7.317  -4.035  25.354  0.00  0.00    -0.306 N 
ATOM     21  H   UNL     1       7.092  -3.228  25.920  0.00  0.00    +0.149 HD
ATOM     22  O   UNL     1       8.792  -4.892  23.833  0.00  0.00    -0.275 OA
BRANCH  19  23
ATOM     23  C   UNL     1       8.437  -2.519  23.742  0.00  0.00    +0.133 C 
BRANCH  23  24
ATOM     24  S   UNL     1       7.255  -1.371  24.549  0.00  0.00    -0.165 S 
ATOM     25  H   UNL     1       7.674  -1.578  25.806  0.00  0.00    +0.102 HD
ENDBRANCH  23  24
BRANCH  23  26
ATOM     26  C   UNL     1       9.870  -2.001  23.882  0.00  0.00    +0.058 C 
BRANCH  26  27
ATOM     27  C   UNL     1      10.032  -0.557  23.465  0.00  0.00    -0.046 A 
ATOM     28  C   UNL     1      10.510   0.393  24.377  0.00  0.00    +0.004 A 
ATOM     29  C   UNL     1      10.637   1.732  24.003  0.00  0.00    +0.000 A 
ATOM     30  C   UNL     1      10.294   2.134  22.714  0.00  0.00    +0.000 A 
ATOM     31  C   UNL     1       9.827   1.196  21.797  0.00  0.00    +0.000 A 
ATOM     32  C   UNL     1       9.692  -0.142  22.170  0.00  0.00    +0.004 A 
ENDBRANCH  26  27
ENDBRANCH  23  26
ENDBRANCH  19  23
ENDBRANCH  18  20
ENDBRANCH   1  18
TORSDOF 9
ENDMDL
MODEL 3
REMARK VINA RESULT:      -7.0      1.870      3.920
REMARK  Name = 
REMARK  9 active torsions:
REMARK  status: ('A' for Active; 'I' for Inactive)
REMARK    1  A    between atoms: C_2  and  S_3
REMARK    2  A    between atoms: C_2  and  C_4
REMARK    3  A    between atoms: C_2  and  C_11
REMARK    4  A    between atoms: C_4  and  C_5
REMARK    5  A    between atoms: N_13  and  C_14
REMARK    6  A    between atoms: C_14  and  C_15
REMARK    7  A    between atoms: C_18  and  C_30
REMARK    8  A    between atoms: C_22  and  C_24
REMARK    9  A    between atoms: C_30  and  O_31
REMARK                            x       y       z     vdW  Elec       q    Type
REMARK                         _______ _______ _______ _____ _____    ______ ____
ROOT
ATOM      1  C   UNL     1       6.454  -5.451  25.482  0.00  0.00    +0.234 C 
ATOM      2  N   UNL     1       5.148  -5.919  25.274  0.00  0.00    -0.280 N 
ATOM      3  C   UNL     1       4.606  -6.747  26.366  0.00  0.00    +0.107 C 
ATOM      4  C   UNL     1       3.425  -7.526  25.756  0.00  0.00    +0.030 C 
ATOM      5  C   UNL     1       3.309  -7.027  24.325  0.00  0.00    +0.036 C 
ATOM      6  C   UNL     1       4.704  -6.519  23.998  0.00  0.00    +0.185 C 
ATOM      7  O   UNL     1       6.857  -5.107  26.598  0.00  0.00    -0.274 OA
ENDROOT
BRANCH   3   8
ATOM      8  C   UNL     1       4.242  -6.097  27.683  0.00  0.00    -0.027 A 
ATOM      9  C   UNL     1       3.516  -4.908  27.791  0.00  0.00    +0.005 A 
ATOM     10  C   UNL     1       3.206  -4.379  29.050  0.00  0.00    +0.000 A 
ATOM     11  C   UNL     1       3.607  -5.039  30.214  0.00  0.00    +0.000 A 
ATOM     12  C   UNL     1       4.314  -6.230  30.125  0.00  0.00    +0.000 A 
ATOM     13  C   UNL     1       4.625  -6.757  28.870  0.00  0.00    +0.005 A 
ENDBRANCH   3   8
BRANCH   6  14
ATOM     14  C   UNL     1       4.620  -5.600  22.778  0.00  0.00    +0.325 C 
ATOM     15  O   UNL     1       4.141  -4.478  22.799  0.00  0.00    -0.249 OA
BRANCH  14  16
ATOM     16  O   UNL     1       5.172  -6.129  21.664  0.00  0.00    -0.479 OA
ATOM     17  H   UNL     1       4.735  -5.770  20.858  0.00  0.00    +0.295 HD
ENDBRANCH  14  16
ENDBRANCH   6  14
BRANCH   1  18
ATOM     18  C   UNL     1       7.434  -5.416  24.299  0.00  0.00    +0.200 C 
BRANCH  18  20
ATOM     19  C   UNL     1       7.776  -3.529  22.760  0.00  0.00    +0.226 C 
ATOM     20  N   UNL     1       7.843  -4.047  24.041  0.00  0.00    -0.306 N 
ATOM     21  H   UNL     1       8.434  -3.606  24.732  0.00  0.00    +0.149 HD
ATOM     22  O   UNL     1       7.377  -4.196  21.808  0.00  0.00    -0.275 OA
BRANCH  19  23
ATOM     23  C   UNL     1       8.164  -2.064  22.586  0.00  0.00    +0.133 C 
BRANCH  23  24
ATOM     24  S   UNL     1       6.999  -1.035  23.559  0.00  0.00    -0.165 S 
ATOM     25  H   UNL     1       6.520  -2.026  24.325  0.00  0.00    +0.102 HD
ENDBRANCH  23  24
BRANCH  23  26
ATOM     26  C   UNL     1       9.610  -1.751  22.972  0.00  0.00    +0.058 C 
BRANCH  26  27
ATOM     27  C   UNL     1       9.926  -0.273  22.977  0.00  0.00    -0.046 A 
ATOM     28  C   UNL     1      10.419   0.342  24.135  0.00  0.00    +0.004 A 
ATOM     29  C   UNL     1      10.688   1.711  24.151  0.00  0.00    +0.000 A 
ATOM     30  C   UNL     1      10.472   2.480  23.009  0.00  0.00    +0.000 A 
ATOM     31  C   UNL     1       9.991   1.878  21.850  0.00  0.00    +0.000 A 
ATOM     32  C   UNL     1       9.715   0.509  21.833  0.00  0.00    +0.004 A 
ENDBRANCH  26  27
ENDBRANCH  23  26
ENDBRANCH  19  23
ENDBRANCH  18  20
ENDBRANCH   1  18
TORSDOF 9
ENDMDL
MODEL 4
REMARK VINA RESULT:      -7.0      3.429      4.980
REMARK  Name = 
REMARK  9 active torsions:
REMARK  status: ('A' for Active; 'I' for Inactive)
REMARK    1  A    between atoms: C_2  and  S_3
REMARK    2  A    between atoms: C_2  and  C_4
REMARK    3  A    between atoms: C_2  and  C_11
REMARK    4  A    between atoms: C_4  and  C_5
REMARK    5  A    between atoms: N_13  and  C_14
REMARK    6  A    between atoms: C_14  and  C_15
REMARK    7  A    between atoms: C_18  and  C_30
REMARK    8  A    between atoms: C_22  and  C_24
REMARK    9  A    between atoms: C_30  and  O_31
REMARK                            x       y       z     vdW  Elec       q    Type
REMARK                         _______ _______ _______ _____ _____    ______ ____
ROOT
ATOM      1  C   UNL     1       6.175  -0.013  24.283  0.00  0.00    +0.234 C 
ATOM      2  N   UNL     1       5.980  -0.836  25.403  0.00  0.00    -0.280 N 
ATOM      3  C   UNL     1       5.307  -2.116  25.120  0.00  0.00    +0.107 C 
ATOM      4  C   UNL     1       4.773  -2.617  26.475  0.00  0.00    +0.030 C 
ATOM      5  C   UNL     1       5.251  -1.600  27.499  0.00  0.00    +0.036 C 
ATOM      6  C   UNL     1       5.454  -0.330  26.688  0.00  0.00    +0.185 C 
ATOM      7  O   UNL     1       6.456  -0.474  23.172  0.00  0.00    -0.274 OA
ENDROOT
BRANCH   3   8
ATOM      8  C   UNL     1       6.048  -3.197  24.364  0.00  0.00    -0.027 A 
ATOM      9  C   UNL     1       5.535  -3.855  23.243  0.00  0.00    +0.005 A 
ATOM     10  C   UNL     1       6.292  -4.835  22.589  0.00  0.00    +0.000 A 
ATOM     11  C   UNL     1       7.573  -5.159  23.040  0.00  0.00    +0.000 A 
ATOM     12  C   UNL     1       8.105  -4.503  24.142  0.00  0.00    +0.000 A 
ATOM     13  C   UNL     1       7.350  -3.528  24.796  0.00  0.00    +0.005 A 
ENDBRANCH   3   8
BRANCH   6  14
ATOM     14  C   UNL     1       6.342   0.626  27.487  0.00  0.00    +0.325 C 
ATOM     15  O   UNL     1       5.916   1.529  28.188  0.00  0.00    -0.249 OA
BRANCH  14  16
ATOM     16  O   UNL     1       7.660   0.352  27.384  0.00  0.00    -0.479 OA
ATOM     17  H   UNL     1       8.059   0.230  28.276  0.00  0.00    +0.295 HD
ENDBRANCH  14  16
ENDBRANCH   6  14
BRANCH   1  18
ATOM     18  C   UNL     1       5.980   1.504  24.426  0.00  0.00    +0.200 C 
BRANCH  18  20
ATOM     19  C   UNL     1       8.083   2.777  24.361  0.00  0.00    +0.226 C 
ATOM     20  N   UNL     1       7.019   2.203  23.690  0.00  0.00    -0.306 N 
ATOM     21  H   UNL     1       6.792   2.506  22.752  0.00  0.00    +0.149 HD
ATOM     22  O   UNL     1       8.189   2.720  25.583  0.00  0.00    -0.275 OA
BRANCH  19  23
ATOM     23  C   UNL     1       9.162   3.438  23.508  0.00  0.00    +0.133 C 
BRANCH  23  24
ATOM     24  S   UNL     1       9.516   5.098  24.202  0.00  0.00    -0.165 S 
ATOM     25  H   UNL     1       8.291   5.608  24.014  0.00  0.00    +0.102 HD
ENDBRANCH  23  24
BRANCH  23  26
ATOM     26  C   UNL     1      10.449   2.620  23.386  0.00  0.00    +0.058 C 
BRANCH  26  27
ATOM     27  C   UNL     1      10.210   1.166  23.050  0.00  0.00    -0.046 A 
ATOM     28  C   UNL     1       9.780   0.797  21.768  0.00  0.00    +0.004 A 
ATOM     29  C   UNL     1       9.534  -0.542  21.462  0.00  0.00    +0.000 A 
ATOM     30  C   UNL     1       9.720  -1.527  22.430  0.00  0.00    +0.000 A 
ATOM     31  C   UNL     1      10.156  -1.173  23.704  0.00  0.00    +0.000 A 
ATOM     32  C   UNL     1      10.397   0.167  24.015  0.00  0.00    +0.004 A 
ENDBRANCH  26  27
ENDBRANCH  23  26
ENDBRANCH  19  23
ENDBRANCH  18  20
ENDBRANCH   1  18
TORSDOF 9
ENDMDL
MODEL 5
REMARK VINA RESULT:      -6.9      3.255      4.514
REMARK  Name = 
REMARK  9 active torsions:
REMARK  status: ('A' for Active; 'I' for Inactive)
REMARK    1  A    between atoms: C_2  and  S_3
REMARK    2  A    between atoms: C_2  and  C_4
REMARK    3  A    between atoms: C_2  and  C_11
REMARK    4  A    between atoms: C_4  and  C_5
REMARK    5  A    between atoms: N_13  and  C_14
REMARK    6  A    between atoms: C_14  and  C_15
REMARK    7  A    between atoms: C_18  and  C_30
REMARK    8  A    between atoms: C_22  and  C_24
REMARK    9  A    between atoms: C_30  and  O_31
REMARK                            x       y       z     vdW  Elec       q    Type
REMARK                         _______ _______ _______ _____ _____    ______ ____
ROOT
ATOM      1  C   UNL     1       9.108  -1.421  23.613  0.00  0.00    +0.234 C 
ATOM      2  N   UNL     1       7.953  -1.751  24.338  0.00  0.00    -0.280 N 
ATOM      3  C   UNL     1       6.807  -2.181  23.516  0.00  0.00    +0.107 C 
ATOM      4  C   UNL     1       5.565  -2.023  24.412  0.00  0.00    +0.030 C 
ATOM      5  C   UNL     1       6.095  -1.570  25.763  0.00  0.00    +0.036 C 
ATOM      6  C   UNL     1       7.424  -0.908  25.432  0.00  0.00    +0.185 C 
ATOM      7  O   UNL     1       9.444  -2.041  22.599  0.00  0.00    -0.274 OA
ENDROOT
BRANCH   3   8
ATOM      8  C   UNL     1       6.848  -3.527  22.828  0.00  0.00    -0.027 A 
ATOM      9  C   UNL     1       7.527  -4.640  23.332  0.00  0.00    +0.005 A 
ATOM     10  C   UNL     1       7.503  -5.857  22.641  0.00  0.00    +0.000 A 
ATOM     11  C   UNL     1       6.792  -5.980  21.445  0.00  0.00    +0.000 A 
ATOM     12  C   UNL     1       6.099  -4.889  20.939  0.00  0.00    +0.000 A 
ATOM     13  C   UNL     1       6.124  -3.674  21.626  0.00  0.00    +0.005 A 
ENDBRANCH   3   8
BRANCH   6  14
ATOM     14  C   UNL     1       8.256  -0.810  26.712  0.00  0.00    +0.325 C 
ATOM     15  O   UNL     1       8.984  -1.698  27.124  0.00  0.00    -0.249 OA
BRANCH  14  16
ATOM     16  O   UNL     1       8.149   0.384  27.335  0.00  0.00    -0.479 OA
ATOM     17  H   UNL     1       7.982   1.101  26.681  0.00  0.00    +0.295 HD
ENDBRANCH  14  16
ENDBRANCH   6  14
BRANCH   1  18
ATOM     18  C   UNL     1       9.953  -0.219  24.059  0.00  0.00    +0.200 C 
BRANCH  18  20
ATOM     19  C   UNL     1       9.127   2.093  23.906  0.00  0.00    +0.226 C 
ATOM     20  N   UNL     1       9.593   0.952  23.278  0.00  0.00    -0.306 N 
ATOM     21  H   UNL     1       9.411   0.809  22.294  0.00  0.00    +0.149 HD
ATOM     22  O   UNL     1       9.001   2.159  25.127  0.00  0.00    -0.275 OA
BRANCH  19  23
ATOM     23  C   UNL     1       8.831   3.298  23.019  0.00  0.00    +0.133 C 
BRANCH  23  24
ATOM     24  S   UNL     1       7.417   2.882  21.926  0.00  0.00    -0.165 S 
ATOM     25  H   UNL     1       7.303   1.601  22.304  0.00  0.00    +0.102 HD
ENDBRANCH  23  24
BRANCH  23  26
ATOM     26  C   UNL     1       8.552   4.588  23.791  0.00  0.00    +0.058 C 
BRANCH  26  27
ATOM     27  C   UNL     1       9.804   5.347  24.168  0.00  0.00    -0.046 A 
ATOM     28  C   UNL     1      11.014   5.088  23.512  0.00  0.00    +0.004 A 
ATOM     29  C   UNL     1      12.177   5.769  23.874  0.00  0.00    +0.000 A 
ATOM     30  C   UNL     1      12.142   6.721  24.890  0.00  0.00    +0.000 A 
ATOM     31  C   UNL     1      10.943   6.995  25.543  0.00  0.00    +0.000 A 
ATOM     32  C   UNL     1       9.779   6.310  25.187  0.00  0.00    +0.004 A 
ENDBRANCH  26  27
ENDBRANCH  23  26
ENDBRANCH  19  23
ENDBRANCH  18  20
ENDBRANCH   1  18
TORSDOF 9
ENDMDL
MODEL 6
REMARK VINA RESULT:      -6.9      2.894      4.168
REMARK  Name = 
REMARK  9 active torsions:
REMARK  status: ('A' for Active; 'I' for Inactive)
REMARK    1  A    between atoms: C_2  and  S_3
REMARK    2  A    between atoms: C_2  and  C_4
REMARK    3  A    between atoms: C_2  and  C_11
REMARK    4  A    between atoms: C_4  and  C_5
REMARK    5  A    between atoms: N_13  and  C_14
REMARK    6  A    between atoms: C_14  and  C_15
REMARK    7  A    between atoms: C_18  and  C_30
REMARK    8  A    between atoms: C_22  and  C_24
REMARK    9  A    between atoms: C_30  and  O_31
REMARK                            x       y       z     vdW  Elec       q    Type
REMARK                         _______ _______ _______ _____ _____    ______ ____
ROOT
ATOM      1  C   UNL     1       5.741  -1.931  25.279  0.00  0.00    +0.234 C 
ATOM      2  N   UNL     1       6.915  -2.681  25.440  0.00  0.00    -0.280 N 
ATOM      3  C   UNL     1       6.729  -4.142  25.382  0.00  0.00    +0.107 C 
ATOM      4  C   UNL     1       7.980  -4.751  26.042  0.00  0.00    +0.030 C 
ATOM      5  C   UNL     1       8.873  -3.569  26.383  0.00  0.00    +0.036 C 
ATOM      6  C   UNL     1       7.907  -2.401  26.500  0.00  0.00    +0.185 C 
ATOM      7  O   UNL     1       4.845  -2.275  24.501  0.00  0.00    -0.274 OA
ENDROOT
BRANCH   3   8
ATOM      8  C   UNL     1       6.404  -4.799  24.059  0.00  0.00    -0.027 A 
ATOM      9  C   UNL     1       5.188  -5.427  23.778  0.00  0.00    +0.005 A 
ATOM     10  C   UNL     1       4.960  -6.000  22.521  0.00  0.00    +0.000 A 
ATOM     11  C   UNL     1       5.939  -5.940  21.527  0.00  0.00    +0.000 A 
ATOM     12  C   UNL     1       7.147  -5.306  21.783  0.00  0.00    +0.000 A 
ATOM     13  C   UNL     1       7.376  -4.737  23.037  0.00  0.00    +0.005 A 
ENDBRANCH   3   8
BRANCH   6  14
ATOM     14  C   UNL     1       8.699  -1.096  26.398  0.00  0.00    +0.325 C 
ATOM     15  O   UNL     1       9.238  -0.702  25.377  0.00  0.00    -0.249 OA
BRANCH  14  16
ATOM     16  O   UNL     1       8.712  -0.381  27.544  0.00  0.00    -0.479 OA
ATOM     17  H   UNL     1       7.966   0.263  27.557  0.00  0.00    +0.295 HD
ENDBRANCH  14  16
ENDBRANCH   6  14
BRANCH   1  18
ATOM     18  C   UNL     1       5.534  -0.671  26.133  0.00  0.00    +0.200 C 
BRANCH  18  20
ATOM     19  C   UNL     1       6.023   1.669  25.558  0.00  0.00    +0.226 C 
ATOM     20  N   UNL     1       5.368   0.485  25.271  0.00  0.00    -0.306 N 
ATOM     21  H   UNL     1       4.562   0.491  24.660  0.00  0.00    +0.149 HD
ATOM     22  O   UNL     1       6.756   1.786  26.537  0.00  0.00    -0.275 OA
BRANCH  19  23
ATOM     23  C   UNL     1       5.845   2.815  24.567  0.00  0.00    +0.133 C 
BRANCH  23  24
ATOM     24  S   UNL     1       4.574   3.962  25.226  0.00  0.00    -0.165 S 
ATOM     25  H   UNL     1       4.240   4.512  24.050  0.00  0.00    +0.102 HD
ENDBRANCH  23  24
BRANCH  23  26
ATOM     26  C   UNL     1       7.137   3.570  24.247  0.00  0.00    +0.058 C 
BRANCH  26  27
ATOM     27  C   UNL     1       8.127   2.756  23.446  0.00  0.00    -0.046 A 
ATOM     28  C   UNL     1       9.438   2.581  23.908  0.00  0.00    +0.004 A 
ATOM     29  C   UNL     1      10.362   1.852  23.159  0.00  0.00    +0.000 A 
ATOM     30  C   UNL     1       9.985   1.284  21.944  0.00  0.00    +0.000 A 
ATOM     31  C   UNL     1       8.683   1.443  21.479  0.00  0.00    +0.000 A 
ATOM     32  C   UNL     1       7.758   2.178  22.223  0.00  0.00    +0.004 A 
ENDBRANCH  26  27
ENDBRANCH  23  26
ENDBRANCH  19  23
ENDBRANCH  18  20
ENDBRANCH   1  18
TORSDOF 9
ENDMDL
MODEL 7
REMARK VINA RESULT:      -6.9      1.673      2.106
REMARK  Name = 
REMARK  9 active torsions:
REMARK  status: ('A' for Active; 'I' for Inactive)
REMARK    1  A    between atoms: C_2  and  S_3
REMARK    2  A    between atoms: C_2  and  C_4
REMARK    3  A    between atoms: C_2  and  C_11
REMARK    4  A    between atoms: C_4  and  C_5
REMARK    5  A    between atoms: N_13  and  C_14
REMARK    6  A    between atoms: C_14  and  C_15
REMARK    7  A    between atoms: C_18  and  C_30
REMARK    8  A    between atoms: C_22  and  C_24
REMARK    9  A    between atoms: C_30  and  O_31
REMARK                            x       y       z     vdW  Elec       q    Type
REMARK                         _______ _______ _______ _____ _____    ______ ____
ROOT
ATOM      1  C   UNL     1       6.749  -4.265  23.270  0.00  0.00    +0.234 C 
ATOM      2  N   UNL     1       6.883  -4.664  24.608  0.00  0.00    -0.280 N 
ATOM      3  C   UNL     1       5.667  -4.508  25.426  0.00  0.00    +0.107 C 
ATOM      4  C   UNL     1       6.141  -4.529  26.891  0.00  0.00    +0.030 C 
ATOM      5  C   UNL     1       7.639  -4.779  26.828  0.00  0.00    +0.036 C 
ATOM      6  C   UNL     1       8.037  -4.279  25.448  0.00  0.00    +0.185 C 
ATOM      7  O   UNL     1       5.708  -4.452  22.632  0.00  0.00    -0.274 OA
ENDROOT
BRANCH   3   8
ATOM      8  C   UNL     1       4.490  -5.428  25.193  0.00  0.00    -0.027 A 
ATOM      9  C   UNL     1       4.587  -6.822  25.149  0.00  0.00    +0.005 A 
ATOM     10  C   UNL     1       3.445  -7.605  24.943  0.00  0.00    +0.000 A 
ATOM     11  C   UNL     1       2.192  -7.006  24.792  0.00  0.00    +0.000 A 
ATOM     12  C   UNL     1       2.075  -5.624  24.851  0.00  0.00    +0.000 A 
ATOM     13  C   UNL     1       3.214  -4.842  25.053  0.00  0.00    +0.005 A 
ENDBRANCH   3   8
BRANCH   6  14
ATOM     14  C   UNL     1       9.402  -4.868  25.087  0.00  0.00    +0.325 C 
ATOM     15  O   UNL     1      10.271  -4.260  24.484  0.00  0.00    -0.249 OA
BRANCH  14  16
ATOM     16  O   UNL     1       9.583  -6.128  25.540  0.00  0.00    -0.479 OA
ATOM     17  H   UNL     1       9.578  -6.144  26.525  0.00  0.00    +0.295 HD
ENDBRANCH  14  16
ENDBRANCH   6  14
BRANCH   1  18
ATOM     18  C   UNL     1       7.910  -3.523  22.590  0.00  0.00    +0.200 C 
BRANCH  18  20
ATOM     19  C   UNL     1       9.100  -1.380  22.796  0.00  0.00    +0.226 C 
ATOM     20  N   UNL     1       8.033  -2.187  23.148  0.00  0.00    -0.306 N 
ATOM     21  H   UNL     1       7.510  -1.991  23.990  0.00  0.00    +0.149 HD
ATOM     22  O   UNL     1       9.970  -1.756  22.014  0.00  0.00    -0.275 OA
BRANCH  19  23
ATOM     23  C   UNL     1       9.120   0.030  23.377  0.00  0.00    +0.133 C 
BRANCH  23  24
ATOM     24  S   UNL     1      10.117   0.011  24.917  0.00  0.00    -0.165 S 
ATOM     25  H   UNL     1       9.119   0.341  25.750  0.00  0.00    +0.102 HD
ENDBRANCH  23  24
BRANCH  23  26
ATOM     26  C   UNL     1       9.642   1.096  22.412  0.00  0.00    +0.058 C 
BRANCH  26  27
ATOM     27  C   UNL     1       9.038   2.462  22.639  0.00  0.00    -0.046 A 
ATOM     28  C   UNL     1       9.670   3.386  23.481  0.00  0.00    +0.004 A 
ATOM     29  C   UNL     1       9.101   4.639  23.712  0.00  0.00    +0.000 A 
ATOM     30  C   UNL     1       7.898   4.985  23.099  0.00  0.00    +0.000 A 
ATOM     31  C   UNL     1       7.266   4.079  22.253  0.00  0.00    +0.000 A 
ATOM     32  C   UNL     1       7.829   2.822  22.025  0.00  0.00    +0.004 A 
ENDBRANCH  26  27
ENDBRANCH  23  26
ENDBRANCH  19  23
ENDBRANCH  18  20
ENDBRANCH   1  18
TORSDOF 9
ENDMDL
MODEL 8
REMARK VINA RESULT:      -6.8      1.910      2.867
REMARK  Name = 
REMARK  9 active torsions:
REMARK  status: ('A' for Active; 'I' for Inactive)
REMARK    1  A    between atoms: C_2  and  S_3
REMARK    2  A    between atoms: C_2  and  C_4
REMARK    3  A    between atoms: C_2  and  C_11
REMARK    4  A    between atoms: C_4  and  C_5
REMARK    5  A    between atoms: N_13  and  C_14
REMARK    6  A    between atoms: C_14  and  C_15
REMARK    7  A    between atoms: C_18  and  C_30
REMARK    8  A    between atoms: C_22  and  C_24
REMARK    9  A    between atoms: C_30  and  O_31
REMARK                            x       y       z     vdW  Elec       q    Type
REMARK                         _______ _______ _______ _____ _____    ______ ____
ROOT
ATOM      1  C   UNL     1       7.314  -2.962  24.096  0.00  0.00    +0.234 C 
ATOM      2  N   UNL     1       7.145  -3.928  25.100  0.00  0.00    -0.280 N 
ATOM      3  C   UNL     1       6.034  -3.665  26.031  0.00  0.00    +0.107 C 
ATOM      4  C   UNL     1       6.318  -4.525  27.277  0.00  0.00    +0.030 C 
ATOM      5  C   UNL     1       7.574  -5.314  26.945  0.00  0.00    +0.036 C 
ATOM      6  C   UNL     1       8.271  -4.469  25.890  0.00  0.00    +0.185 C 
ATOM      7  O   UNL     1       6.354  -2.399  23.560  0.00  0.00    -0.274 OA
ENDROOT
BRANCH   3   8
ATOM      8  C   UNL     1       4.607  -3.810  25.550  0.00  0.00    -0.027 A 
ATOM      9  C   UNL     1       4.190  -4.776  24.631  0.00  0.00    +0.005 A 
ATOM     10  C   UNL     1       2.845  -4.854  24.247  0.00  0.00    +0.000 A 
ATOM     11  C   UNL     1       1.902  -3.976  24.785  0.00  0.00    +0.000 A 
ATOM     12  C   UNL     1       2.298  -3.020  25.712  0.00  0.00    +0.000 A 
ATOM     13  C   UNL     1       3.638  -2.941  26.093  0.00  0.00    +0.005 A 
ENDBRANCH   3   8
BRANCH   6  14
ATOM     14  C   UNL     1       9.293  -5.340  25.159  0.00  0.00    +0.325 C 
ATOM     15  O   UNL     1       9.080  -5.896  24.094  0.00  0.00    -0.249 OA
BRANCH  14  16
ATOM     16  O   UNL     1      10.491  -5.405  25.780  0.00  0.00    -0.479 OA
ATOM     17  H   UNL     1      11.202  -5.627  25.136  0.00  0.00    +0.295 HD
ENDBRANCH  14  16
ENDBRANCH   6  14
BRANCH   1  18
ATOM     18  C   UNL     1       8.736  -2.548  23.687  0.00  0.00    +0.200 C 
BRANCH  18  20
ATOM     19  C   UNL     1       9.594  -0.244  23.666  0.00  0.00    +0.226 C 
ATOM     20  N   UNL     1       8.722  -1.193  23.165  0.00  0.00    -0.306 N 
ATOM     21  H   UNL     1       7.892  -0.902  22.667  0.00  0.00    +0.149 HD
ATOM     22  O   UNL     1      10.399  -0.504  24.557  0.00  0.00    -0.275 OA
BRANCH  19  23
ATOM     23  C   UNL     1       9.558   1.137  23.019  0.00  0.00    +0.133 C 
BRANCH  23  24
ATOM     24  S   UNL     1       8.515   1.047  21.513  0.00  0.00    -0.165 S 
ATOM     25  H   UNL     1       7.818   2.169  21.741  0.00  0.00    +0.102 HD
ENDBRANCH  23  24
BRANCH  23  26
ATOM     26  C   UNL     1       9.067   2.249  23.948  0.00  0.00    +0.058 C 
BRANCH  26  27
ATOM     27  C   UNL     1       9.878   3.520  23.847  0.00  0.00    -0.046 A 
ATOM     28  C   UNL     1      11.209   3.479  23.411  0.00  0.00    +0.004 A 
ATOM     29  C   UNL     1      11.968   4.647  23.341  0.00  0.00    +0.000 A 
ATOM     30  C   UNL     1      11.406   5.870  23.700  0.00  0.00    +0.000 A 
ATOM     31  C   UNL     1      10.081   5.925  24.126  0.00  0.00    +0.000 A 
ATOM     32  C   UNL     1       9.321   4.757  24.203  0.00  0.00    +0.004 A 
ENDBRANCH  26  27
ENDBRANCH  23  26
ENDBRANCH  19  23
ENDBRANCH  18  20
ENDBRANCH   1  18
TORSDOF 9
ENDMDL
MODEL 9
REMARK VINA RESULT:      -6.8      2.674      4.304
REMARK  Name = 
REMARK  9 active torsions:
REMARK  status: ('A' for Active; 'I' for Inactive)
REMARK    1  A    between atoms: C_2  and  S_3
REMARK    2  A    between atoms: C_2  and  C_4
REMARK    3  A    between atoms: C_2  and  C_11
REMARK    4  A    between atoms: C_4  and  C_5
REMARK    5  A    between atoms: N_13  and  C_14
REMARK    6  A    between atoms: C_14  and  C_15
REMARK    7  A    between atoms: C_18  and  C_30
REMARK    8  A    between atoms: C_22  and  C_24
REMARK    9  A    between atoms: C_30  and  O_31
REMARK                            x       y       z     vdW  Elec       q    Type
REMARK                         _______ _______ _______ _____ _____    ______ ____
ROOT
ATOM      1  C   UNL     1       7.980  -1.561  26.058  0.00  0.00    +0.234 C 
ATOM      2  N   UNL     1       7.854  -2.789  25.390  0.00  0.00    -0.280 N 
ATOM      3  C   UNL     1       7.342  -3.895  26.219  0.00  0.00    +0.107 C 
ATOM      4  C   UNL     1       7.731  -5.188  25.479  0.00  0.00    +0.030 C 
ATOM      5  C   UNL     1       8.398  -4.732  24.191  0.00  0.00    +0.036 C 
ATOM      6  C   UNL     1       8.912  -3.339  24.517  0.00  0.00    +0.185 C 
ATOM      7  O   UNL     1       7.165  -1.192  26.910  0.00  0.00    -0.274 OA
ENDROOT
BRANCH   3   8
ATOM      8  C   UNL     1       5.891  -3.896  26.646  0.00  0.00    -0.027 A 
ATOM      9  C   UNL     1       4.827  -3.599  25.791  0.00  0.00    +0.005 A 
ATOM     10  C   UNL     1       3.508  -3.637  26.262  0.00  0.00    +0.000 A 
ATOM     11  C   UNL     1       3.239  -3.983  27.588  0.00  0.00    +0.000 A 
ATOM     12  C   UNL     1       4.284  -4.297  28.446  0.00  0.00    +0.000 A 
ATOM     13  C   UNL     1       5.598  -4.257  27.979  0.00  0.00    +0.005 A 
ENDBRANCH   3   8
BRANCH   6  14
ATOM     14  C   UNL     1       9.201  -2.603  23.208  0.00  0.00    +0.325 C 
ATOM     15  O   UNL     1       8.338  -2.182  22.456  0.00  0.00    -0.249 OA
BRANCH  14  16
ATOM     16  O   UNL     1      10.518  -2.414  22.973  0.00  0.00    -0.479 OA
ATOM     17  H   UNL     1      10.878  -1.717  23.569  0.00  0.00    +0.295 HD
ENDBRANCH  14  16
ENDBRANCH   6  14
BRANCH   1  18
ATOM     18  C   UNL     1       9.196  -0.670  25.764  0.00  0.00    +0.200 C 
BRANCH  18  20
ATOM     19  C   UNL     1       9.681   0.941  23.970  0.00  0.00    +0.226 C 
ATOM     20  N   UNL     1       8.800   0.434  24.908  0.00  0.00    -0.306 N 
ATOM     21  H   UNL     1       8.013   0.992  25.213  0.00  0.00    +0.149 HD
ATOM     22  O   UNL     1      10.813   0.485  23.828  0.00  0.00    -0.275 OA
BRANCH  19  23
ATOM     23  C   UNL     1       9.165   2.058  23.070  0.00  0.00    +0.133 C 
BRANCH  23  24
ATOM     24  S   UNL     1       7.669   1.456  22.194  0.00  0.00    -0.165 S 
ATOM     25  H   UNL     1       7.747   2.302  21.158  0.00  0.00    +0.102 HD
ENDBRANCH  23  24
BRANCH  23  26
ATOM     26  C   UNL     1       8.867   3.366  23.805  0.00  0.00    +0.058 C 
BRANCH  26  27
ATOM     27  C   UNL     1      10.043   4.313  23.850  0.00  0.00    -0.046 A 
ATOM     28  C   UNL     1      11.275   3.941  23.296  0.00  0.00    +0.004 A 
ATOM     29  C   UNL     1      12.370   4.803  23.358  0.00  0.00    +0.000 A 
ATOM     30  C   UNL     1      12.245   6.049  23.969  0.00  0.00    +0.000 A 
ATOM     31  C   UNL     1      11.024   6.435  24.514  0.00  0.00    +0.000 A 
ATOM     32  C   UNL     1       9.928   5.571  24.460  0.00  0.00    +0.004 A 
ENDBRANCH  26  27
ENDBRANCH  23  26
ENDBRANCH  19  23
ENDBRANCH  18  20
ENDBRANCH   1  18
TORSDOF 9
ENDMDL
