MODEL 1
REMARK VINA RESULT:      -3.6      0.000      0.000
REMARK  Name = 
REMARK  6 active torsions:
REMARK  status: ('A' for Active; 'I' for Inactive)
REMARK    1  A    between atoms: N_1  and  C_2
REMARK    2  A    between atoms: C_2  and  C_4
REMARK    3  A    between atoms: C_2  and  C_7
REMARK    4  A    between atoms: C_4  and  S_5
REMARK    5  A    between atoms: S_5  and  O_6
REMARK    6  A    between atoms: C_7  and  O_8
REMARK                            x       y       z     vdW  Elec       q    Type
REMARK                         _______ _______ _______ _____ _____    ______ ____
ROOT
ATOM      1  C   UNK     1      12.015   5.465  22.908  0.00  0.00    +0.173 C 
ENDROOT
BRANCH   1   2
ATOM      2  N   UNK     1      11.633   4.012  22.944  0.00  0.00    -0.318 NA
ATOM      3  H   UNK     1      10.789   3.897  22.370  0.00  0.00    +0.119 HD
ATOM      4  H   UNK     1      12.343   3.513  22.394  0.00  0.00    +0.119 HD
ENDBRANCH   1   2
BRANCH   1   5
ATOM      5  C   UNK     1      13.491   5.562  22.498  0.00  0.00    +0.323 C 
ATOM      6  O   UNK     1      13.911   6.155  21.518  0.00  0.00    -0.249 OA
BRANCH   5   7
ATOM      7  O   UNK     1      14.287   4.878  23.359  0.00  0.00    -0.480 OA
ATOM      8  H   UNK     1      15.174   4.823  22.918  0.00  0.00    +0.295 HD
ENDBRANCH   5   7
ENDBRANCH   1   5
BRANCH   1   9
ATOM      9  C   UNK     1      11.816   6.187  24.248  0.00  0.00    +0.129 C 
BRANCH   9  10
ATOM     10  S   UNK     1      10.044   6.521  24.557  0.00  0.00    -0.009 S 
BRANCH  10  11
ATOM     11  O   UNK     1       9.451   6.243  23.031  0.00  0.00    -0.329 OA
ATOM     12  H   UNK     1       8.477   6.407  22.986  0.00  0.00    +0.227 HD
ENDBRANCH  10  11
ENDBRANCH   9  10
ENDBRANCH   1   9
TORSDOF 6
ENDMDL
MODEL 2
REMARK VINA RESULT:      -3.6      6.177      6.559
REMARK  Name = 
REMARK  6 active torsions:
REMARK  status: ('A' for Active; 'I' for Inactive)
REMARK    1  A    between atoms: N_1  and  C_2
REMARK    2  A    between atoms: C_2  and  C_4
REMARK    3  A    between atoms: C_2  and  C_7
REMARK    4  A    between atoms: C_4  and  S_5
REMARK    5  A    between atoms: S_5  and  O_6
REMARK    6  A    between atoms: C_7  and  O_8
REMARK                            x       y       z     vdW  Elec       q    Type
REMARK                         _______ _______ _______ _____ _____    ______ ____
ROOT
ATOM      1  C   UNK     1       9.512  -0.282  23.505  0.00  0.00    +0.173 C 
ENDROOT
BRANCH   1   2
ATOM      2  N   UNK     1      10.661   0.566  23.975  0.00  0.00    -0.318 NA
ATOM      3  H   UNK     1      11.306  -0.043  24.494  0.00  0.00    +0.119 HD
ATOM      4  H   UNK     1      11.208   0.801  23.137  0.00  0.00    +0.119 HD
ENDBRANCH   1   2
BRANCH   1   5
ATOM      5  C   UNK     1      10.058  -1.323  22.518  0.00  0.00    +0.323 C 
ATOM      6  O   UNK     1      10.581  -2.379  22.829  0.00  0.00    -0.249 OA
BRANCH   5   7
ATOM      7  O   UNK     1       9.905  -0.911  21.234  0.00  0.00    -0.480 OA
ATOM      8  H   UNK     1       9.811  -1.739  20.696  0.00  0.00    +0.295 HD
ENDBRANCH   5   7
ENDBRANCH   1   5
BRANCH   1   9
ATOM      9  C   UNK     1       8.393   0.520  22.826  0.00  0.00    +0.129 C 
BRANCH   9  10
ATOM     10  S   UNK     1       8.863   2.278  22.645  0.00  0.00    -0.009 S 
BRANCH  10  11
ATOM     11  O   UNK     1      10.061   2.118  21.506  0.00  0.00    -0.329 OA
ATOM     12  H   UNK     1      10.108   2.911  20.917  0.00  0.00    +0.227 HD
ENDBRANCH  10  11
ENDBRANCH   9  10
ENDBRANCH   1   9
TORSDOF 6
ENDMDL
MODEL 3
REMARK VINA RESULT:      -3.6     11.093     11.639
REMARK  Name = 
REMARK  6 active torsions:
REMARK  status: ('A' for Active; 'I' for Inactive)
REMARK    1  A    between atoms: N_1  and  C_2
REMARK    2  A    between atoms: C_2  and  C_4
REMARK    3  A    between atoms: C_2  and  C_7
REMARK    4  A    between atoms: C_4  and  S_5
REMARK    5  A    between atoms: S_5  and  O_6
REMARK    6  A    between atoms: C_7  and  O_8
REMARK                            x       y       z     vdW  Elec       q    Type
REMARK                         _______ _______ _______ _____ _____    ______ ____
ROOT
ATOM      1  C   UNK     1       8.652  -4.800  25.357  0.00  0.00    +0.173 C 
ENDROOT
BRANCH   1   2
ATOM      2  N   UNK     1       9.819  -5.742  25.253  0.00  0.00    -0.318 NA
ATOM      3  H   UNK     1      10.628  -5.287  25.694  0.00  0.00    +0.119 HD
ATOM      4  H   UNK     1       9.624  -6.517  25.898  0.00  0.00    +0.119 HD
ENDBRANCH   1   2
BRANCH   1   5
ATOM      5  C   UNK     1       7.574  -5.469  26.222  0.00  0.00    +0.323 C 
ATOM      6  O   UNK     1       6.423  -5.674  25.876  0.00  0.00    -0.249 OA
BRANCH   5   7
ATOM      7  O   UNK     1       8.058  -5.794  27.448  0.00  0.00    -0.480 OA
ATOM      8  H   UNK     1       7.700  -5.107  28.068  0.00  0.00    +0.295 HD
ENDBRANCH   5   7
ENDBRANCH   1   5
BRANCH   1   9
ATOM      9  C   UNK     1       8.046  -4.419  24.000  0.00  0.00    +0.129 C 
BRANCH   9  10
ATOM     10  S   UNK     1       8.650  -2.784  23.446  0.00  0.00    -0.009 S 
BRANCH  10  11
ATOM     11  O   UNK     1      10.259  -2.954  23.821  0.00  0.00    -0.329 OA
ATOM     12  H   UNK     1      10.390  -3.119  24.787  0.00  0.00    +0.227 HD
ENDBRANCH  10  11
ENDBRANCH   9  10
ENDBRANCH   1   9
TORSDOF 6
ENDMDL
MODEL 4
REMARK VINA RESULT:      -3.5      6.621      7.005
REMARK  Name = 
REMARK  6 active torsions:
REMARK  status: ('A' for Active; 'I' for Inactive)
REMARK    1  A    between atoms: N_1  and  C_2
REMARK    2  A    between atoms: C_2  and  C_4
REMARK    3  A    between atoms: C_2  and  C_7
REMARK    4  A    between atoms: C_4  and  S_5
REMARK    5  A    between atoms: S_5  and  O_6
REMARK    6  A    between atoms: C_7  and  O_8
REMARK                            x       y       z     vdW  Elec       q    Type
REMARK                         _______ _______ _______ _____ _____    ______ ____
ROOT
ATOM      1  C   UNK     1       9.215  -0.271  21.694  0.00  0.00    +0.173 C 
ENDROOT
BRANCH   1   2
ATOM      2  N   UNK     1      10.195  -1.391  21.483  0.00  0.00    -0.318 NA
ATOM      3  H   UNK     1       9.984  -2.124  22.172  0.00  0.00    +0.119 HD
ATOM      4  H   UNK     1       9.934  -1.841  20.597  0.00  0.00    +0.119 HD
ENDBRANCH   1   2
BRANCH   1   5
ATOM      5  C   UNK     1       9.977   0.927  22.276  0.00  0.00    +0.323 C 
ATOM      6  O   UNK     1      10.558   0.938  23.348  0.00  0.00    -0.249 OA
BRANCH   5   7
ATOM      7  O   UNK     1       9.910   2.002  21.449  0.00  0.00    -0.480 OA
ATOM      8  H   UNK     1       9.077   2.480  21.699  0.00  0.00    +0.295 HD
ENDBRANCH   5   7
ENDBRANCH   1   5
BRANCH   1   9
ATOM      9  C   UNK     1       8.057  -0.636  22.633  0.00  0.00    +0.129 C 
BRANCH   9  10
ATOM     10  S   UNK     1       8.371  -2.229  23.475  0.00  0.00    -0.009 S 
BRANCH  10  11
ATOM     11  O   UNK     1       9.663  -1.780  24.418  0.00  0.00    -0.329 OA
ATOM     12  H   UNK     1       9.434  -1.018  25.006  0.00  0.00    +0.227 HD
ENDBRANCH  10  11
ENDBRANCH   9  10
ENDBRANCH   1   9
TORSDOF 6
ENDMDL
MODEL 5
REMARK VINA RESULT:      -3.5      6.916      7.378
REMARK  Name = 
REMARK  6 active torsions:
REMARK  status: ('A' for Active; 'I' for Inactive)
REMARK    1  A    between atoms: N_1  and  C_2
REMARK    2  A    between atoms: C_2  and  C_4
REMARK    3  A    between atoms: C_2  and  C_7
REMARK    4  A    between atoms: C_4  and  S_5
REMARK    5  A    between atoms: S_5  and  O_6
REMARK    6  A    between atoms: C_7  and  O_8
REMARK                            x       y       z     vdW  Elec       q    Type
REMARK                         _______ _______ _______ _____ _____    ______ ____
ROOT
ATOM      1  C   UNK     1      10.250  -1.186  22.512  0.00  0.00    +0.173 C 
ENDROOT
BRANCH   1   2
ATOM      2  N   UNK     1       9.625  -0.978  21.160  0.00  0.00    -0.318 NA
ATOM      3  H   UNK     1       9.464   0.030  21.043  0.00  0.00    +0.119 HD
ATOM      4  H   UNK     1      10.362  -1.165  20.469  0.00  0.00    +0.119 HD
ENDBRANCH   1   2
BRANCH   1   5
ATOM      5  C   UNK     1       9.407  -2.218  23.274  0.00  0.00    +0.323 C 
ATOM      6  O   UNK     1       8.188  -2.234  23.319  0.00  0.00    -0.249 OA
BRANCH   5   7
ATOM      7  O   UNK     1      10.194  -3.115  23.921  0.00  0.00    -0.480 OA
ATOM      8  H   UNK     1      10.975  -3.263  23.329  0.00  0.00    +0.295 HD
ENDBRANCH   5   7
ENDBRANCH   1   5
BRANCH   1   9
ATOM      9  C   UNK     1      10.352   0.098  23.346  0.00  0.00    +0.129 C 
BRANCH   9  10
ATOM     10  S   UNK     1       9.171   1.362  22.753  0.00  0.00    -0.009 S 
BRANCH  10  11
ATOM     11  O   UNK     1      10.098   2.054  21.561  0.00  0.00    -0.329 OA
ATOM     12  H   UNK     1      11.058   1.849  21.685  0.00  0.00    +0.227 HD
ENDBRANCH  10  11
ENDBRANCH   9  10
ENDBRANCH   1   9
TORSDOF 6
ENDMDL
MODEL 6
REMARK VINA RESULT:      -3.5      5.592      5.987
REMARK  Name = 
REMARK  6 active torsions:
REMARK  status: ('A' for Active; 'I' for Inactive)
REMARK    1  A    between atoms: N_1  and  C_2
REMARK    2  A    between atoms: C_2  and  C_4
REMARK    3  A    between atoms: C_2  and  C_7
REMARK    4  A    between atoms: C_4  and  S_5
REMARK    5  A    between atoms: S_5  and  O_6
REMARK    6  A    between atoms: C_7  and  O_8
REMARK                            x       y       z     vdW  Elec       q    Type
REMARK                         _______ _______ _______ _____ _____    ______ ____
ROOT
ATOM      1  C   UNK     1       9.541   1.073  23.598  0.00  0.00    +0.173 C 
ENDROOT
BRANCH   1   2
ATOM      2  N   UNK     1       8.209   0.785  22.965  0.00  0.00    -0.318 NA
ATOM      3  H   UNK     1       7.481   1.174  23.578  0.00  0.00    +0.119 HD
ATOM      4  H   UNK     1       8.145   1.390  22.137  0.00  0.00    +0.119 HD
ENDBRANCH   1   2
BRANCH   1   5
ATOM      5  C   UNK     1      10.198   2.225  22.826  0.00  0.00    +0.323 C 
ATOM      6  O   UNK     1      10.826   3.142  23.330  0.00  0.00    -0.249 OA
BRANCH   5   7
ATOM      7  O   UNK     1       9.977   2.113  21.491  0.00  0.00    -0.480 OA
ATOM      8  H   UNK     1       9.104   1.650  21.403  0.00  0.00    +0.295 HD
ENDBRANCH   5   7
ENDBRANCH   1   5
BRANCH   1   9
ATOM      9  C   UNK     1      10.490  -0.133  23.609  0.00  0.00    +0.129 C 
BRANCH   9  10
ATOM     10  S   UNK     1       9.784  -1.533  22.667  0.00  0.00    -0.009 S 
BRANCH  10  11
ATOM     11  O   UNK     1       9.834  -0.878  21.141  0.00  0.00    -0.329 OA
ATOM     12  H   UNK     1      10.744  -0.924  20.757  0.00  0.00    +0.227 HD
ENDBRANCH  10  11
ENDBRANCH   9  10
ENDBRANCH   1   9
TORSDOF 6
ENDMDL
MODEL 7
REMARK VINA RESULT:      -3.4      5.493      6.004
REMARK  Name = 
REMARK  6 active torsions:
REMARK  status: ('A' for Active; 'I' for Inactive)
REMARK    1  A    between atoms: N_1  and  C_2
REMARK    2  A    between atoms: C_2  and  C_4
REMARK    3  A    between atoms: C_2  and  C_7
REMARK    4  A    between atoms: C_4  and  S_5
REMARK    5  A    between atoms: S_5  and  O_6
REMARK    6  A    between atoms: C_7  and  O_8
REMARK                            x       y       z     vdW  Elec       q    Type
REMARK                         _______ _______ _______ _____ _____    ______ ____
ROOT
ATOM      1  C   UNK     1      10.018   0.822  22.040  0.00  0.00    +0.173 C 
ENDROOT
BRANCH   1   2
ATOM      2  N   UNK     1       9.196   1.822  21.275  0.00  0.00    -0.318 NA
ATOM      3  H   UNK     1       8.453   1.307  20.786  0.00  0.00    +0.119 HD
ATOM      4  H   UNK     1       8.669   2.358  21.974  0.00  0.00    +0.119 HD
ENDBRANCH   1   2
BRANCH   1   5
ATOM      5  C   UNK     1       9.317  -0.541  21.949  0.00  0.00    +0.323 C 
ATOM      6  O   UNK     1       8.194  -0.782  22.357  0.00  0.00    -0.249 OA
BRANCH   5   7
ATOM      7  O   UNK     1      10.120  -1.469  21.368  0.00  0.00    -0.480 OA
ATOM      8  H   UNK     1      11.033  -1.082  21.384  0.00  0.00    +0.295 HD
ENDBRANCH   5   7
ENDBRANCH   1   5
BRANCH   1   9
ATOM      9  C   UNK     1      10.216   1.190  23.517  0.00  0.00    +0.129 C 
BRANCH   9  10
ATOM     10  S   UNK     1       9.773   2.937  23.823  0.00  0.00    -0.009 S 
BRANCH  10  11
ATOM     11  O   UNK     1      10.970   3.675  22.939  0.00  0.00    -0.329 OA
ATOM     12  H   UNK     1      11.868   3.377  23.226  0.00  0.00    +0.227 HD
ENDBRANCH  10  11
ENDBRANCH   9  10
ENDBRANCH   1   9
TORSDOF 6
ENDMDL
MODEL 8
REMARK VINA RESULT:      -3.4      3.990      4.362
REMARK  Name = 
REMARK  6 active torsions:
REMARK  status: ('A' for Active; 'I' for Inactive)
REMARK    1  A    between atoms: N_1  and  C_2
REMARK    2  A    between atoms: C_2  and  C_4
REMARK    3  A    between atoms: C_2  and  C_7
REMARK    4  A    between atoms: C_4  and  S_5
REMARK    5  A    between atoms: S_5  and  O_6
REMARK    6  A    between atoms: C_7  and  O_8
REMARK                            x       y       z     vdW  Elec       q    Type
REMARK                         _______ _______ _______ _____ _____    ______ ____
ROOT
ATOM      1  C   UNK     1      10.411   2.459  23.600  0.00  0.00    +0.173 C 
ENDROOT
BRANCH   1   2
ATOM      2  N   UNK     1      11.121   3.648  23.017  0.00  0.00    -0.318 NA
ATOM      3  H   UNK     1      11.570   4.154  23.791  0.00  0.00    +0.119 HD
ATOM      4  H   UNK     1      11.928   3.278  22.499  0.00  0.00    +0.119 HD
ENDBRANCH   1   2
BRANCH   1   5
ATOM      5  C   UNK     1      10.082   1.490  22.456  0.00  0.00    +0.323 C 
ATOM      6  O   UNK     1      10.224   0.280  22.496  0.00  0.00    -0.249 OA
BRANCH   5   7
ATOM      7  O   UNK     1       9.624   2.155  21.364  0.00  0.00    -0.480 OA
ATOM      8  H   UNK     1       9.968   1.653  20.580  0.00  0.00    +0.295 HD
ENDBRANCH   5   7
ENDBRANCH   1   5
BRANCH   1   9
ATOM      9  C   UNK     1       9.117   2.819  24.343  0.00  0.00    +0.129 C 
BRANCH   9  10
ATOM     10  S   UNK     1       8.677   4.576  24.083  0.00  0.00    -0.009 S 
BRANCH  10  11
ATOM     11  O   UNK     1       8.230   4.503  22.485  0.00  0.00    -0.329 OA
ATOM     12  H   UNK     1       7.328   4.110  22.379  0.00  0.00    +0.227 HD
ENDBRANCH  10  11
ENDBRANCH   9  10
ENDBRANCH   1   9
TORSDOF 6
ENDMDL
MODEL 9
REMARK VINA RESULT:      -3.4     11.041     11.320
REMARK  Name = 
REMARK  6 active torsions:
REMARK  status: ('A' for Active; 'I' for Inactive)
REMARK    1  A    between atoms: N_1  and  C_2
REMARK    2  A    between atoms: C_2  and  C_4
REMARK    3  A    between atoms: C_2  and  C_7
REMARK    4  A    between atoms: C_4  and  S_5
REMARK    5  A    between atoms: S_5  and  O_6
REMARK    6  A    between atoms: C_7  and  O_8
REMARK                            x       y       z     vdW  Elec       q    Type
REMARK                         _______ _______ _______ _____ _____    ______ ____
ROOT
ATOM      1  C   UNK     1       8.134  -5.298  25.597  0.00  0.00    +0.173 C 
ENDROOT
BRANCH   1   2
ATOM      2  N   UNK     1       8.141  -5.596  27.070  0.00  0.00    -0.318 NA
ATOM      3  H   UNK     1       9.076  -5.369  27.430  0.00  0.00    +0.119 HD
ATOM      4  H   UNK     1       7.555  -4.878  27.513  0.00  0.00    +0.119 HD
ENDBRANCH   1   2
BRANCH   1   5
ATOM      5  C   UNK     1       9.541  -4.833  25.197  0.00  0.00    +0.323 C 
ATOM      6  O   UNK     1       9.788  -3.902  24.450  0.00  0.00    -0.249 OA
BRANCH   5   7
ATOM      7  O   UNK     1      10.497  -5.608  25.770  0.00  0.00    -0.480 OA
ATOM      8  H   UNK     1      11.364  -5.248  25.448  0.00  0.00    +0.295 HD
ENDBRANCH   5   7
ENDBRANCH   1   5
BRANCH   1   9
ATOM      9  C   UNK     1       7.114  -4.226  25.191  0.00  0.00    +0.129 C 
BRANCH   9  10
ATOM     10  S   UNK     1       6.343  -4.629  23.582  0.00  0.00    -0.009 S 
BRANCH  10  11
ATOM     11  O   UNK     1       7.448  -3.911  22.570  0.00  0.00    -0.329 OA
ATOM     12  H   UNK     1       7.499  -2.936  22.725  0.00  0.00    +0.227 HD
ENDBRANCH  10  11
ENDBRANCH   9  10
ENDBRANCH   1   9
TORSDOF 6
ENDMDL
