MODEL 1
REMARK VINA RESULT:      -6.6      0.000      0.000
REMARK  Name = 
REMARK  3 active torsions:
REMARK  status: ('A' for Active; 'I' for Inactive)
REMARK    1  A    between atoms: C_1  and  N_2
REMARK    2  A    between atoms: N_2  and  C_3
REMARK    3  A    between atoms: C_15  and  C_17
REMARK                            x       y       z     vdW  Elec       q    Type
REMARK                         _______ _______ _______ _____ _____    ______ ____
ROOT
ATOM      1  C   UNL     1       8.761   1.307  22.872  0.00  0.00    +0.058 C 
ATOM      2  C   UNL     1       8.160  -0.035  22.366  0.00  0.00    +0.056 C 
ATOM      3  C   UNL     1       8.560  -1.192  23.212  0.00  0.00    -0.018 A 
ATOM      4  C   UNL     1       8.126  -2.539  23.145  0.00  0.00    +0.004 A 
ATOM      5  C   UNL     1       7.195  -3.218  22.331  0.00  0.00    +0.023 A 
ATOM      6  C   UNL     1       7.014  -4.597  22.492  0.00  0.00    +0.037 A 
ATOM      7  C   UNL     1       7.759  -5.285  23.461  0.00  0.00    +0.015 A 
ATOM      8  C   UNL     1       8.686  -4.629  24.283  0.00  0.00    +0.027 A 
ATOM      9  C   UNL     1       8.850  -3.253  24.100  0.00  0.00    +0.047 A 
ATOM     10  N   UNL     1       9.687  -2.356  24.736  0.00  0.00    -0.358 N 
ATOM     11  H   UNL     1      10.337  -2.600  25.471  0.00  0.00    +0.166 HD
ATOM     12  C   UNL     1       9.528  -1.114  24.187  0.00  0.00    +0.020 A 
ATOM     13  C   UNL     1      10.283   0.111  24.559  0.00  0.00    +0.055 C 
ATOM     14  C   UNL     1      10.214   1.120  23.393  0.00  0.00    +0.025 C 
ENDROOT
BRANCH   6  15
ATOM     15  C   UNL     1       6.056  -5.380  21.658  0.00  0.00    +0.242 C 
ATOM     16  O   UNL     1       5.959  -5.195  20.449  0.00  0.00    -0.270 OA
ATOM     17  N   UNL     1       5.271  -6.322  22.262  0.00  0.00    -0.325 N 
ATOM     18  H   UNL     1       4.630  -6.828  21.665  0.00  0.00    +0.145 HD
ATOM     19  H   UNL     1       5.271  -6.543  23.245  0.00  0.00    +0.145 HD
ENDBRANCH   6  15
BRANCH   1  21
ATOM     20  C   UNL     1       7.605   3.231  21.896  0.00  0.00    +0.101 C 
ATOM     21  N   UNL     1       8.757   2.341  21.816  0.00  0.00    -0.316 NA
ATOM     22  H   UNL     1       9.612   2.894  21.885  0.00  0.00    +0.122 HD
ENDBRANCH   1  21
TORSDOF 2
ENDMDL
MODEL 2
REMARK VINA RESULT:      -6.6      2.722      3.369
REMARK  Name = 
REMARK  3 active torsions:
REMARK  status: ('A' for Active; 'I' for Inactive)
REMARK    1  A    between atoms: C_1  and  N_2
REMARK    2  A    between atoms: N_2  and  C_3
REMARK    3  A    between atoms: C_15  and  C_17
REMARK                            x       y       z     vdW  Elec       q    Type
REMARK                         _______ _______ _______ _____ _____    ______ ____
ROOT
ATOM      1  C   UNL     1       9.321   1.575  21.935  0.00  0.00    +0.058 C 
ATOM      2  C   UNL     1       9.534   0.276  22.762  0.00  0.00    +0.056 C 
ATOM      3  C   UNL     1       8.250  -0.377  23.135  0.00  0.00    -0.018 A 
ATOM      4  C   UNL     1       8.036  -1.622  23.777  0.00  0.00    +0.004 A 
ATOM      5  C   UNL     1       8.900  -2.639  24.231  0.00  0.00    +0.023 A 
ATOM      6  C   UNL     1       8.366  -3.762  24.875  0.00  0.00    +0.037 A 
ATOM      7  C   UNL     1       6.979  -3.861  25.059  0.00  0.00    +0.015 A 
ATOM      8  C   UNL     1       6.101  -2.864  24.611  0.00  0.00    +0.027 A 
ATOM      9  C   UNL     1       6.661  -1.752  23.974  0.00  0.00    +0.047 A 
ATOM     10  N   UNL     1       6.062  -0.622  23.451  0.00  0.00    -0.358 N 
ATOM     11  H   UNL     1       5.067  -0.442  23.465  0.00  0.00    +0.166 HD
ATOM     12  C   UNL     1       7.022   0.220  22.962  0.00  0.00    +0.020 A 
ATOM     13  C   UNL     1       6.789   1.561  22.365  0.00  0.00    +0.055 C 
ATOM     14  C   UNL     1       8.094   2.382  22.445  0.00  0.00    +0.025 C 
ENDROOT
BRANCH   6  15
ATOM     15  C   UNL     1       9.222  -4.870  25.392  0.00  0.00    +0.242 C 
ATOM     16  O   UNL     1      10.369  -5.035  24.988  0.00  0.00    -0.270 OA
ATOM     17  N   UNL     1       8.710  -5.716  26.334  0.00  0.00    -0.325 N 
ATOM     18  H   UNL     1       9.318  -6.458  26.656  0.00  0.00    +0.145 HD
ATOM     19  H   UNL     1       7.782  -5.669  26.724  0.00  0.00    +0.145 HD
ENDBRANCH   6  15
BRANCH   1  21
ATOM     20  C   UNL     1      10.775   3.009  23.284  0.00  0.00    +0.101 C 
ATOM     21  N   UNL     1      10.516   2.445  21.964  0.00  0.00    -0.316 NA
ATOM     22  H   UNL     1      11.329   1.908  21.665  0.00  0.00    +0.122 HD
ENDBRANCH   1  21
TORSDOF 2
ENDMDL
MODEL 3
REMARK VINA RESULT:      -6.6      2.685      3.419
REMARK  Name = 
REMARK  3 active torsions:
REMARK  status: ('A' for Active; 'I' for Inactive)
REMARK    1  A    between atoms: C_1  and  N_2
REMARK    2  A    between atoms: N_2  and  C_3
REMARK    3  A    between atoms: C_15  and  C_17
REMARK                            x       y       z     vdW  Elec       q    Type
REMARK                         _______ _______ _______ _____ _____    ______ ____
ROOT
ATOM      1  C   UNL     1      10.567   0.532  23.461  0.00  0.00    +0.058 C 
ATOM      2  C   UNL     1       9.839  -0.453  24.419  0.00  0.00    +0.056 C 
ATOM      3  C   UNL     1       9.097  -1.515  23.687  0.00  0.00    -0.018 A 
ATOM      4  C   UNL     1       8.419  -2.647  24.203  0.00  0.00    +0.004 A 
ATOM      5  C   UNL     1       8.242  -3.161  25.505  0.00  0.00    +0.023 A 
ATOM      6  C   UNL     1       7.466  -4.311  25.694  0.00  0.00    +0.037 A 
ATOM      7  C   UNL     1       6.875  -4.937  24.587  0.00  0.00    +0.015 A 
ATOM      8  C   UNL     1       7.041  -4.446  23.284  0.00  0.00    +0.027 A 
ATOM      9  C   UNL     1       7.819  -3.295  23.124  0.00  0.00    +0.047 A 
ATOM     10  N   UNL     1       8.140  -2.581  21.986  0.00  0.00    -0.358 N 
ATOM     11  H   UNL     1       7.830  -2.817  21.053  0.00  0.00    +0.166 HD
ATOM     12  C   UNL     1       8.896  -1.493  22.326  0.00  0.00    +0.020 A 
ATOM     13  C   UNL     1       9.398  -0.449  21.395  0.00  0.00    +0.055 C 
ATOM     14  C   UNL     1       9.714   0.832  22.196  0.00  0.00    +0.025 C 
ENDROOT
BRANCH   6  15
ATOM     15  C   UNL     1       7.227  -4.902  27.043  0.00  0.00    +0.242 C 
ATOM     16  O   UNL     1       6.449  -4.386  27.839  0.00  0.00    -0.270 OA
ATOM     17  N   UNL     1       7.894  -6.041  27.392  0.00  0.00    -0.325 N 
ATOM     18  H   UNL     1       7.711  -6.409  28.317  0.00  0.00    +0.145 HD
ATOM     19  H   UNL     1       8.556  -6.536  26.814  0.00  0.00    +0.145 HD
ENDBRANCH   6  15
BRANCH   1  21
ATOM     20  C   UNL     1      10.595   2.974  23.314  0.00  0.00    +0.101 C 
ATOM     21  N   UNL     1      10.898   1.806  24.132  0.00  0.00    -0.316 NA
ATOM     22  H   UNL     1      10.379   1.868  25.008  0.00  0.00    +0.122 HD
ENDBRANCH   1  21
TORSDOF 2
ENDMDL
MODEL 4
REMARK VINA RESULT:      -6.3      2.143      6.022
REMARK  Name = 
REMARK  3 active torsions:
REMARK  status: ('A' for Active; 'I' for Inactive)
REMARK    1  A    between atoms: C_1  and  N_2
REMARK    2  A    between atoms: N_2  and  C_3
REMARK    3  A    between atoms: C_15  and  C_17
REMARK                            x       y       z     vdW  Elec       q    Type
REMARK                         _______ _______ _______ _____ _____    ______ ____
ROOT
ATOM      1  C   UNL     1       6.846  -5.139  23.057  0.00  0.00    +0.058 C 
ATOM      2  C   UNL     1       7.112  -3.656  22.674  0.00  0.00    +0.056 C 
ATOM      3  C   UNL     1       7.820  -2.909  23.749  0.00  0.00    -0.018 A 
ATOM      4  C   UNL     1       8.336  -1.589  23.727  0.00  0.00    +0.004 A 
ATOM      5  C   UNL     1       8.391  -0.586  22.737  0.00  0.00    +0.023 A 
ATOM      6  C   UNL     1       8.948   0.660  23.047  0.00  0.00    +0.037 A 
ATOM      7  C   UNL     1       9.444   0.895  24.338  0.00  0.00    +0.015 A 
ATOM      8  C   UNL     1       9.404  -0.089  25.336  0.00  0.00    +0.027 A 
ATOM      9  C   UNL     1       8.840  -1.324  25.000  0.00  0.00    +0.047 A 
ATOM     10  N   UNL     1       8.647  -2.459  25.763  0.00  0.00    -0.358 N 
ATOM     11  H   UNL     1       8.909  -2.548  26.736  0.00  0.00    +0.166 HD
ATOM     12  C   UNL     1       8.013  -3.412  25.015  0.00  0.00    +0.020 A 
ATOM     13  C   UNL     1       7.582  -4.753  25.487  0.00  0.00    +0.055 C 
ATOM     14  C   UNL     1       6.467  -5.281  24.558  0.00  0.00    +0.025 C 
ENDROOT
BRANCH   6  15
ATOM     15  C   UNL     1       9.028   1.770  22.053  0.00  0.00    +0.242 C 
ATOM     16  O   UNL     1       8.020   2.236  21.532  0.00  0.00    -0.270 OA
ATOM     17  N   UNL     1      10.254   2.273  21.722  0.00  0.00    -0.325 N 
ATOM     18  H   UNL     1      10.268   3.021  21.040  0.00  0.00    +0.145 HD
ATOM     19  H   UNL     1      11.138   1.956  22.088  0.00  0.00    +0.145 HD
ENDBRANCH   6  15
BRANCH   1  21
ATOM     20  C   UNL     1       6.161  -5.905  20.836  0.00  0.00    +0.101 C 
ATOM     21  N   UNL     1       5.774  -5.734  22.232  0.00  0.00    -0.316 NA
ATOM     22  H   UNL     1       5.517  -6.642  22.620  0.00  0.00    +0.122 HD
ENDBRANCH   1  21
TORSDOF 2
ENDMDL
MODEL 5
REMARK VINA RESULT:      -6.2      3.120      6.624
REMARK  Name = 
REMARK  3 active torsions:
REMARK  status: ('A' for Active; 'I' for Inactive)
REMARK    1  A    between atoms: C_1  and  N_2
REMARK    2  A    between atoms: N_2  and  C_3
REMARK    3  A    between atoms: C_15  and  C_17
REMARK                            x       y       z     vdW  Elec       q    Type
REMARK                         _______ _______ _______ _____ _____    ______ ____
ROOT
ATOM      1  C   UNL     1       7.437  -3.713  25.741  0.00  0.00    +0.058 C 
ATOM      2  C   UNL     1       8.039  -2.290  25.567  0.00  0.00    +0.056 C 
ATOM      3  C   UNL     1       8.313  -1.958  24.143  0.00  0.00    -0.018 A 
ATOM      4  C   UNL     1       8.745  -0.731  23.579  0.00  0.00    +0.004 A 
ATOM      5  C   UNL     1       9.018   0.541  24.122  0.00  0.00    +0.023 A 
ATOM      6  C   UNL     1       9.475   1.566  23.283  0.00  0.00    +0.037 A 
ATOM      7  C   UNL     1       9.655   1.313  21.916  0.00  0.00    +0.015 A 
ATOM      8  C   UNL     1       9.385   0.056  21.354  0.00  0.00    +0.027 A 
ATOM      9  C   UNL     1       8.932  -0.949  22.214  0.00  0.00    +0.047 A 
ATOM     10  N   UNL     1       8.608  -2.268  21.960  0.00  0.00    -0.358 N 
ATOM     11  H   UNL     1       8.661  -2.707  21.051  0.00  0.00    +0.166 HD
ATOM     12  C   UNL     1       8.253  -2.885  23.128  0.00  0.00    +0.020 A 
ATOM     13  C   UNL     1       7.886  -4.316  23.285  0.00  0.00    +0.055 C 
ATOM     14  C   UNL     1       8.086  -4.729  24.759  0.00  0.00    +0.025 C 
ENDROOT
BRANCH   6  15
ATOM     15  C   UNL     1       9.795   2.932  23.791  0.00  0.00    +0.242 C 
ATOM     16  O   UNL     1       9.163   3.435  24.715  0.00  0.00    -0.270 OA
ATOM     17  N   UNL     1      10.813   3.632  23.209  0.00  0.00    -0.325 N 
ATOM     18  H   UNL     1      10.996   4.557  23.576  0.00  0.00    +0.145 HD
ATOM     19  H   UNL     1      11.384   3.310  22.443  0.00  0.00    +0.145 HD
ENDBRANCH   6  15
BRANCH   1  21
ATOM     20  C   UNL     1       6.581  -5.187  27.496  0.00  0.00    +0.101 C 
ATOM     21  N   UNL     1       7.596  -4.210  27.124  0.00  0.00    -0.316 NA
ATOM     22  H   UNL     1       8.519  -4.632  27.224  0.00  0.00    +0.122 HD
ENDBRANCH   1  21
TORSDOF 2
ENDMDL
MODEL 6
REMARK VINA RESULT:      -6.1      2.293      6.053
REMARK  Name = 
REMARK  3 active torsions:
REMARK  status: ('A' for Active; 'I' for Inactive)
REMARK    1  A    between atoms: C_1  and  N_2
REMARK    2  A    between atoms: N_2  and  C_3
REMARK    3  A    between atoms: C_15  and  C_17
REMARK                            x       y       z     vdW  Elec       q    Type
REMARK                         _______ _______ _______ _____ _____    ______ ____
ROOT
ATOM      1  C   UNL     1       6.008  -4.244  22.645  0.00  0.00    +0.058 C 
ATOM      2  C   UNL     1       6.293  -2.716  22.633  0.00  0.00    +0.056 C 
ATOM      3  C   UNL     1       7.660  -2.389  23.124  0.00  0.00    -0.018 A 
ATOM      4  C   UNL     1       8.322  -1.137  23.151  0.00  0.00    +0.004 A 
ATOM      5  C   UNL     1       7.965   0.158  22.720  0.00  0.00    +0.023 A 
ATOM      6  C   UNL     1       8.851   1.223  22.927  0.00  0.00    +0.037 A 
ATOM      7  C   UNL     1      10.080   0.989  23.559  0.00  0.00    +0.015 A 
ATOM      8  C   UNL     1      10.457  -0.291  23.992  0.00  0.00    +0.027 A 
ATOM      9  C   UNL     1       9.554  -1.336  23.775  0.00  0.00    +0.047 A 
ATOM     10  N   UNL     1       9.637  -2.676  24.102  0.00  0.00    -0.358 N 
ATOM     11  H   UNL     1      10.421  -3.103  24.575  0.00  0.00    +0.166 HD
ATOM     12  C   UNL     1       8.485  -3.311  23.728  0.00  0.00    +0.020 A 
ATOM     13  C   UNL     1       8.162  -4.744  23.951  0.00  0.00    +0.055 C 
ATOM     14  C   UNL     1       6.631  -4.931  23.893  0.00  0.00    +0.025 C 
ENDROOT
BRANCH   6  15
ATOM     15  C   UNL     1       8.533   2.619  22.508  0.00  0.00    +0.242 C 
ATOM     16  O   UNL     1       7.602   2.863  21.747  0.00  0.00    -0.270 OA
ATOM     17  N   UNL     1       9.302   3.643  22.985  0.00  0.00    -0.325 N 
ATOM     18  H   UNL     1       9.059   4.575  22.674  0.00  0.00    +0.145 HD
ATOM     19  H   UNL     1      10.089   3.546  23.607  0.00  0.00    +0.145 HD
ENDBRANCH   6  15
BRANCH   1  21
ATOM     20  C   UNL     1       3.964  -4.612  23.939  0.00  0.00    +0.101 C 
ATOM     21  N   UNL     1       4.558  -4.531  22.610  0.00  0.00    -0.316 NA
ATOM     22  H   UNL     1       4.085  -3.802  22.076  0.00  0.00    +0.122 HD
ENDBRANCH   1  21
TORSDOF 2
ENDMDL
MODEL 7
REMARK VINA RESULT:      -6.0      2.779      5.927
REMARK  Name = 
REMARK  3 active torsions:
REMARK  status: ('A' for Active; 'I' for Inactive)
REMARK    1  A    between atoms: C_1  and  N_2
REMARK    2  A    between atoms: N_2  and  C_3
REMARK    3  A    between atoms: C_15  and  C_17
REMARK                            x       y       z     vdW  Elec       q    Type
REMARK                         _______ _______ _______ _____ _____    ______ ____
ROOT
ATOM      1  C   UNL     1       4.746  -4.016  24.431  0.00  0.00    +0.058 C 
ATOM      2  C   UNL     1       5.422  -2.700  23.952  0.00  0.00    +0.056 C 
ATOM      3  C   UNL     1       6.899  -2.831  23.831  0.00  0.00    -0.018 A 
ATOM      4  C   UNL     1       7.838  -1.901  23.319  0.00  0.00    +0.004 A 
ATOM      5  C   UNL     1       7.718  -0.618  22.746  0.00  0.00    +0.023 A 
ATOM      6  C   UNL     1       8.871   0.078  22.362  0.00  0.00    +0.037 A 
ATOM      7  C   UNL     1      10.130  -0.510  22.552  0.00  0.00    +0.015 A 
ATOM      8  C   UNL     1      10.273  -1.787  23.115  0.00  0.00    +0.027 A 
ATOM      9  C   UNL     1       9.105  -2.458  23.492  0.00  0.00    +0.047 A 
ATOM     10  N   UNL     1       8.933  -3.697  24.079  0.00  0.00    -0.358 N 
ATOM     11  H   UNL     1       9.686  -4.323  24.330  0.00  0.00    +0.166 HD
ATOM     12  C   UNL     1       7.602  -3.915  24.303  0.00  0.00    +0.020 A 
ATOM     13  C   UNL     1       7.009  -5.108  24.964  0.00  0.00    +0.055 C 
ATOM     14  C   UNL     1       5.609  -4.743  25.501  0.00  0.00    +0.025 C 
ENDROOT
BRANCH   6  15
ATOM     15  C   UNL     1       8.819   1.443  21.762  0.00  0.00    +0.242 C 
ATOM     16  O   UNL     1       7.757   1.948  21.412  0.00  0.00    -0.270 OA
ATOM     17  N   UNL     1       9.983   2.138  21.600  0.00  0.00    -0.325 N 
ATOM     18  H   UNL     1       9.908   3.058  21.184  0.00  0.00    +0.145 HD
ATOM     19  H   UNL     1      10.903   1.810  21.848  0.00  0.00    +0.145 HD
ENDBRANCH   6  15
BRANCH   1  21
ATOM     20  C   UNL     1       2.372  -4.607  24.374  0.00  0.00    +0.101 C 
ATOM     21  N   UNL     1       3.398  -3.769  24.985  0.00  0.00    -0.316 NA
ATOM     22  H   UNL     1       3.413  -3.939  25.990  0.00  0.00    +0.122 HD
ENDBRANCH   1  21
TORSDOF 2
ENDMDL
MODEL 8
REMARK VINA RESULT:      -5.9      4.080      7.935
REMARK  Name = 
REMARK  3 active torsions:
REMARK  status: ('A' for Active; 'I' for Inactive)
REMARK    1  A    between atoms: C_1  and  N_2
REMARK    2  A    between atoms: N_2  and  C_3
REMARK    3  A    between atoms: C_15  and  C_17
REMARK                            x       y       z     vdW  Elec       q    Type
REMARK                         _______ _______ _______ _____ _____    ______ ____
ROOT
ATOM      1  C   UNL     1       9.152  -1.271  24.347  0.00  0.00    +0.058 C 
ATOM      2  C   UNL     1       9.969  -0.008  23.954  0.00  0.00    +0.056 C 
ATOM      3  C   UNL     1       9.198   1.250  24.142  0.00  0.00    -0.018 A 
ATOM      4  C   UNL     1       9.634   2.592  24.008  0.00  0.00    +0.004 A 
ATOM      5  C   UNL     1      10.878   3.181  23.702  0.00  0.00    +0.023 A 
ATOM      6  C   UNL     1      10.977   4.575  23.606  0.00  0.00    +0.037 A 
ATOM      7  C   UNL     1       9.839   5.366  23.816  0.00  0.00    +0.015 A 
ATOM      8  C   UNL     1       8.593   4.802  24.125  0.00  0.00    +0.027 A 
ATOM      9  C   UNL     1       8.521   3.408  24.213  0.00  0.00    +0.047 A 
ATOM     10  N   UNL     1       7.447   2.580  24.478  0.00  0.00    -0.358 N 
ATOM     11  H   UNL     1       6.506   2.902  24.656  0.00  0.00    +0.166 HD
ATOM     12  C   UNL     1       7.850   1.275  24.416  0.00  0.00    +0.020 A 
ATOM     13  C   UNL     1       6.982   0.082  24.590  0.00  0.00    +0.055 C 
ATOM     14  C   UNL     1       7.660  -1.137  23.929  0.00  0.00    +0.025 C 
ENDROOT
BRANCH   6  15
ATOM     15  C   UNL     1      12.259   5.264  23.275  0.00  0.00    +0.242 C 
ATOM     16  O   UNL     1      12.953   5.777  24.147  0.00  0.00    -0.270 OA
ATOM     17  N   UNL     1      12.659   5.323  21.971  0.00  0.00    -0.325 N 
ATOM     18  H   UNL     1      13.531   5.803  21.785  0.00  0.00    +0.145 HD
ATOM     19  H   UNL     1      12.158   4.939  21.185  0.00  0.00    +0.145 HD
ENDBRANCH   6  15
BRANCH   1  21
ATOM     20  C   UNL     1       9.177  -3.717  24.335  0.00  0.00    +0.101 C 
ATOM     21  N   UNL     1       9.713  -2.497  23.744  0.00  0.00    -0.316 NA
ATOM     22  H   UNL     1       9.519  -2.498  22.742  0.00  0.00    +0.122 HD
ENDBRANCH   1  21
TORSDOF 2
ENDMDL
MODEL 9
REMARK VINA RESULT:      -5.9      2.580      6.224
REMARK  Name = 
REMARK  3 active torsions:
REMARK  status: ('A' for Active; 'I' for Inactive)
REMARK    1  A    between atoms: C_1  and  N_2
REMARK    2  A    between atoms: N_2  and  C_3
REMARK    3  A    between atoms: C_15  and  C_17
REMARK                            x       y       z     vdW  Elec       q    Type
REMARK                         _______ _______ _______ _____ _____    ______ ____
ROOT
ATOM      1  C   UNL     1       7.587  -3.433  22.699  0.00  0.00    +0.058 C 
ATOM      2  C   UNL     1       7.247  -1.917  22.631  0.00  0.00    +0.056 C 
ATOM      3  C   UNL     1       8.335  -1.065  23.183  0.00  0.00    -0.018 A 
ATOM      4  C   UNL     1       8.446   0.348  23.188  0.00  0.00    +0.004 A 
ATOM      5  C   UNL     1       7.640   1.385  22.676  0.00  0.00    +0.023 A 
ATOM      6  C   UNL     1       8.016   2.718  22.882  0.00  0.00    +0.037 A 
ATOM      7  C   UNL     1       9.190   3.004  23.594  0.00  0.00    +0.015 A 
ATOM      8  C   UNL     1      10.009   1.989  24.109  0.00  0.00    +0.027 A 
ATOM      9  C   UNL     1       9.608   0.667  23.890  0.00  0.00    +0.047 A 
ATOM     10  N   UNL     1      10.189  -0.523  24.285  0.00  0.00    -0.358 N 
ATOM     11  H   UNL     1      11.042  -0.594  24.823  0.00  0.00    +0.166 HD
ATOM     12  C   UNL     1       9.410  -1.570  23.877  0.00  0.00    +0.020 A 
ATOM     13  C   UNL     1       9.664  -3.009  24.150  0.00  0.00    +0.055 C 
ATOM     14  C   UNL     1       8.339  -3.790  24.012  0.00  0.00    +0.025 C 
ENDROOT
BRANCH   6  15
ATOM     15  C   UNL     1       7.205   3.865  22.378  0.00  0.00    +0.242 C 
ATOM     16  O   UNL     1       5.990   3.774  22.232  0.00  0.00    -0.270 OA
ATOM     17  N   UNL     1       7.836   5.038  22.076  0.00  0.00    -0.325 N 
ATOM     18  H   UNL     1       7.254   5.791  21.732  0.00  0.00    +0.145 HD
ATOM     19  H   UNL     1       8.826   5.210  22.156  0.00  0.00    +0.145 HD
ENDBRANCH   6  15
BRANCH   1  21
ATOM     20  C   UNL     1       5.153  -3.547  22.926  0.00  0.00    +0.101 C 
ATOM     21  N   UNL     1       6.374  -4.271  22.595  0.00  0.00    -0.316 NA
ATOM     22  H   UNL     1       6.300  -4.636  21.645  0.00  0.00    +0.122 HD
ENDBRANCH   1  21
TORSDOF 2
ENDMDL
