MODEL 1
REMARK VINA RESULT:      -6.6      0.000      0.000
REMARK  Name = 
REMARK  18 active torsions:
REMARK  status: ('A' for Active; 'I' for Inactive)
REMARK    1  A    between atoms: C_5  and  N_43
REMARK    2  A    between atoms: C_7  and  N_8
REMARK    3  A    between atoms: C_9  and  C_11
REMARK    4  A    between atoms: C_11  and  N_12
REMARK    5  A    between atoms: N_12  and  C_13
REMARK    6  A    between atoms: C_13  and  C_14
REMARK    7  A    between atoms: C_13  and  C_15
REMARK    8  A    between atoms: C_13  and  C_16
REMARK    9  A    between atoms: C_17  and  O_18
REMARK   10  A    between atoms: C_23  and  O_24
REMARK   11  A    between atoms: C_25  and  O_26
REMARK   12  A    between atoms: C_29  and  C_30
REMARK   13  A    between atoms: C_33  and  O_34
REMARK   14  A    between atoms: C_35  and  N_37
REMARK   15  A    between atoms: N_37  and  C_38
REMARK   16  A    between atoms: N_37  and  C_39
REMARK   17  A    between atoms: N_43  and  C_44
REMARK   18  A    between atoms: N_43  and  C_45
REMARK                            x       y       z     vdW  Elec       q    Type
REMARK                         _______ _______ _______ _____ _____    ______ ____
ROOT
ATOM      1  C   UNL     1       5.697  -0.823  26.302  0.00  0.00    +0.031 C 
ATOM      2  C   UNL     1       4.658  -1.919  26.334  0.00  0.00    +0.018 C 
ATOM      3  C   UNL     1       5.137  -3.224  26.971  0.00  0.00    +0.061 C 
ATOM      4  C   UNL     1       6.496  -3.696  26.381  0.00  0.00    +0.190 C 
ATOM      5  C   UNL     1       6.299  -5.056  25.671  0.00  0.00    +0.211 C 
ATOM      6  C   UNL     1       5.432  -6.063  26.362  0.00  0.00    +0.121 C 
ATOM      7  C   UNL     1       4.175  -5.621  26.460  0.00  0.00    +0.127 C 
ATOM      8  O   UNL     1       6.745  -5.345  24.559  0.00  0.00    -0.288 OA
ATOM      9  C   UNL     1       7.268  -2.608  25.605  0.00  0.00    +0.141 C 
ATOM     10  C   UNL     1       3.893  -4.172  26.782  0.00  0.00    +0.129 C 
ATOM     11  C   UNL     1       6.902  -1.303  25.579  0.00  0.00    +0.044 C 
ATOM     12  C   UNL     1       7.720  -0.253  24.890  0.00  0.00    +0.197 C 
ATOM     13  O   UNL     1       8.743  -0.594  24.300  0.00  0.00    -0.287 OA
ATOM     14  C   UNL     1       7.214   1.169  24.887  0.00  0.00    +0.070 A 
ATOM     15  C   UNL     1       5.851   1.459  25.159  0.00  0.00    -0.011 A 
ATOM     16  C   UNL     1       5.309   2.762  24.981  0.00  0.00    +0.035 A 
ATOM     17  C   UNL     1       6.210   3.767  24.589  0.00  0.00    +0.050 A 
ATOM     18  C   UNL     1       7.561   3.508  24.329  0.00  0.00    +0.078 A 
ATOM     19  C   UNL     1       8.060   2.215  24.516  0.00  0.00    +0.149 A 
ATOM     20  C   UNL     1       4.985   0.348  25.640  0.00  0.00    +0.046 C 
ENDROOT
BRANCH   6  21
ATOM     21  C   UNL     1       5.813  -6.731  27.641  0.00  0.00    +0.248 C 
ATOM     22  O   UNL     1       6.875  -6.531  28.219  0.00  0.00    -0.270 OA
ATOM     23  N   UNL     1       4.903  -7.549  28.223  0.00  0.00    -0.325 N 
ATOM     24  H   UNL     1       5.207  -8.002  29.075  0.00  0.00    +0.145 HD
ATOM     25  H   UNL     1       3.989  -7.757  27.851  0.00  0.00    +0.145 HD
ENDBRANCH   6  21
BRANCH  18  26
ATOM     26  N   UNL     1       8.340   4.591  23.856  0.00  0.00    -0.281 N 
ATOM     27  H   UNL     1       8.729   4.498  22.926  0.00  0.00    +0.155 HD
ATOM     28  C   UNL     1       8.980   5.483  24.708  0.00  0.00    +0.231 C 
ATOM     29  O   UNL     1       8.891   5.440  25.935  0.00  0.00    -0.274 OA
BRANCH  28  30
ATOM     30  C   UNL     1       9.827   6.534  23.974  0.00  0.00    +0.178 C 
BRANCH  30  31
ATOM     31  N   UNL     1      10.625   5.922  22.899  0.00  0.00    -0.303 NA
ATOM     32  H   UNL     1      10.642   6.525  22.078  0.00  0.00    +0.123 HD
BRANCH  31  33
ATOM     33  C   UNL     1      11.999   5.528  23.273  0.00  0.00    +0.011 C 
ATOM     34  C   UNL     1      13.011   5.834  22.154  0.00  0.00    +0.027 C 
ATOM     35  C   UNL     1      11.993   4.003  23.507  0.00  0.00    +0.027 C 
ATOM     36  C   UNL     1      12.449   6.207  24.579  0.00  0.00    +0.027 C 
ENDBRANCH  31  33
ENDBRANCH  30  31
ENDBRANCH  28  30
ENDBRANCH  18  26
BRANCH  10  37
ATOM     37  N   UNL     1       2.944  -3.890  27.884  0.00  0.00    -0.299 NA
ATOM     38  C   UNL     1       1.560  -3.780  27.432  0.00  0.00    +0.105 C 
ATOM     39  C   UNL     1       3.029  -4.814  29.017  0.00  0.00    +0.105 C 
ENDBRANCH  10  37
BRANCH  16  40
ATOM     40  N   UNL     1       3.959   3.096  25.101  0.00  0.00    -0.336 N 
ATOM     41  C   UNL     1       3.157   3.321  23.899  0.00  0.00    +0.129 C 
ATOM     42  C   UNL     1       3.330   3.557  26.337  0.00  0.00    +0.129 C 
ENDBRANCH  16  40
BRANCH   7  43
ATOM     43  O   UNL     1       3.187  -6.195  25.647  0.00  0.00    -0.509 OA
ATOM     44  H   UNL     1       2.437  -5.577  25.569  0.00  0.00    +0.292 HD
ENDBRANCH   7  43
BRANCH   4  45
ATOM     45  O   UNL     1       7.386  -4.032  27.473  0.00  0.00    -0.373 OA
ATOM     46  H   UNL     1       8.193  -4.382  27.040  0.00  0.00    +0.211 HD
ENDBRANCH   4  45
BRANCH   9  47
ATOM     47  O   UNL     1       8.479  -3.041  25.076  0.00  0.00    -0.507 OA
ATOM     48  H   UNL     1       9.054  -2.246  24.937  0.00  0.00    +0.292 HD
ENDBRANCH   9  47
BRANCH  19  49
ATOM     49  O   UNL     1       9.409   1.996  24.428  0.00  0.00    -0.504 OA
ATOM     50  H   UNL     1       9.590   1.908  23.470  0.00  0.00    +0.292 HD
ENDBRANCH  19  49
TORSDOF 11
ENDMDL
MODEL 2
REMARK VINA RESULT:      -6.3      2.691     10.680
REMARK  Name = 
REMARK  18 active torsions:
REMARK  status: ('A' for Active; 'I' for Inactive)
REMARK    1  A    between atoms: C_5  and  N_43
REMARK    2  A    between atoms: C_7  and  N_8
REMARK    3  A    between atoms: C_9  and  C_11
REMARK    4  A    between atoms: C_11  and  N_12
REMARK    5  A    between atoms: N_12  and  C_13
REMARK    6  A    between atoms: C_13  and  C_14
REMARK    7  A    between atoms: C_13  and  C_15
REMARK    8  A    between atoms: C_13  and  C_16
REMARK    9  A    between atoms: C_17  and  O_18
REMARK   10  A    between atoms: C_23  and  O_24
REMARK   11  A    between atoms: C_25  and  O_26
REMARK   12  A    between atoms: C_29  and  C_30
REMARK   13  A    between atoms: C_33  and  O_34
REMARK   14  A    between atoms: C_35  and  N_37
REMARK   15  A    between atoms: N_37  and  C_38
REMARK   16  A    between atoms: N_37  and  C_39
REMARK   17  A    between atoms: N_43  and  C_44
REMARK   18  A    between atoms: N_43  and  C_45
REMARK                            x       y       z     vdW  Elec       q    Type
REMARK                         _______ _______ _______ _____ _____    ______ ____
ROOT
ATOM      1  C   UNL     1       7.565  -0.388  25.791  0.00  0.00    +0.031 C 
ATOM      2  C   UNL     1       7.993   0.476  24.629  0.00  0.00    +0.018 C 
ATOM      3  C   UNL     1       8.305   1.925  25.002  0.00  0.00    +0.061 C 
ATOM      4  C   UNL     1       7.168   2.567  25.847  0.00  0.00    +0.190 C 
ATOM      5  C   UNL     1       6.554   3.749  25.062  0.00  0.00    +0.211 C 
ATOM      6  C   UNL     1       7.506   4.653  24.341  0.00  0.00    +0.121 C 
ATOM      7  C   UNL     1       8.153   3.992  23.377  0.00  0.00    +0.127 C 
ATOM      8  O   UNL     1       5.347   3.962  24.933  0.00  0.00    -0.288 OA
ATOM      9  C   UNL     1       6.185   1.554  26.469  0.00  0.00    +0.141 C 
ATOM     10  C   UNL     1       8.628   2.575  23.604  0.00  0.00    +0.129 C 
ATOM     11  C   UNL     1       6.374   0.212  26.445  0.00  0.00    +0.044 C 
ATOM     12  C   UNL     1       5.447  -0.743  27.133  0.00  0.00    +0.197 C 
ATOM     13  O   UNL     1       4.461  -0.294  27.713  0.00  0.00    -0.287 OA
ATOM     14  C   UNL     1       5.723  -2.223  27.022  0.00  0.00    +0.070 A 
ATOM     15  C   UNL     1       6.566  -2.733  26.000  0.00  0.00    -0.011 A 
ATOM     16  C   UNL     1       6.695  -4.129  25.758  0.00  0.00    +0.035 A 
ATOM     17  C   UNL     1       5.998  -4.983  26.631  0.00  0.00    +0.050 A 
ATOM     18  C   UNL     1       5.172  -4.503  27.654  0.00  0.00    +0.078 A 
ATOM     19  C   UNL     1       5.071  -3.124  27.865  0.00  0.00    +0.149 A 
ATOM     20  C   UNL     1       7.324  -1.757  25.170  0.00  0.00    +0.046 C 
ENDROOT
BRANCH   6  21
ATOM     21  C   UNL     1       8.467   5.556  25.040  0.00  0.00    +0.248 C 
ATOM     22  O   UNL     1       8.533   5.659  26.260  0.00  0.00    -0.270 OA
ATOM     23  N   UNL     1       9.356   6.243  24.283  0.00  0.00    -0.325 N 
ATOM     24  H   UNL     1       9.974   6.862  24.792  0.00  0.00    +0.145 HD
ATOM     25  H   UNL     1       9.411   6.206  23.277  0.00  0.00    +0.145 HD
ENDBRANCH   6  21
BRANCH  18  26
ATOM     26  N   UNL     1       4.458  -5.467  28.405  0.00  0.00    -0.281 N 
ATOM     27  H   UNL     1       3.515  -5.673  28.099  0.00  0.00    +0.155 HD
ATOM     28  C   UNL     1       4.755  -5.757  29.731  0.00  0.00    +0.231 C 
ATOM     29  O   UNL     1       5.684  -5.240  30.351  0.00  0.00    -0.274 OA
BRANCH  28  30
ATOM     30  C   UNL     1       3.804  -6.783  30.364  0.00  0.00    +0.178 C 
BRANCH  30  31
ATOM     31  N   UNL     1       3.266  -7.708  29.353  0.00  0.00    -0.303 NA
ATOM     32  H   UNL     1       3.640  -8.646  29.490  0.00  0.00    +0.123 HD
BRANCH  31  33
ATOM     33  C   UNL     1       1.792  -7.755  29.255  0.00  0.00    +0.011 C 
ATOM     34  C   UNL     1       1.228  -9.116  29.703  0.00  0.00    +0.027 C 
ATOM     35  C   UNL     1       1.423  -7.551  27.772  0.00  0.00    +0.027 C 
ATOM     36  C   UNL     1       1.132  -6.627  30.068  0.00  0.00    +0.027 C 
ENDBRANCH  31  33
ENDBRANCH  30  31
ENDBRANCH  28  30
ENDBRANCH  18  26
BRANCH  10  37
ATOM     37  N   UNL     1      10.041   2.270  23.283  0.00  0.00    -0.299 NA
ATOM     38  C   UNL     1      10.210   1.663  21.966  0.00  0.00    +0.105 C 
ATOM     39  C   UNL     1      10.962   3.398  23.438  0.00  0.00    +0.105 C 
ENDBRANCH  10  37
BRANCH  16  40
ATOM     40  N   UNL     1       7.397  -4.700  24.697  0.00  0.00    -0.336 N 
ATOM     41  C   UNL     1       6.678  -5.132  23.499  0.00  0.00    +0.129 C 
ATOM     42  C   UNL     1       8.766  -5.206  24.789  0.00  0.00    +0.129 C 
ENDBRANCH  16  40
BRANCH   7  43
ATOM     43  O   UNL     1       7.820   4.242  22.039  0.00  0.00    -0.509 OA
ATOM     44  H   UNL     1       7.458   3.428  21.640  0.00  0.00    +0.292 HD
ENDBRANCH   7  43
BRANCH   4  45
ATOM     45  O   UNL     1       7.757   3.221  26.998  0.00  0.00    -0.373 OA
ATOM     46  H   UNL     1       6.993   3.557  27.513  0.00  0.00    +0.211 HD
ENDBRANCH   4  45
BRANCH   9  47
ATOM     47  O   UNL     1       5.168   2.138  27.218  0.00  0.00    -0.507 OA
ATOM     48  H   UNL     1       5.278   3.122  27.167  0.00  0.00    +0.292 HD
ENDBRANCH   9  47
BRANCH  19  49
ATOM     49  O   UNL     1       4.402  -2.659  28.965  0.00  0.00    -0.504 OA
ATOM     50  H   UNL     1       3.467  -2.910  28.821  0.00  0.00    +0.292 HD
ENDBRANCH  19  49
TORSDOF 11
ENDMDL
MODEL 3
REMARK VINA RESULT:      -6.2      1.721      1.970
REMARK  Name = 
REMARK  18 active torsions:
REMARK  status: ('A' for Active; 'I' for Inactive)
REMARK    1  A    between atoms: C_5  and  N_43
REMARK    2  A    between atoms: C_7  and  N_8
REMARK    3  A    between atoms: C_9  and  C_11
REMARK    4  A    between atoms: C_11  and  N_12
REMARK    5  A    between atoms: N_12  and  C_13
REMARK    6  A    between atoms: C_13  and  C_14
REMARK    7  A    between atoms: C_13  and  C_15
REMARK    8  A    between atoms: C_13  and  C_16
REMARK    9  A    between atoms: C_17  and  O_18
REMARK   10  A    between atoms: C_23  and  O_24
REMARK   11  A    between atoms: C_25  and  O_26
REMARK   12  A    between atoms: C_29  and  C_30
REMARK   13  A    between atoms: C_33  and  O_34
REMARK   14  A    between atoms: C_35  and  N_37
REMARK   15  A    between atoms: N_37  and  C_38
REMARK   16  A    between atoms: N_37  and  C_39
REMARK   17  A    between atoms: N_43  and  C_44
REMARK   18  A    between atoms: N_43  and  C_45
REMARK                            x       y       z     vdW  Elec       q    Type
REMARK                         _______ _______ _______ _____ _____    ______ ____
ROOT
ATOM      1  C   UNL     1       5.575  -1.233  26.033  0.00  0.00    +0.031 C 
ATOM      2  C   UNL     1       4.305  -2.039  26.158  0.00  0.00    +0.018 C 
ATOM      3  C   UNL     1       4.482  -3.538  25.921  0.00  0.00    +0.061 C 
ATOM      4  C   UNL     1       5.258  -3.832  24.606  0.00  0.00    +0.190 C 
ATOM      5  C   UNL     1       4.338  -4.607  23.634  0.00  0.00    +0.211 C 
ATOM      6  C   UNL     1       3.490  -5.693  24.221  0.00  0.00    +0.121 C 
ATOM      7  C   UNL     1       2.609  -5.191  25.091  0.00  0.00    +0.127 C 
ATOM      8  O   UNL     1       4.203  -4.355  22.435  0.00  0.00    -0.288 OA
ATOM      9  C   UNL     1       6.021  -2.621  24.030  0.00  0.00    +0.141 C 
ATOM     10  C   UNL     1       3.007  -4.079  26.033  0.00  0.00    +0.129 C 
ATOM     11  C   UNL     1       6.167  -1.444  24.687  0.00  0.00    +0.044 C 
ATOM     12  C   UNL     1       6.989  -0.316  24.142  0.00  0.00    +0.197 C 
ATOM     13  O   UNL     1       7.523  -0.452  23.044  0.00  0.00    -0.287 OA
ATOM     14  C   UNL     1       7.064   0.968  24.931  0.00  0.00    +0.070 A 
ATOM     15  C   UNL     1       6.102   1.268  25.931  0.00  0.00    -0.011 A 
ATOM     16  C   UNL     1       6.039   2.543  26.558  0.00  0.00    +0.035 A 
ATOM     17  C   UNL     1       7.027   3.473  26.186  0.00  0.00    +0.050 A 
ATOM     18  C   UNL     1       7.994   3.195  25.212  0.00  0.00    +0.078 A 
ATOM     19  C   UNL     1       8.027   1.929  24.619  0.00  0.00    +0.149 A 
ATOM     20  C   UNL     1       5.140   0.198  26.316  0.00  0.00    +0.046 C 
ENDROOT
BRANCH   6  21
ATOM     21  C   UNL     1       4.051  -6.960  24.775  0.00  0.00    +0.248 C 
ATOM     22  O   UNL     1       5.106  -7.455  24.396  0.00  0.00    -0.270 OA
ATOM     23  N   UNL     1       3.389  -7.551  25.799  0.00  0.00    -0.325 N 
ATOM     24  H   UNL     1       3.786  -8.420  26.131  0.00  0.00    +0.145 HD
ATOM     25  H   UNL     1       2.532  -7.210  26.209  0.00  0.00    +0.145 HD
ENDBRANCH   6  21
BRANCH  18  26
ATOM     26  N   UNL     1       8.874   4.248  24.867  0.00  0.00    -0.281 N 
ATOM     27  H   UNL     1       9.517   4.556  25.586  0.00  0.00    +0.155 HD
ATOM     28  C   UNL     1       8.595   5.160  23.856  0.00  0.00    +0.231 C 
ATOM     29  O   UNL     1       7.590   5.106  23.147  0.00  0.00    -0.274 OA
BRANCH  28  30
ATOM     30  C   UNL     1       9.659   6.258  23.706  0.00  0.00    +0.178 C 
BRANCH  30  31
ATOM     31  N   UNL     1      10.679   5.882  22.713  0.00  0.00    -0.303 NA
ATOM     32  H   UNL     1      10.782   6.614  22.012  0.00  0.00    +0.123 HD
BRANCH  31  33
ATOM     33  C   UNL     1      11.999   5.513  23.267  0.00  0.00    +0.011 C 
ATOM     34  C   UNL     1      13.133   5.744  22.252  0.00  0.00    +0.027 C 
ATOM     35  C   UNL     1      11.954   4.007  23.597  0.00  0.00    +0.027 C 
ATOM     36  C   UNL     1      12.303   6.276  24.568  0.00  0.00    +0.027 C 
ENDBRANCH  31  33
ENDBRANCH  30  31
ENDBRANCH  28  30
ENDBRANCH  18  26
BRANCH  10  37
ATOM     37  N   UNL     1       2.704  -4.262  27.471  0.00  0.00    -0.299 NA
ATOM     38  C   UNL     1       1.410  -4.895  27.706  0.00  0.00    +0.105 C 
ATOM     39  C   UNL     1       3.746  -4.952  28.234  0.00  0.00    +0.105 C 
ENDBRANCH  10  37
BRANCH  16  40
ATOM     40  N   UNL     1       5.048   2.955  27.449  0.00  0.00    -0.336 N 
ATOM     41  C   UNL     1       3.905   3.724  26.959  0.00  0.00    +0.129 C 
ATOM     42  C   UNL     1       5.197   2.962  28.903  0.00  0.00    +0.129 C 
ENDBRANCH  16  40
BRANCH   7  43
ATOM     43  O   UNL     1       1.255  -5.133  24.730  0.00  0.00    -0.509 OA
ATOM     44  H   UNL     1       0.718  -5.549  25.431  0.00  0.00    +0.292 HD
ENDBRANCH   7  43
BRANCH   4  45
ATOM     45  O   UNL     1       6.305  -4.793  24.888  0.00  0.00    -0.373 OA
ATOM     46  H   UNL     1       6.691  -5.006  24.012  0.00  0.00    +0.211 HD
ENDBRANCH   4  45
BRANCH   9  47
ATOM     47  O   UNL     1       6.707  -2.893  22.851  0.00  0.00    -0.507 OA
ATOM     48  H   UNL     1       6.301  -3.698  22.440  0.00  0.00    +0.292 HD
ENDBRANCH   9  47
BRANCH  19  49
ATOM     49  O   UNL     1       9.070   1.599  23.796  0.00  0.00    -0.504 OA
ATOM     50  H   UNL     1       8.801   1.908  22.907  0.00  0.00    +0.292 HD
ENDBRANCH  19  49
TORSDOF 11
ENDMDL
MODEL 4
REMARK VINA RESULT:      -6.0      2.688     10.701
REMARK  Name = 
REMARK  18 active torsions:
REMARK  status: ('A' for Active; 'I' for Inactive)
REMARK    1  A    between atoms: C_5  and  N_43
REMARK    2  A    between atoms: C_7  and  N_8
REMARK    3  A    between atoms: C_9  and  C_11
REMARK    4  A    between atoms: C_11  and  N_12
REMARK    5  A    between atoms: N_12  and  C_13
REMARK    6  A    between atoms: C_13  and  C_14
REMARK    7  A    between atoms: C_13  and  C_15
REMARK    8  A    between atoms: C_13  and  C_16
REMARK    9  A    between atoms: C_17  and  O_18
REMARK   10  A    between atoms: C_23  and  O_24
REMARK   11  A    between atoms: C_25  and  O_26
REMARK   12  A    between atoms: C_29  and  C_30
REMARK   13  A    between atoms: C_33  and  O_34
REMARK   14  A    between atoms: C_35  and  N_37
REMARK   15  A    between atoms: N_37  and  C_38
REMARK   16  A    between atoms: N_37  and  C_39
REMARK   17  A    between atoms: N_43  and  C_44
REMARK   18  A    between atoms: N_43  and  C_45
REMARK                            x       y       z     vdW  Elec       q    Type
REMARK                         _______ _______ _______ _____ _____    ______ ____
ROOT
ATOM      1  C   UNL     1       6.996  -0.671  25.075  0.00  0.00    +0.031 C 
ATOM      2  C   UNL     1       7.587   0.320  24.102  0.00  0.00    +0.018 C 
ATOM      3  C   UNL     1       7.989   1.656  24.727  0.00  0.00    +0.061 C 
ATOM      4  C   UNL     1       6.847   2.263  25.590  0.00  0.00    +0.190 C 
ATOM      5  C   UNL     1       6.400   3.608  24.971  0.00  0.00    +0.211 C 
ATOM      6  C   UNL     1       7.479   4.518  24.472  0.00  0.00    +0.121 C 
ATOM      7  C   UNL     1       8.144   3.957  23.457  0.00  0.00    +0.127 C 
ATOM      8  O   UNL     1       5.229   3.953  24.799  0.00  0.00    -0.288 OA
ATOM      9  C   UNL     1       5.734   1.264  25.971  0.00  0.00    +0.141 C 
ATOM     10  C   UNL     1       8.477   2.484  23.479  0.00  0.00    +0.129 C 
ATOM     11  C   UNL     1       5.811  -0.069  25.739  0.00  0.00    +0.044 C 
ATOM     12  C   UNL     1       4.754  -1.027  26.199  0.00  0.00    +0.197 C 
ATOM     13  O   UNL     1       3.766  -0.582  26.779  0.00  0.00    -0.287 OA
ATOM     14  C   UNL     1       4.912  -2.490  25.865  0.00  0.00    +0.070 A 
ATOM     15  C   UNL     1       5.789  -2.912  24.831  0.00  0.00    -0.011 A 
ATOM     16  C   UNL     1       5.819  -4.258  24.372  0.00  0.00    +0.035 A 
ATOM     17  C   UNL     1       4.984  -5.168  25.045  0.00  0.00    +0.050 A 
ATOM     18  C   UNL     1       4.122  -4.778  26.077  0.00  0.00    +0.078 A 
ATOM     19  C   UNL     1       4.121  -3.446  26.504  0.00  0.00    +0.149 A 
ATOM     20  C   UNL     1       6.691  -1.896  24.224  0.00  0.00    +0.046 C 
ENDROOT
BRANCH   6  21
ATOM     21  C   UNL     1       8.454   5.202  25.372  0.00  0.00    +0.248 C 
ATOM     22  O   UNL     1       8.366   5.195  26.594  0.00  0.00    -0.270 OA
ATOM     23  N   UNL     1       9.528   5.802  24.803  0.00  0.00    -0.325 N 
ATOM     24  H   UNL     1      10.152   6.275  25.443  0.00  0.00    +0.145 HD
ATOM     25  H   UNL     1       9.714   5.837  23.812  0.00  0.00    +0.145 HD
ENDBRANCH   6  21
BRANCH  18  26
ATOM     26  N   UNL     1       3.271  -5.775  26.610  0.00  0.00    -0.281 N 
ATOM     27  H   UNL     1       3.719  -6.550  27.081  0.00  0.00    +0.155 HD
ATOM     28  C   UNL     1       1.988  -6.004  26.127  0.00  0.00    +0.231 C 
ATOM     29  O   UNL     1       1.466  -5.338  25.234  0.00  0.00    -0.274 OA
BRANCH  28  30
ATOM     30  C   UNL     1       1.275  -7.182  26.809  0.00  0.00    +0.178 C 
BRANCH  30  31
ATOM     31  N   UNL     1       2.135  -7.812  27.824  0.00  0.00    -0.303 NA
ATOM     32  H   UNL     1       3.064  -7.393  27.816  0.00  0.00    +0.123 HD
BRANCH  31  33
ATOM     33  C   UNL     1       1.591  -7.824  29.199  0.00  0.00    +0.011 C 
ATOM     34  C   UNL     1       0.444  -6.813  29.373  0.00  0.00    +0.027 C 
ATOM     35  C   UNL     1       2.735  -7.415  30.149  0.00  0.00    +0.027 C 
ATOM     36  C   UNL     1       1.113  -9.229  29.608  0.00  0.00    +0.027 C 
ENDBRANCH  31  33
ENDBRANCH  30  31
ENDBRANCH  28  30
ENDBRANCH  18  26
BRANCH  10  37
ATOM     37  N   UNL     1       9.881   2.098  23.207  0.00  0.00    -0.299 NA
ATOM     38  C   UNL     1      10.064   1.500  21.887  0.00  0.00    +0.105 C 
ATOM     39  C   UNL     1      10.861   3.166  23.413  0.00  0.00    +0.105 C 
ENDBRANCH  10  37
BRANCH  16  40
ATOM     40  N   UNL     1       6.553  -4.721  23.280  0.00  0.00    -0.336 N 
ATOM     41  C   UNL     1       7.907  -5.234  23.479  0.00  0.00    +0.129 C 
ATOM     42  C   UNL     1       6.214  -4.449  21.884  0.00  0.00    +0.129 C 
ENDBRANCH  16  40
BRANCH   7  43
ATOM     43  O   UNL     1       7.941   4.445  22.159  0.00  0.00    -0.509 OA
ATOM     44  H   UNL     1       7.798   3.696  21.552  0.00  0.00    +0.292 HD
ENDBRANCH   7  43
BRANCH   4  45
ATOM     45  O   UNL     1       7.394   2.667  26.869  0.00  0.00    -0.373 OA
ATOM     46  H   UNL     1       6.699   3.228  27.273  0.00  0.00    +0.211 HD
ENDBRANCH   4  45
BRANCH   9  47
ATOM     47  O   UNL     1       4.714   1.818  26.738  0.00  0.00    -0.507 OA
ATOM     48  H   UNL     1       5.121   2.202  27.555  0.00  0.00    +0.292 HD
ENDBRANCH   9  47
BRANCH  19  49
ATOM     49  O   UNL     1       3.408  -3.098  27.620  0.00  0.00    -0.504 OA
ATOM     50  H   UNL     1       2.529  -2.825  27.286  0.00  0.00    +0.292 HD
ENDBRANCH  19  49
TORSDOF 11
ENDMDL
MODEL 5
REMARK VINA RESULT:      -6.0      2.673     10.623
REMARK  Name = 
REMARK  18 active torsions:
REMARK  status: ('A' for Active; 'I' for Inactive)
REMARK    1  A    between atoms: C_5  and  N_43
REMARK    2  A    between atoms: C_7  and  N_8
REMARK    3  A    between atoms: C_9  and  C_11
REMARK    4  A    between atoms: C_11  and  N_12
REMARK    5  A    between atoms: N_12  and  C_13
REMARK    6  A    between atoms: C_13  and  C_14
REMARK    7  A    between atoms: C_13  and  C_15
REMARK    8  A    between atoms: C_13  and  C_16
REMARK    9  A    between atoms: C_17  and  O_18
REMARK   10  A    between atoms: C_23  and  O_24
REMARK   11  A    between atoms: C_25  and  O_26
REMARK   12  A    between atoms: C_29  and  C_30
REMARK   13  A    between atoms: C_33  and  O_34
REMARK   14  A    between atoms: C_35  and  N_37
REMARK   15  A    between atoms: N_37  and  C_38
REMARK   16  A    between atoms: N_37  and  C_39
REMARK   17  A    between atoms: N_43  and  C_44
REMARK   18  A    between atoms: N_43  and  C_45
REMARK                            x       y       z     vdW  Elec       q    Type
REMARK                         _______ _______ _______ _____ _____    ______ ____
ROOT
ATOM      1  C   UNL     1       7.137   0.163  25.116  0.00  0.00    +0.031 C 
ATOM      2  C   UNL     1       7.808   1.143  24.183  0.00  0.00    +0.018 C 
ATOM      3  C   UNL     1       8.274   2.435  24.853  0.00  0.00    +0.061 C 
ATOM      4  C   UNL     1       7.150   3.087  25.708  0.00  0.00    +0.190 C 
ATOM      5  C   UNL     1       6.798   4.471  25.117  0.00  0.00    +0.211 C 
ATOM      6  C   UNL     1       7.940   5.328  24.667  0.00  0.00    +0.121 C 
ATOM      7  C   UNL     1       8.593   4.756  23.652  0.00  0.00    +0.127 C 
ATOM      8  O   UNL     1       5.654   4.891  24.931  0.00  0.00    -0.288 OA
ATOM      9  C   UNL     1       5.972   2.146  26.038  0.00  0.00    +0.141 C 
ATOM     10  C   UNL     1       8.838   3.265  23.640  0.00  0.00    +0.129 C 
ATOM     11  C   UNL     1       5.975   0.817  25.771  0.00  0.00    +0.044 C 
ATOM     12  C   UNL     1       4.854  -0.088  26.182  0.00  0.00    +0.197 C 
ATOM     13  O   UNL     1       3.881   0.400  26.753  0.00  0.00    -0.287 OA
ATOM     14  C   UNL     1       4.933  -1.549  25.811  0.00  0.00    +0.070 A 
ATOM     15  C   UNL     1       5.805  -1.994  24.784  0.00  0.00    -0.011 A 
ATOM     16  C   UNL     1       5.766  -3.328  24.289  0.00  0.00    +0.035 A 
ATOM     17  C   UNL     1       4.864  -4.203  24.919  0.00  0.00    +0.050 A 
ATOM     18  C   UNL     1       4.004  -3.789  25.942  0.00  0.00    +0.078 A 
ATOM     19  C   UNL     1       4.071  -2.472  26.406  0.00  0.00    +0.149 A 
ATOM     20  C   UNL     1       6.780  -1.018  24.225  0.00  0.00    +0.046 C 
ENDROOT
BRANCH   6  21
ATOM     21  C   UNL     1       8.933   5.929  25.606  0.00  0.00    +0.248 C 
ATOM     22  O   UNL     1       8.828   5.877  26.826  0.00  0.00    -0.270 OA
ATOM     23  N   UNL     1      10.041   6.501  25.075  0.00  0.00    -0.325 N 
ATOM     24  H   UNL     1      10.677   6.918  25.742  0.00  0.00    +0.145 HD
ATOM     25  H   UNL     1      10.242   6.568  24.089  0.00  0.00    +0.145 HD
ENDBRANCH   6  21
BRANCH  18  26
ATOM     26  N   UNL     1       3.083  -4.748  26.430  0.00  0.00    -0.281 N 
ATOM     27  H   UNL     1       2.101  -4.542  26.297  0.00  0.00    +0.155 HD
ATOM     28  C   UNL     1       3.396  -5.638  27.450  0.00  0.00    +0.231 C 
ATOM     29  O   UNL     1       4.504  -5.704  27.983  0.00  0.00    -0.274 OA
BRANCH  28  30
ATOM     30  C   UNL     1       2.221  -6.537  27.864  0.00  0.00    +0.178 C 
BRANCH  30  31
ATOM     31  N   UNL     1       2.281  -7.842  27.183  0.00  0.00    -0.303 NA
ATOM     32  H   UNL     1       2.012  -8.590  27.820  0.00  0.00    +0.123 HD
BRANCH  31  33
ATOM     33  C   UNL     1       1.510  -7.938  25.926  0.00  0.00    +0.011 C 
ATOM     34  C   UNL     1       0.447  -6.831  25.816  0.00  0.00    +0.027 C 
ATOM     35  C   UNL     1       0.783  -9.299  25.936  0.00  0.00    +0.027 C 
ATOM     36  C   UNL     1       2.429  -7.901  24.692  0.00  0.00    +0.027 C 
ENDBRANCH  31  33
ENDBRANCH  30  31
ENDBRANCH  28  30
ENDBRANCH  18  26
BRANCH  10  37
ATOM     37  N   UNL     1      10.223   2.804  23.386  0.00  0.00    -0.299 NA
ATOM     38  C   UNL     1      10.346   2.007  22.169  0.00  0.00    +0.105 C 
ATOM     39  C   UNL     1      11.233   3.863  23.396  0.00  0.00    +0.105 C 
ENDBRANCH  10  37
BRANCH  16  40
ATOM     40  N   UNL     1       6.496  -3.804  23.200  0.00  0.00    -0.336 N 
ATOM     41  C   UNL     1       6.073  -3.472  21.840  0.00  0.00    +0.129 C 
ATOM     42  C   UNL     1       7.483  -4.880  23.274  0.00  0.00    +0.129 C 
ENDBRANCH  16  40
BRANCH   7  43
ATOM     43  O   UNL     1       8.449   5.290  22.363  0.00  0.00    -0.509 OA
ATOM     44  H   UNL     1       8.260   6.244  22.430  0.00  0.00    +0.292 HD
ENDBRANCH   7  43
BRANCH   4  45
ATOM     45  O   UNL     1       7.692   3.423  27.009  0.00  0.00    -0.373 OA
ATOM     46  H   UNL     1       7.357   2.722  27.608  0.00  0.00    +0.211 HD
ENDBRANCH   4  45
BRANCH   9  47
ATOM     47  O   UNL     1       4.969   2.740  26.798  0.00  0.00    -0.507 OA
ATOM     48  H   UNL     1       4.613   3.509  26.286  0.00  0.00    +0.292 HD
ENDBRANCH   9  47
BRANCH  19  49
ATOM     49  O   UNL     1       3.355  -2.112  27.516  0.00  0.00    -0.504 OA
ATOM     50  H   UNL     1       3.577  -2.785  28.191  0.00  0.00    +0.292 HD
ENDBRANCH  19  49
TORSDOF 11
ENDMDL
MODEL 6
REMARK VINA RESULT:      -5.9      2.538      3.996
REMARK  Name = 
REMARK  18 active torsions:
REMARK  status: ('A' for Active; 'I' for Inactive)
REMARK    1  A    between atoms: C_5  and  N_43
REMARK    2  A    between atoms: C_7  and  N_8
REMARK    3  A    between atoms: C_9  and  C_11
REMARK    4  A    between atoms: C_11  and  N_12
REMARK    5  A    between atoms: N_12  and  C_13
REMARK    6  A    between atoms: C_13  and  C_14
REMARK    7  A    between atoms: C_13  and  C_15
REMARK    8  A    between atoms: C_13  and  C_16
REMARK    9  A    between atoms: C_17  and  O_18
REMARK   10  A    between atoms: C_23  and  O_24
REMARK   11  A    between atoms: C_25  and  O_26
REMARK   12  A    between atoms: C_29  and  C_30
REMARK   13  A    between atoms: C_33  and  O_34
REMARK   14  A    between atoms: C_35  and  N_37
REMARK   15  A    between atoms: N_37  and  C_38
REMARK   16  A    between atoms: N_37  and  C_39
REMARK   17  A    between atoms: N_43  and  C_44
REMARK   18  A    between atoms: N_43  and  C_45
REMARK                            x       y       z     vdW  Elec       q    Type
REMARK                         _______ _______ _______ _____ _____    ______ ____
ROOT
ATOM      1  C   UNL     1       5.637  -2.017  24.731  0.00  0.00    +0.031 C 
ATOM      2  C   UNL     1       5.443  -3.507  24.889  0.00  0.00    +0.018 C 
ATOM      3  C   UNL     1       4.057  -3.913  25.388  0.00  0.00    +0.061 C 
ATOM      4  C   UNL     1       3.634  -3.111  26.652  0.00  0.00    +0.190 C 
ATOM      5  C   UNL     1       3.462  -4.085  27.840  0.00  0.00    +0.211 C 
ATOM      6  C   UNL     1       2.776  -5.386  27.558  0.00  0.00    +0.121 C 
ATOM      7  C   UNL     1       3.489  -6.123  26.701  0.00  0.00    +0.127 C 
ATOM      8  O   UNL     1       3.901  -3.899  28.977  0.00  0.00    -0.288 OA
ATOM      9  C   UNL     1       4.466  -1.836  26.906  0.00  0.00    +0.141 C 
ATOM     10  C   UNL     1       4.189  -5.476  25.530  0.00  0.00    +0.129 C 
ATOM     11  C   UNL     1       5.371  -1.342  26.026  0.00  0.00    +0.044 C 
ATOM     12  C   UNL     1       6.100  -0.054  26.261  0.00  0.00    +0.197 C 
ATOM     13  O   UNL     1       5.894   0.559  27.307  0.00  0.00    -0.287 OA
ATOM     14  C   UNL     1       7.113   0.398  25.238  0.00  0.00    +0.070 A 
ATOM     15  C   UNL     1       7.661  -0.515  24.301  0.00  0.00    -0.011 A 
ATOM     16  C   UNL     1       8.747  -0.163  23.452  0.00  0.00    +0.035 A 
ATOM     17  C   UNL     1       9.205   1.164  23.540  0.00  0.00    +0.050 A 
ATOM     18  C   UNL     1       8.671   2.087  24.447  0.00  0.00    +0.078 A 
ATOM     19  C   UNL     1       7.602   1.705  25.264  0.00  0.00    +0.149 A 
ATOM     20  C   UNL     1       7.066  -1.878  24.225  0.00  0.00    +0.046 C 
ENDROOT
BRANCH   6  21
ATOM     21  C   UNL     1       1.331  -5.489  27.202  0.00  0.00    +0.248 C 
ATOM     22  O   UNL     1       0.516  -4.599  27.418  0.00  0.00    -0.270 OA
ATOM     23  N   UNL     1       0.918  -6.600  26.545  0.00  0.00    -0.325 N 
ATOM     24  H   UNL     1      -0.072  -6.644  26.343  0.00  0.00    +0.145 HD
ATOM     25  H   UNL     1       1.510  -7.375  26.289  0.00  0.00    +0.145 HD
ENDBRANCH   6  21
BRANCH  18  26
ATOM     26  N   UNL     1       9.281   3.362  24.495  0.00  0.00    -0.281 N 
ATOM     27  H   UNL     1       9.778   3.596  25.346  0.00  0.00    +0.155 HD
ATOM     28  C   UNL     1       8.850   4.431  23.718  0.00  0.00    +0.231 C 
ATOM     29  O   UNL     1       7.939   4.352  22.894  0.00  0.00    -0.274 OA
BRANCH  28  30
ATOM     30  C   UNL     1       9.614   5.736  23.988  0.00  0.00    +0.178 C 
BRANCH  30  31
ATOM     31  N   UNL     1      10.638   5.979  22.959  0.00  0.00    -0.303 NA
ATOM     32  H   UNL     1      10.607   6.948  22.645  0.00  0.00    +0.123 HD
BRANCH  31  33
ATOM     33  C   UNL     1      12.018   5.608  23.336  0.00  0.00    +0.011 C 
ATOM     34  C   UNL     1      12.169   4.091  23.547  0.00  0.00    +0.027 C 
ATOM     35  C   UNL     1      12.335   6.310  24.672  0.00  0.00    +0.027 C 
ATOM     36  C   UNL     1      13.041   6.091  22.292  0.00  0.00    +0.027 C 
ENDBRANCH  31  33
ENDBRANCH  30  31
ENDBRANCH  28  30
ENDBRANCH  18  26
BRANCH  10  37
ATOM     37  N   UNL     1       3.967  -6.068  24.190  0.00  0.00    -0.299 NA
ATOM     38  C   UNL     1       2.993  -5.328  23.393  0.00  0.00    +0.105 C 
ATOM     39  C   UNL     1       5.185  -6.295  23.411  0.00  0.00    +0.105 C 
ENDBRANCH  10  37
BRANCH  16  40
ATOM     40  N   UNL     1       9.423  -1.039  22.602  0.00  0.00    -0.336 N 
ATOM     41  C   UNL     1      10.467  -1.911  23.139  0.00  0.00    +0.129 C 
ATOM     42  C   UNL     1       9.407  -0.950  21.143  0.00  0.00    +0.129 C 
ENDBRANCH  16  40
BRANCH   7  43
ATOM     43  O   UNL     1       4.166  -7.254  27.177  0.00  0.00    -0.509 OA
ATOM     44  H   UNL     1       4.605  -7.035  28.020  0.00  0.00    +0.292 HD
ENDBRANCH   7  43
BRANCH   4  45
ATOM     45  O   UNL     1       2.290  -2.607  26.455  0.00  0.00    -0.373 OA
ATOM     46  H   UNL     1       1.903  -3.189  25.767  0.00  0.00    +0.211 HD
ENDBRANCH   4  45
BRANCH   9  47
ATOM     47  O   UNL     1       4.085  -1.129  28.042  0.00  0.00    -0.507 OA
ATOM     48  H   UNL     1       3.117  -0.931  27.967  0.00  0.00    +0.292 HD
ENDBRANCH   9  47
BRANCH  19  49
ATOM     49  O   UNL     1       6.969   2.650  26.026  0.00  0.00    -0.504 OA
ATOM     50  H   UNL     1       6.428   3.167  25.394  0.00  0.00    +0.292 HD
ENDBRANCH  19  49
TORSDOF 11
ENDMDL
MODEL 7
REMARK VINA RESULT:      -5.2      2.727      4.424
REMARK  Name = 
REMARK  18 active torsions:
REMARK  status: ('A' for Active; 'I' for Inactive)
REMARK    1  A    between atoms: C_5  and  N_43
REMARK    2  A    between atoms: C_7  and  N_8
REMARK    3  A    between atoms: C_9  and  C_11
REMARK    4  A    between atoms: C_11  and  N_12
REMARK    5  A    between atoms: N_12  and  C_13
REMARK    6  A    between atoms: C_13  and  C_14
REMARK    7  A    between atoms: C_13  and  C_15
REMARK    8  A    between atoms: C_13  and  C_16
REMARK    9  A    between atoms: C_17  and  O_18
REMARK   10  A    between atoms: C_23  and  O_24
REMARK   11  A    between atoms: C_25  and  O_26
REMARK   12  A    between atoms: C_29  and  C_30
REMARK   13  A    between atoms: C_33  and  O_34
REMARK   14  A    between atoms: C_35  and  N_37
REMARK   15  A    between atoms: N_37  and  C_38
REMARK   16  A    between atoms: N_37  and  C_39
REMARK   17  A    between atoms: N_43  and  C_44
REMARK   18  A    between atoms: N_43  and  C_45
REMARK                            x       y       z     vdW  Elec       q    Type
REMARK                         _______ _______ _______ _____ _____    ______ ____
ROOT
ATOM      1  C   UNL     1       4.715  -2.872  25.292  0.00  0.00    +0.031 C 
ATOM      2  C   UNL     1       4.789  -4.285  25.820  0.00  0.00    +0.018 C 
ATOM      3  C   UNL     1       3.559  -4.729  26.610  0.00  0.00    +0.061 C 
ATOM      4  C   UNL     1       3.162  -3.696  27.702  0.00  0.00    +0.190 C 
ATOM      5  C   UNL     1       3.296  -4.351  29.096  0.00  0.00    +0.211 C 
ATOM      6  C   UNL     1       2.806  -5.760  29.235  0.00  0.00    +0.121 C 
ATOM      7  C   UNL     1       3.524  -6.590  28.473  0.00  0.00    +0.127 C 
ATOM      8  O   UNL     1       3.830  -3.828  30.076  0.00  0.00    -0.288 OA
ATOM      9  C   UNL     1       3.796  -2.301  27.521  0.00  0.00    +0.141 C 
ATOM     10  C   UNL     1       3.964  -6.174  27.088  0.00  0.00    +0.129 C 
ATOM     11  C   UNL     1       4.496  -1.931  26.421  0.00  0.00    +0.044 C 
ATOM     12  C   UNL     1       5.025  -0.541  26.234  0.00  0.00    +0.197 C 
ATOM     13  O   UNL     1       4.846   0.284  27.127  0.00  0.00    -0.287 OA
ATOM     14  C   UNL     1       5.821  -0.234  24.989  0.00  0.00    +0.070 A 
ATOM     15  C   UNL     1       6.398  -1.275  24.216  0.00  0.00    -0.011 A 
ATOM     16  C   UNL     1       7.302  -1.010  23.150  0.00  0.00    +0.035 A 
ATOM     17  C   UNL     1       7.541   0.344  22.855  0.00  0.00    +0.050 A 
ATOM     18  C   UNL     1       6.973   1.388  23.595  0.00  0.00    +0.078 A 
ATOM     19  C   UNL     1       6.086   1.089  24.634  0.00  0.00    +0.149 A 
ATOM     20  C   UNL     1       6.031  -2.678  24.552  0.00  0.00    +0.046 C 
ENDROOT
BRANCH   6  21
ATOM     21  C   UNL     1       1.365  -6.138  29.142  0.00  0.00    +0.248 C 
ATOM     22  O   UNL     1       0.978  -7.250  28.802  0.00  0.00    -0.270 OA
ATOM     23  N   UNL     1       0.444  -5.220  29.521  0.00  0.00    -0.325 N 
ATOM     24  H   UNL     1      -0.522  -5.504  29.420  0.00  0.00    +0.145 HD
ATOM     25  H   UNL     1       0.654  -4.288  29.847  0.00  0.00    +0.145 HD
ENDBRANCH   6  21
BRANCH  18  26
ATOM     26  N   UNL     1       7.366   2.703  23.250  0.00  0.00    -0.281 N 
ATOM     27  H   UNL     1       8.133   3.101  23.776  0.00  0.00    +0.155 HD
ATOM     28  C   UNL     1       6.508   3.605  22.631  0.00  0.00    +0.231 C 
ATOM     29  O   UNL     1       5.357   3.329  22.291  0.00  0.00    -0.274 OA
BRANCH  28  30
ATOM     30  C   UNL     1       7.126   4.995  22.417  0.00  0.00    +0.178 C 
BRANCH  30  31
ATOM     31  N   UNL     1       8.469   5.080  23.015  0.00  0.00    -0.303 NA
ATOM     32  H   UNL     1       9.168   5.275  22.300  0.00  0.00    +0.123 HD
BRANCH  31  33
ATOM     33  C   UNL     1       8.605   6.033  24.137  0.00  0.00    +0.011 C 
ATOM     34  C   UNL     1       9.988   6.708  24.153  0.00  0.00    +0.027 C 
ATOM     35  C   UNL     1       8.452   5.229  25.444  0.00  0.00    +0.027 C 
ATOM     36  C   UNL     1       7.503   7.107  24.107  0.00  0.00    +0.027 C 
ENDBRANCH  31  33
ENDBRANCH  30  31
ENDBRANCH  28  30
ENDBRANCH  18  26
BRANCH  10  37
ATOM     37  N   UNL     1       3.685  -7.110  25.975  0.00  0.00    -0.299 NA
ATOM     38  C   UNL     1       2.292  -7.082  25.540  0.00  0.00    +0.105 C 
ATOM     39  C   UNL     1       4.574  -6.970  24.820  0.00  0.00    +0.105 C 
ENDBRANCH  10  37
BRANCH  16  40
ATOM     40  N   UNL     1       8.008  -1.976  22.433  0.00  0.00    -0.336 N 
ATOM     41  C   UNL     1       9.234  -1.607  21.729  0.00  0.00    +0.129 C 
ATOM     42  C   UNL     1       7.466  -3.279  22.050  0.00  0.00    +0.129 C 
ENDBRANCH  16  40
BRANCH   7  43
ATOM     43  O   UNL     1       4.430  -7.465  29.087  0.00  0.00    -0.509 OA
ATOM     44  H   UNL     1       5.122  -6.946  29.539  0.00  0.00    +0.292 HD
ENDBRANCH   7  43
BRANCH   4  45
ATOM     45  O   UNL     1       1.740  -3.439  27.605  0.00  0.00    -0.373 OA
ATOM     46  H   UNL     1       1.349  -4.296  27.335  0.00  0.00    +0.211 HD
ENDBRANCH   4  45
BRANCH   9  47
ATOM     47  O   UNL     1       3.441  -1.385  28.507  0.00  0.00    -0.507 OA
ATOM     48  H   UNL     1       3.217  -0.529  28.061  0.00  0.00    +0.292 HD
ENDBRANCH   9  47
BRANCH  19  49
ATOM     49  O   UNL     1       5.401   2.105  25.245  0.00  0.00    -0.504 OA
ATOM     50  H   UNL     1       5.870   2.923  24.983  0.00  0.00    +0.292 HD
ENDBRANCH  19  49
TORSDOF 11
ENDMDL
MODEL 8
REMARK VINA RESULT:      -5.1      2.297      2.937
REMARK  Name = 
REMARK  18 active torsions:
REMARK  status: ('A' for Active; 'I' for Inactive)
REMARK    1  A    between atoms: C_5  and  N_43
REMARK    2  A    between atoms: C_7  and  N_8
REMARK    3  A    between atoms: C_9  and  C_11
REMARK    4  A    between atoms: C_11  and  N_12
REMARK    5  A    between atoms: N_12  and  C_13
REMARK    6  A    between atoms: C_13  and  C_14
REMARK    7  A    between atoms: C_13  and  C_15
REMARK    8  A    between atoms: C_13  and  C_16
REMARK    9  A    between atoms: C_17  and  O_18
REMARK   10  A    between atoms: C_23  and  O_24
REMARK   11  A    between atoms: C_25  and  O_26
REMARK   12  A    between atoms: C_29  and  C_30
REMARK   13  A    between atoms: C_33  and  O_34
REMARK   14  A    between atoms: C_35  and  N_37
REMARK   15  A    between atoms: N_37  and  C_38
REMARK   16  A    between atoms: N_37  and  C_39
REMARK   17  A    between atoms: N_43  and  C_44
REMARK   18  A    between atoms: N_43  and  C_45
REMARK                            x       y       z     vdW  Elec       q    Type
REMARK                         _______ _______ _______ _____ _____    ______ ____
ROOT
ATOM      1  C   UNL     1       4.633  -1.922  26.934  0.00  0.00    +0.031 C 
ATOM      2  C   UNL     1       3.434  -2.834  27.043  0.00  0.00    +0.018 C 
ATOM      3  C   UNL     1       3.676  -4.258  26.544  0.00  0.00    +0.061 C 
ATOM      4  C   UNL     1       4.324  -4.278  25.131  0.00  0.00    +0.190 C 
ATOM      5  C   UNL     1       3.355  -4.956  24.135  0.00  0.00    +0.211 C 
ATOM      6  C   UNL     1       2.642  -6.184  24.611  0.00  0.00    +0.121 C 
ATOM      7  C   UNL     1       1.828  -5.896  25.631  0.00  0.00    +0.127 C 
ATOM      8  O   UNL     1       3.080  -4.528  23.012  0.00  0.00    -0.288 OA
ATOM      9  C   UNL     1       4.948  -2.936  24.696  0.00  0.00    +0.141 C 
ATOM     10  C   UNL     1       2.256  -4.921  26.703  0.00  0.00    +0.129 C 
ATOM     11  C   UNL     1       5.091  -1.871  25.522  0.00  0.00    +0.044 C 
ATOM     12  C   UNL     1       5.781  -0.610  25.097  0.00  0.00    +0.197 C 
ATOM     13  O   UNL     1       6.203  -0.527  23.946  0.00  0.00    -0.287 OA
ATOM     14  C   UNL     1       5.861   0.534  26.079  0.00  0.00    +0.070 A 
ATOM     15  C   UNL     1       4.994   0.595  27.201  0.00  0.00    -0.011 A 
ATOM     16  C   UNL     1       4.921   1.746  28.034  0.00  0.00    +0.035 A 
ATOM     17  C   UNL     1       5.805   2.796  27.730  0.00  0.00    +0.050 A 
ATOM     18  C   UNL     1       6.679   2.752  26.637  0.00  0.00    +0.078 A 
ATOM     19  C   UNL     1       6.726   1.603  25.841  0.00  0.00    +0.149 A 
ATOM     20  C   UNL     1       4.145  -0.593  27.491  0.00  0.00    +0.046 C 
ENDROOT
BRANCH   6  21
ATOM     21  C   UNL     1       3.334  -7.476  24.891  0.00  0.00    +0.248 C 
ATOM     22  O   UNL     1       4.523  -7.668  24.668  0.00  0.00    -0.270 OA
ATOM     23  N   UNL     1       2.619  -8.461  25.486  0.00  0.00    -0.325 N 
ATOM     24  H   UNL     1       3.115  -9.330  25.637  0.00  0.00    +0.145 HD
ATOM     25  H   UNL     1       1.645  -8.397  25.742  0.00  0.00    +0.145 HD
ENDBRANCH   6  21
BRANCH  18  26
ATOM     26  N   UNL     1       7.453   3.911  26.391  0.00  0.00    -0.281 N 
ATOM     27  H   UNL     1       8.242   4.069  27.004  0.00  0.00    +0.155 HD
ATOM     28  C   UNL     1       6.945   5.028  25.737  0.00  0.00    +0.231 C 
ATOM     29  O   UNL     1       5.805   5.091  25.278  0.00  0.00    -0.274 OA
BRANCH  28  30
ATOM     30  C   UNL     1       7.942   6.193  25.645  0.00  0.00    +0.178 C 
BRANCH  30  31
ATOM     31  N   UNL     1       9.331   5.707  25.610  0.00  0.00    -0.303 NA
ATOM     32  H   UNL     1       9.413   4.821  26.108  0.00  0.00    +0.123 HD
BRANCH  31  33
ATOM     33  C   UNL     1       9.932   5.595  24.265  0.00  0.00    +0.011 C 
ATOM     34  C   UNL     1      11.377   6.123  24.234  0.00  0.00    +0.027 C 
ATOM     35  C   UNL     1       9.087   6.464  23.311  0.00  0.00    +0.027 C 
ATOM     36  C   UNL     1       9.897   4.147  23.745  0.00  0.00    +0.027 C 
ENDBRANCH  31  33
ENDBRANCH  30  31
ENDBRANCH  28  30
ENDBRANCH  18  26
BRANCH  10  37
ATOM     37  N   UNL     1       2.119  -5.354  28.113  0.00  0.00    -0.299 NA
ATOM     38  C   UNL     1       0.867  -4.918  28.725  0.00  0.00    +0.105 C 
ATOM     39  C   UNL     1       2.313  -6.788  28.335  0.00  0.00    +0.105 C 
ENDBRANCH  10  37
BRANCH  16  40
ATOM     40  N   UNL     1       4.006   1.933  29.071  0.00  0.00    -0.336 N 
ATOM     41  C   UNL     1       2.777   2.685  28.828  0.00  0.00    +0.129 C 
ATOM     42  C   UNL     1       4.306   1.713  30.485  0.00  0.00    +0.129 C 
ENDBRANCH  16  40
BRANCH   7  43
ATOM     43  O   UNL     1       0.443  -5.886  25.415  0.00  0.00    -0.509 OA
ATOM     44  H   UNL     1       0.017  -6.510  26.031  0.00  0.00    +0.292 HD
ENDBRANCH   7  43
BRANCH   4  45
ATOM     45  O   UNL     1       5.452  -5.188  25.149  0.00  0.00    -0.373 OA
ATOM     46  H   UNL     1       6.121  -4.768  24.568  0.00  0.00    +0.211 HD
ENDBRANCH   4  45
BRANCH   9  47
ATOM     47  O   UNL     1       5.520  -2.962  23.428  0.00  0.00    -0.507 OA
ATOM     48  H   UNL     1       4.820  -3.235  22.782  0.00  0.00    +0.292 HD
ENDBRANCH   9  47
BRANCH  19  49
ATOM     49  O   UNL     1       7.694   1.491  24.880  0.00  0.00    -0.504 OA
ATOM     50  H   UNL     1       8.532   1.382  25.374  0.00  0.00    +0.292 HD
ENDBRANCH  19  49
TORSDOF 11
ENDMDL
MODEL 9
REMARK VINA RESULT:      -5.1      1.634      2.117
REMARK  Name = 
REMARK  18 active torsions:
REMARK  status: ('A' for Active; 'I' for Inactive)
REMARK    1  A    between atoms: C_5  and  N_43
REMARK    2  A    between atoms: C_7  and  N_8
REMARK    3  A    between atoms: C_9  and  C_11
REMARK    4  A    between atoms: C_11  and  N_12
REMARK    5  A    between atoms: N_12  and  C_13
REMARK    6  A    between atoms: C_13  and  C_14
REMARK    7  A    between atoms: C_13  and  C_15
REMARK    8  A    between atoms: C_13  and  C_16
REMARK    9  A    between atoms: C_17  and  O_18
REMARK   10  A    between atoms: C_23  and  O_24
REMARK   11  A    between atoms: C_25  and  O_26
REMARK   12  A    between atoms: C_29  and  C_30
REMARK   13  A    between atoms: C_33  and  O_34
REMARK   14  A    between atoms: C_35  and  N_37
REMARK   15  A    between atoms: N_37  and  C_38
REMARK   16  A    between atoms: N_37  and  C_39
REMARK   17  A    between atoms: N_43  and  C_44
REMARK   18  A    between atoms: N_43  and  C_45
REMARK                            x       y       z     vdW  Elec       q    Type
REMARK                         _______ _______ _______ _____ _____    ______ ____
ROOT
ATOM      1  C   UNL     1       4.441  -1.228  27.613  0.00  0.00    +0.031 C 
ATOM      2  C   UNL     1       3.430  -2.348  27.556  0.00  0.00    +0.018 C 
ATOM      3  C   UNL     1       3.952  -3.696  28.054  0.00  0.00    +0.061 C 
ATOM      4  C   UNL     1       5.310  -4.073  27.397  0.00  0.00    +0.190 C 
ATOM      5  C   UNL     1       5.132  -5.362  26.562  0.00  0.00    +0.211 C 
ATOM      6  C   UNL     1       4.303  -6.453  27.166  0.00  0.00    +0.121 C 
ATOM      7  C   UNL     1       3.038  -6.056  27.328  0.00  0.00    +0.127 C 
ATOM      8  O   UNL     1       5.563  -5.531  25.420  0.00  0.00    -0.288 OA
ATOM      9  C   UNL     1       6.040  -2.895  26.718  0.00  0.00    +0.141 C 
ATOM     10  C   UNL     1       2.728  -4.653  27.795  0.00  0.00    +0.129 C 
ATOM     11  C   UNL     1       5.643  -1.604  26.825  0.00  0.00    +0.044 C 
ATOM     12  C   UNL     1       6.422  -0.471  26.229  0.00  0.00    +0.197 C 
ATOM     13  O   UNL     1       7.441  -0.727  25.591  0.00  0.00    -0.287 OA
ATOM     14  C   UNL     1       5.882   0.931  26.372  0.00  0.00    +0.070 A 
ATOM     15  C   UNL     1       4.518   1.157  26.695  0.00  0.00    -0.011 A 
ATOM     16  C   UNL     1       3.941   2.457  26.655  0.00  0.00    +0.035 A 
ATOM     17  C   UNL     1       4.810   3.519  26.347  0.00  0.00    +0.050 A 
ATOM     18  C   UNL     1       6.162   3.321  26.040  0.00  0.00    +0.078 A 
ATOM     19  C   UNL     1       6.695   2.029  26.091  0.00  0.00    +0.149 A 
ATOM     20  C   UNL     1       3.688  -0.017  27.081  0.00  0.00    +0.046 C 
ENDROOT
BRANCH   6  21
ATOM     21  C   UNL     1       4.725  -7.233  28.367  0.00  0.00    +0.248 C 
ATOM     22  O   UNL     1       5.894  -7.482  28.635  0.00  0.00    -0.270 OA
ATOM     23  N   UNL     1       3.764  -7.623  29.238  0.00  0.00    -0.325 N 
ATOM     24  H   UNL     1       4.086  -8.170  30.026  0.00  0.00    +0.145 HD
ATOM     25  H   UNL     1       2.777  -7.443  29.131  0.00  0.00    +0.145 HD
ENDBRANCH   6  21
BRANCH  18  26
ATOM     26  N   UNL     1       6.905   4.464  25.662  0.00  0.00    -0.281 N 
ATOM     27  H   UNL     1       7.232   4.497  24.704  0.00  0.00    +0.155 HD
ATOM     28  C   UNL     1       7.598   5.246  26.578  0.00  0.00    +0.231 C 
ATOM     29  O   UNL     1       7.589   5.044  27.792  0.00  0.00    -0.274 OA
BRANCH  28  30
ATOM     30  C   UNL     1       8.391   6.393  25.933  0.00  0.00    +0.178 C 
BRANCH  30  31
ATOM     31  N   UNL     1       9.756   5.967  25.582  0.00  0.00    -0.303 NA
ATOM     32  H   UNL     1      10.050   5.188  26.170  0.00  0.00    +0.123 HD
BRANCH  31  33
ATOM     33  C   UNL     1       9.974   5.643  24.157  0.00  0.00    +0.011 C 
ATOM     34  C   UNL     1       9.799   4.141  23.874  0.00  0.00    +0.027 C 
ATOM     35  C   UNL     1      11.429   6.027  23.816  0.00  0.00    +0.027 C 
ATOM     36  C   UNL     1       9.042   6.456  23.241  0.00  0.00    +0.027 C 
ENDBRANCH  31  33
ENDBRANCH  30  31
ENDBRANCH  28  30
ENDBRANCH  18  26
BRANCH  10  37
ATOM     37  N   UNL     1       1.794  -4.504  28.935  0.00  0.00    -0.299 NA
ATOM     38  C   UNL     1       2.465  -4.142  30.180  0.00  0.00    +0.105 C 
ATOM     39  C   UNL     1       0.668  -3.601  28.691  0.00  0.00    +0.105 C 
ENDBRANCH  10  37
BRANCH  16  40
ATOM     40  N   UNL     1       2.587   2.743  26.829  0.00  0.00    -0.336 N 
ATOM     41  C   UNL     1       1.710   2.846  25.664  0.00  0.00    +0.129 C 
ATOM     42  C   UNL     1       2.006   3.267  28.065  0.00  0.00    +0.129 C 
ENDBRANCH  16  40
BRANCH   7  43
ATOM     43  O   UNL     1       2.049  -6.573  26.481  0.00  0.00    -0.509 OA
ATOM     44  H   UNL     1       1.627  -7.341  26.910  0.00  0.00    +0.292 HD
ENDBRANCH   7  43
BRANCH   4  45
ATOM     45  O   UNL     1       6.229  -4.490  28.436  0.00  0.00    -0.373 OA
ATOM     46  H   UNL     1       5.960  -3.980  29.229  0.00  0.00    +0.211 HD
ENDBRANCH   4  45
BRANCH   9  47
ATOM     47  O   UNL     1       7.252  -3.244  26.129  0.00  0.00    -0.507 OA
ATOM     48  H   UNL     1       7.971  -2.740  26.588  0.00  0.00    +0.292 HD
ENDBRANCH   9  47
BRANCH  19  49
ATOM     49  O   UNL     1       8.046   1.855  25.959  0.00  0.00    -0.504 OA
ATOM     50  H   UNL     1       8.212   1.866  24.994  0.00  0.00    +0.292 HD
ENDBRANCH  19  49
TORSDOF 11
ENDMDL
