MODEL 1
REMARK VINA RESULT:      -5.8      0.000      0.000
REMARK  Name = 
REMARK  7 active torsions:
REMARK  status: ('A' for Active; 'I' for Inactive)
REMARK    1  A    between atoms: N_9  and  C_10
REMARK    2  A    between atoms: C_10  and  C_11
REMARK    3  A    between atoms: C_11  and  C_12
REMARK    4  A    between atoms: C_12  and  C_13
REMARK    5  A    between atoms: C_12  and  C_15
REMARK    6  A    between atoms: C_13  and  O_14
REMARK    7  A    between atoms: C_15  and  O_16
REMARK                            x       y       z     vdW  Elec       q    Type
REMARK                         _______ _______ _______ _____ _____    ______ ____
ROOT
ATOM      1  N   UNL     1       9.974  -5.583  25.606  0.00  0.00    -0.329 N 
ATOM      2  H   UNL     1      10.007  -5.328  26.585  0.00  0.00    +0.145 HD
ATOM      3  H   UNL     1       9.804  -6.577  25.478  0.00  0.00    +0.145 HD
ATOM      4  C   UNL     1       9.158  -4.842  24.813  0.00  0.00    +0.195 A 
ATOM      5  N   UNL     1       9.190  -3.498  25.104  0.00  0.00    -0.312 N 
ATOM      6  H   UNL     1       9.828  -3.161  25.817  0.00  0.00    +0.170 HD
ATOM      7  C   UNL     1       8.460  -2.699  24.314  0.00  0.00    +0.146 A 
ATOM      8  N   UNL     1       8.312  -1.349  24.312  0.00  0.00    -0.316 N 
ATOM      9  C   UNL     1       7.475  -1.061  23.258  0.00  0.00    +0.201 A 
ATOM     10  N   UNL     1       7.057  -2.150  22.642  0.00  0.00    -0.229 NA
ATOM     11  C   UNL     1       7.687  -3.189  23.292  0.00  0.00    +0.172 A 
ATOM     12  C   UNL     1       7.640  -4.636  23.047  0.00  0.00    +0.302 A 
ATOM     13  O   UNL     1       6.929  -5.133  22.181  0.00  0.00    -0.263 OA
ATOM     14  N   UNL     1       8.459  -5.409  23.880  0.00  0.00    -0.176 NA
ENDROOT
BRANCH   8  15
ATOM     15  C   UNL     1       8.911  -0.370  25.192  0.00  0.00    +0.125 C 
BRANCH  15  16
ATOM     16  C   UNL     1      10.280   0.146  24.729  0.00  0.00    +0.029 C 
BRANCH  16  17
ATOM     17  C   UNL     1      10.299   1.445  23.890  0.00  0.00    +0.042 C 
BRANCH  17  18
ATOM     18  C   UNL     1       9.203   2.387  24.416  0.00  0.00    +0.161 C 
BRANCH  18  19
ATOM     19  O   UNL     1       8.123   2.476  23.499  0.00  0.00    -0.395 OA
ATOM     20  H   UNL     1       8.461   2.252  22.614  0.00  0.00    +0.209 HD
ENDBRANCH  18  19
ENDBRANCH  17  18
BRANCH  17  21
ATOM     21  C   UNL     1      10.104   1.207  22.385  0.00  0.00    +0.161 C 
BRANCH  21  22
ATOM     22  O   UNL     1      10.242   2.416  21.647  0.00  0.00    -0.395 OA
ATOM     23  H   UNL     1      11.038   2.313  21.091  0.00  0.00    +0.209 HD
ENDBRANCH  21  22
ENDBRANCH  17  21
ENDBRANCH  16  17
ENDBRANCH  15  16
ENDBRANCH   8  15
TORSDOF 7
ENDMDL
MODEL 2
REMARK VINA RESULT:      -5.8      1.908      2.107
REMARK  Name = 
REMARK  7 active torsions:
REMARK  status: ('A' for Active; 'I' for Inactive)
REMARK    1  A    between atoms: N_9  and  C_10
REMARK    2  A    between atoms: C_10  and  C_11
REMARK    3  A    between atoms: C_11  and  C_12
REMARK    4  A    between atoms: C_12  and  C_13
REMARK    5  A    between atoms: C_12  and  C_15
REMARK    6  A    between atoms: C_13  and  O_14
REMARK    7  A    between atoms: C_15  and  O_16
REMARK                            x       y       z     vdW  Elec       q    Type
REMARK                         _______ _______ _______ _____ _____    ______ ____
ROOT
ATOM      1  N   UNL     1       7.939  -5.786  27.126  0.00  0.00    -0.329 N 
ATOM      2  H   UNL     1       8.415  -5.153  27.757  0.00  0.00    +0.145 HD
ATOM      3  H   UNL     1       7.214  -6.318  27.599  0.00  0.00    +0.145 HD
ATOM      4  C   UNL     1       7.478  -5.253  25.966  0.00  0.00    +0.195 A 
ATOM      5  N   UNL     1       8.345  -4.348  25.400  0.00  0.00    -0.312 N 
ATOM      6  H   UNL     1       9.247  -4.188  25.835  0.00  0.00    +0.170 HD
ATOM      7  C   UNL     1       7.983  -3.835  24.216  0.00  0.00    +0.146 A 
ATOM      8  N   UNL     1       8.623  -2.965  23.393  0.00  0.00    -0.316 N 
ATOM      9  C   UNL     1       7.810  -2.815  22.293  0.00  0.00    +0.201 A 
ATOM     10  N   UNL     1       6.687  -3.498  22.407  0.00  0.00    -0.229 NA
ATOM     11  C   UNL     1       6.795  -4.158  23.612  0.00  0.00    +0.172 A 
ATOM     12  C   UNL     1       5.872  -5.090  24.274  0.00  0.00    +0.302 A 
ATOM     13  O   UNL     1       4.776  -5.375  23.805  0.00  0.00    -0.263 OA
ATOM     14  N   UNL     1       6.331  -5.621  25.486  0.00  0.00    -0.176 NA
ENDROOT
BRANCH   8  15
ATOM     15  C   UNL     1       9.907  -2.323  23.575  0.00  0.00    +0.125 C 
BRANCH  15  16
ATOM     16  C   UNL     1      10.254  -1.283  22.501  0.00  0.00    +0.029 C 
BRANCH  16  17
ATOM     17  C   UNL     1      10.264   0.203  22.933  0.00  0.00    +0.042 C 
BRANCH  17  18
ATOM     18  C   UNL     1       9.687   0.305  24.356  0.00  0.00    +0.161 C 
BRANCH  18  19
ATOM     19  O   UNL     1      10.695   0.664  25.289  0.00  0.00    -0.395 OA
ATOM     20  H   UNL     1      10.330   1.348  25.878  0.00  0.00    +0.209 HD
ENDBRANCH  18  19
ENDBRANCH  17  18
BRANCH  17  21
ATOM     21  C   UNL     1       9.481   1.124  21.986  0.00  0.00    +0.161 C 
BRANCH  21  22
ATOM     22  O   UNL     1      10.280   2.218  21.551  0.00  0.00    -0.395 OA
ATOM     23  H   UNL     1      11.190   2.034  21.853  0.00  0.00    +0.209 HD
ENDBRANCH  21  22
ENDBRANCH  17  21
ENDBRANCH  16  17
ENDBRANCH  15  16
ENDBRANCH   8  15
TORSDOF 7
ENDMDL
MODEL 3
REMARK VINA RESULT:      -5.8      3.086      4.135
REMARK  Name = 
REMARK  7 active torsions:
REMARK  status: ('A' for Active; 'I' for Inactive)
REMARK    1  A    between atoms: N_9  and  C_10
REMARK    2  A    between atoms: C_10  and  C_11
REMARK    3  A    between atoms: C_11  and  C_12
REMARK    4  A    between atoms: C_12  and  C_13
REMARK    5  A    between atoms: C_12  and  C_15
REMARK    6  A    between atoms: C_13  and  O_14
REMARK    7  A    between atoms: C_15  and  O_16
REMARK                            x       y       z     vdW  Elec       q    Type
REMARK                         _______ _______ _______ _____ _____    ______ ____
ROOT
ATOM      1  N   UNL     1       9.058  -0.488  27.269  0.00  0.00    -0.329 N 
ATOM      2  H   UNL     1       8.608   0.313  27.694  0.00  0.00    +0.145 HD
ATOM      3  H   UNL     1       8.694  -1.364  27.634  0.00  0.00    +0.145 HD
ATOM      4  C   UNL     1       9.110  -0.506  25.913  0.00  0.00    +0.195 A 
ATOM      5  N   UNL     1       9.383   0.725  25.362  0.00  0.00    -0.312 N 
ATOM      6  H   UNL     1       9.572   1.510  25.975  0.00  0.00    +0.170 HD
ATOM      7  C   UNL     1       9.517   0.765  24.029  0.00  0.00    +0.146 A 
ATOM      8  N   UNL     1       9.820   1.796  23.199  0.00  0.00    -0.316 N 
ATOM      9  C   UNL     1       9.864   1.262  21.931  0.00  0.00    +0.201 A 
ATOM     10  N   UNL     1       9.557  -0.021  21.921  0.00  0.00    -0.229 NA
ATOM     11  C   UNL     1       9.352  -0.347  23.243  0.00  0.00    +0.172 A 
ATOM     12  C   UNL     1       9.009  -1.632  23.866  0.00  0.00    +0.302 A 
ATOM     13  O   UNL     1       8.801  -2.646  23.210  0.00  0.00    -0.263 OA
ATOM     14  N   UNL     1       8.927  -1.614  25.265  0.00  0.00    -0.176 NA
ENDROOT
BRANCH   8  15
ATOM     15  C   UNL     1      10.082   3.180  23.531  0.00  0.00    +0.125 C 
BRANCH  15  16
ATOM     16  C   UNL     1      11.540   3.615  23.330  0.00  0.00    +0.029 C 
BRANCH  16  17
ATOM     17  C   UNL     1      11.892   5.084  23.665  0.00  0.00    +0.042 C 
BRANCH  17  18
ATOM     18  C   UNL     1      10.622   5.939  23.521  0.00  0.00    +0.161 C 
BRANCH  18  19
ATOM     19  O   UNL     1      10.242   6.501  24.769  0.00  0.00    -0.395 OA
ATOM     20  H   UNL     1       9.656   7.257  24.592  0.00  0.00    +0.209 HD
ENDBRANCH  18  19
ENDBRANCH  17  18
BRANCH  17  21
ATOM     21  C   UNL     1      13.013   5.663  22.789  0.00  0.00    +0.161 C 
BRANCH  21  22
ATOM     22  O   UNL     1      14.272   5.080  23.107  0.00  0.00    -0.395 OA
ATOM     23  H   UNL     1      14.667   5.637  23.805  0.00  0.00    +0.209 HD
ENDBRANCH  21  22
ENDBRANCH  17  21
ENDBRANCH  16  17
ENDBRANCH  15  16
ENDBRANCH   8  15
TORSDOF 7
ENDMDL
MODEL 4
REMARK VINA RESULT:      -5.8      1.606      2.065
REMARK  Name = 
REMARK  7 active torsions:
REMARK  status: ('A' for Active; 'I' for Inactive)
REMARK    1  A    between atoms: N_9  and  C_10
REMARK    2  A    between atoms: C_10  and  C_11
REMARK    3  A    between atoms: C_11  and  C_12
REMARK    4  A    between atoms: C_12  and  C_13
REMARK    5  A    between atoms: C_12  and  C_15
REMARK    6  A    between atoms: C_13  and  O_14
REMARK    7  A    between atoms: C_15  and  O_16
REMARK                            x       y       z     vdW  Elec       q    Type
REMARK                         _______ _______ _______ _____ _____    ______ ____
ROOT
ATOM      1  N   UNL     1      10.003  -5.285  26.276  0.00  0.00    -0.329 N 
ATOM      2  H   UNL     1      10.626  -4.629  26.731  0.00  0.00    +0.145 HD
ATOM      3  H   UNL     1       9.562  -5.913  26.941  0.00  0.00    +0.145 HD
ATOM      4  C   UNL     1       9.091  -4.759  25.419  0.00  0.00    +0.195 A 
ATOM      5  N   UNL     1       9.594  -3.739  24.645  0.00  0.00    -0.312 N 
ATOM      6  H   UNL     1      10.576  -3.498  24.722  0.00  0.00    +0.170 HD
ATOM      7  C   UNL     1       8.765  -3.221  23.728  0.00  0.00    +0.146 A 
ATOM      8  N   UNL     1       8.964  -2.251  22.799  0.00  0.00    -0.316 N 
ATOM      9  C   UNL     1       7.784  -2.148  22.099  0.00  0.00    +0.201 A 
ATOM     10  N   UNL     1       6.853  -2.956  22.570  0.00  0.00    -0.229 NA
ATOM     11  C   UNL     1       7.469  -3.649  23.589  0.00  0.00    +0.172 A 
ATOM     12  C   UNL     1       6.954  -4.705  24.472  0.00  0.00    +0.302 A 
ATOM     13  O   UNL     1       5.791  -5.091  24.425  0.00  0.00    -0.263 OA
ATOM     14  N   UNL     1       7.884  -5.232  25.376  0.00  0.00    -0.176 NA
ENDROOT
BRANCH   8  15
ATOM     15  C   UNL     1      10.159  -1.478  22.538  0.00  0.00    +0.125 C 
BRANCH  15  16
ATOM     16  C   UNL     1       9.903   0.006  22.243  0.00  0.00    +0.029 C 
BRANCH  16  17
ATOM     17  C   UNL     1       9.830   0.965  23.455  0.00  0.00    +0.042 C 
BRANCH  17  18
ATOM     18  C   UNL     1      10.113   2.396  22.967  0.00  0.00    +0.161 C 
BRANCH  18  19
ATOM     19  O   UNL     1      10.377   2.415  21.572  0.00  0.00    -0.395 OA
ATOM     20  H   UNL     1      11.341   2.448  21.449  0.00  0.00    +0.209 HD
ENDBRANCH  18  19
ENDBRANCH  17  18
BRANCH  17  21
ATOM     21  C   UNL     1      10.802   0.599  24.588  0.00  0.00    +0.161 C 
BRANCH  21  22
ATOM     22  O   UNL     1      10.102   0.214  25.765  0.00  0.00    -0.395 OA
ATOM     23  H   UNL     1       9.229   0.650  25.723  0.00  0.00    +0.209 HD
ENDBRANCH  21  22
ENDBRANCH  17  21
ENDBRANCH  16  17
ENDBRANCH  15  16
ENDBRANCH   8  15
TORSDOF 7
ENDMDL
MODEL 5
REMARK VINA RESULT:      -5.7      2.617      6.355
REMARK  Name = 
REMARK  7 active torsions:
REMARK  status: ('A' for Active; 'I' for Inactive)
REMARK    1  A    between atoms: N_9  and  C_10
REMARK    2  A    between atoms: C_10  and  C_11
REMARK    3  A    between atoms: C_11  and  C_12
REMARK    4  A    between atoms: C_12  and  C_13
REMARK    5  A    between atoms: C_12  and  C_15
REMARK    6  A    between atoms: C_13  and  O_14
REMARK    7  A    between atoms: C_15  and  O_16
REMARK                            x       y       z     vdW  Elec       q    Type
REMARK                         _______ _______ _______ _____ _____    ______ ____
ROOT
ATOM      1  N   UNL     1       5.662   1.989  22.607  0.00  0.00    -0.329 N 
ATOM      2  H   UNL     1       5.058   1.805  23.399  0.00  0.00    +0.145 HD
ATOM      3  H   UNL     1       5.789   2.985  22.450  0.00  0.00    +0.145 HD
ATOM      4  C   UNL     1       6.851   1.334  22.586  0.00  0.00    +0.195 A 
ATOM      5  N   UNL     1       6.761   0.028  23.010  0.00  0.00    -0.312 N 
ATOM      6  H   UNL     1       5.852  -0.354  23.245  0.00  0.00    +0.170 HD
ATOM      7  C   UNL     1       7.886  -0.697  22.949  0.00  0.00    +0.146 A 
ATOM      8  N   UNL     1       8.118  -2.001  23.250  0.00  0.00    -0.316 N 
ATOM      9  C   UNL     1       9.445  -2.226  22.964  0.00  0.00    +0.201 A 
ATOM     10  N   UNL     1      10.058  -1.132  22.555  0.00  0.00    -0.229 NA
ATOM     11  C   UNL     1       9.078  -0.166  22.527  0.00  0.00    +0.172 A 
ATOM     12  C   UNL     1       9.143   1.248  22.132  0.00  0.00    +0.302 A 
ATOM     13  O   UNL     1      10.190   1.789  21.795  0.00  0.00    -0.263 OA
ATOM     14  N   UNL     1       7.924   1.937  22.178  0.00  0.00    -0.176 NA
ENDROOT
BRANCH   8  15
ATOM     15  C   UNL     1       7.190  -2.997  23.742  0.00  0.00    +0.125 C 
BRANCH  15  16
ATOM     16  C   UNL     1       7.857  -4.247  24.334  0.00  0.00    +0.029 C 
BRANCH  16  17
ATOM     17  C   UNL     1       8.238  -4.202  25.832  0.00  0.00    +0.042 C 
BRANCH  17  18
ATOM     18  C   UNL     1       9.645  -4.802  25.999  0.00  0.00    +0.161 C 
BRANCH  18  19
ATOM     19  O   UNL     1       9.827  -5.920  25.144  0.00  0.00    -0.395 OA
ATOM     20  H   UNL     1       9.187  -5.849  24.415  0.00  0.00    +0.209 HD
ENDBRANCH  18  19
ENDBRANCH  17  18
BRANCH  17  21
ATOM     21  C   UNL     1       7.245  -4.941  26.742  0.00  0.00    +0.161 C 
BRANCH  21  22
ATOM     22  O   UNL     1       7.899  -5.930  27.527  0.00  0.00    -0.395 OA
ATOM     23  H   UNL     1       8.801  -5.597  27.697  0.00  0.00    +0.209 HD
ENDBRANCH  21  22
ENDBRANCH  17  21
ENDBRANCH  16  17
ENDBRANCH  15  16
ENDBRANCH   8  15
TORSDOF 7
ENDMDL
MODEL 6
REMARK VINA RESULT:      -5.6      2.756      4.316
REMARK  Name = 
REMARK  7 active torsions:
REMARK  status: ('A' for Active; 'I' for Inactive)
REMARK    1  A    between atoms: N_9  and  C_10
REMARK    2  A    between atoms: C_10  and  C_11
REMARK    3  A    between atoms: C_11  and  C_12
REMARK    4  A    between atoms: C_12  and  C_13
REMARK    5  A    between atoms: C_12  and  C_15
REMARK    6  A    between atoms: C_13  and  O_14
REMARK    7  A    between atoms: C_15  and  O_16
REMARK                            x       y       z     vdW  Elec       q    Type
REMARK                         _______ _______ _______ _____ _____    ______ ____
ROOT
ATOM      1  N   UNL     1       4.788  -5.314  22.797  0.00  0.00    -0.329 N 
ATOM      2  H   UNL     1       5.306  -5.395  21.930  0.00  0.00    +0.145 HD
ATOM      3  H   UNL     1       3.980  -5.930  22.814  0.00  0.00    +0.145 HD
ATOM      4  C   UNL     1       5.506  -5.416  23.944  0.00  0.00    +0.195 A 
ATOM      5  N   UNL     1       6.722  -4.775  23.885  0.00  0.00    -0.312 N 
ATOM      6  H   UNL     1       6.964  -4.250  23.052  0.00  0.00    +0.170 HD
ATOM      7  C   UNL     1       7.453  -4.778  25.008  0.00  0.00    +0.146 A 
ATOM      8  N   UNL     1       8.655  -4.210  25.285  0.00  0.00    -0.316 N 
ATOM      9  C   UNL     1       8.915  -4.498  26.605  0.00  0.00    +0.201 A 
ATOM     10  N   UNL     1       7.975  -5.249  27.146  0.00  0.00    -0.229 NA
ATOM     11  C   UNL     1       7.039  -5.417  26.149  0.00  0.00    +0.172 A 
ATOM     12  C   UNL     1       5.757  -6.135  26.155  0.00  0.00    +0.302 A 
ATOM     13  O   UNL     1       5.362  -6.765  27.129  0.00  0.00    -0.263 OA
ATOM     14  N   UNL     1       5.024  -6.056  24.964  0.00  0.00    -0.176 NA
ENDROOT
BRANCH   8  15
ATOM     15  C   UNL     1       9.511  -3.431  24.417  0.00  0.00    +0.125 C 
BRANCH  15  16
ATOM     16  C   UNL     1       8.988  -2.020  24.112  0.00  0.00    +0.029 C 
BRANCH  16  17
ATOM     17  C   UNL     1       8.235  -1.820  22.775  0.00  0.00    +0.042 C 
BRANCH  17  18
ATOM     18  C   UNL     1       9.068  -0.891  21.876  0.00  0.00    +0.161 C 
BRANCH  18  19
ATOM     19  O   UNL     1      10.273  -1.521  21.470  0.00  0.00    -0.395 OA
ATOM     20  H   UNL     1      10.967  -1.284  22.110  0.00  0.00    +0.209 HD
ENDBRANCH  18  19
ENDBRANCH  17  18
BRANCH  17  21
ATOM     21  C   UNL     1       6.819  -1.248  22.947  0.00  0.00    +0.161 C 
BRANCH  21  22
ATOM     22  O   UNL     1       5.829  -2.193  22.558  0.00  0.00    -0.395 OA
ATOM     23  H   UNL     1       6.307  -2.954  22.177  0.00  0.00    +0.209 HD
ENDBRANCH  21  22
ENDBRANCH  17  21
ENDBRANCH  16  17
ENDBRANCH  15  16
ENDBRANCH   8  15
TORSDOF 7
ENDMDL
MODEL 7
REMARK VINA RESULT:      -5.4      2.666      6.308
REMARK  Name = 
REMARK  7 active torsions:
REMARK  status: ('A' for Active; 'I' for Inactive)
REMARK    1  A    between atoms: N_9  and  C_10
REMARK    2  A    between atoms: C_10  and  C_11
REMARK    3  A    between atoms: C_11  and  C_12
REMARK    4  A    between atoms: C_12  and  C_13
REMARK    5  A    between atoms: C_12  and  C_15
REMARK    6  A    between atoms: C_13  and  O_14
REMARK    7  A    between atoms: C_15  and  O_16
REMARK                            x       y       z     vdW  Elec       q    Type
REMARK                         _______ _______ _______ _____ _____    ______ ____
ROOT
ATOM      1  N   UNL     1       6.442  -0.165  23.019  0.00  0.00    -0.329 N 
ATOM      2  H   UNL     1       5.900   0.173  23.806  0.00  0.00    +0.145 HD
ATOM      3  H   UNL     1       6.772   0.595  22.431  0.00  0.00    +0.145 HD
ATOM      4  C   UNL     1       7.443  -1.036  23.303  0.00  0.00    +0.195 A 
ATOM      5  N   UNL     1       7.109  -1.956  24.269  0.00  0.00    -0.312 N 
ATOM      6  H   UNL     1       6.167  -1.957  24.645  0.00  0.00    +0.170 HD
ATOM      7  C   UNL     1       8.029  -2.890  24.548  0.00  0.00    +0.146 A 
ATOM      8  N   UNL     1       7.992  -3.943  25.404  0.00  0.00    -0.316 N 
ATOM      9  C   UNL     1       9.197  -4.592  25.258  0.00  0.00    +0.201 A 
ATOM     10  N   UNL     1       9.993  -3.979  24.404  0.00  0.00    -0.229 NA
ATOM     11  C   UNL     1       9.257  -2.911  23.938  0.00  0.00    +0.172 A 
ATOM     12  C   UNL     1       9.595  -1.879  22.949  0.00  0.00    +0.302 A 
ATOM     13  O   UNL     1      10.695  -1.820  22.411  0.00  0.00    -0.263 OA
ATOM     14  N   UNL     1       8.575  -0.960  22.673  0.00  0.00    -0.176 NA
ENDROOT
BRANCH   8  15
ATOM     15  C   UNL     1       6.923  -4.357  26.287  0.00  0.00    +0.125 C 
BRANCH  15  16
ATOM     16  C   UNL     1       6.188  -5.628  25.840  0.00  0.00    +0.029 C 
BRANCH  16  17
ATOM     17  C   UNL     1       4.946  -5.446  24.936  0.00  0.00    +0.042 C 
BRANCH  17  18
ATOM     18  C   UNL     1       4.051  -6.689  25.075  0.00  0.00    +0.161 C 
BRANCH  18  19
ATOM     19  O   UNL     1       4.335  -7.638  24.057  0.00  0.00    -0.395 OA
ATOM     20  H   UNL     1       3.596  -8.270  24.020  0.00  0.00    +0.209 HD
ENDBRANCH  18  19
ENDBRANCH  17  18
BRANCH  17  21
ATOM     21  C   UNL     1       5.291  -5.213  23.457  0.00  0.00    +0.161 C 
BRANCH  21  22
ATOM     22  O   UNL     1       4.116  -5.132  22.659  0.00  0.00    -0.395 OA
ATOM     23  H   UNL     1       3.718  -6.024  22.660  0.00  0.00    +0.209 HD
ENDBRANCH  21  22
ENDBRANCH  17  21
ENDBRANCH  16  17
ENDBRANCH  15  16
ENDBRANCH   8  15
TORSDOF 7
ENDMDL
MODEL 8
REMARK VINA RESULT:      -5.4      2.230      3.226
REMARK  Name = 
REMARK  7 active torsions:
REMARK  status: ('A' for Active; 'I' for Inactive)
REMARK    1  A    between atoms: N_9  and  C_10
REMARK    2  A    between atoms: C_10  and  C_11
REMARK    3  A    between atoms: C_11  and  C_12
REMARK    4  A    between atoms: C_12  and  C_13
REMARK    5  A    between atoms: C_12  and  C_15
REMARK    6  A    between atoms: C_13  and  O_14
REMARK    7  A    between atoms: C_15  and  O_16
REMARK                            x       y       z     vdW  Elec       q    Type
REMARK                         _______ _______ _______ _____ _____    ______ ____
ROOT
ATOM      1  N   UNL     1       4.563  -5.318  22.950  0.00  0.00    -0.329 N 
ATOM      2  H   UNL     1       4.683  -5.399  21.948  0.00  0.00    +0.145 HD
ATOM      3  H   UNL     1       4.047  -6.104  23.335  0.00  0.00    +0.145 HD
ATOM      4  C   UNL     1       5.682  -5.063  23.675  0.00  0.00    +0.195 A 
ATOM      5  N   UNL     1       6.527  -4.159  23.075  0.00  0.00    -0.312 N 
ATOM      6  H   UNL     1       6.247  -3.724  22.203  0.00  0.00    +0.170 HD
ATOM      7  C   UNL     1       7.618  -3.810  23.769  0.00  0.00    +0.146 A 
ATOM      8  N   UNL     1       8.610  -2.928  23.479  0.00  0.00    -0.316 N 
ATOM      9  C   UNL     1       9.455  -2.938  24.565  0.00  0.00    +0.201 A 
ATOM     10  N   UNL     1       9.077  -3.806  25.484  0.00  0.00    -0.229 NA
ATOM     11  C   UNL     1       7.908  -4.350  24.996  0.00  0.00    +0.172 A 
ATOM     12  C   UNL     1       7.007  -5.352  25.580  0.00  0.00    +0.302 A 
ATOM     13  O   UNL     1       7.242  -5.904  26.649  0.00  0.00    -0.263 OA
ATOM     14  N   UNL     1       5.864  -5.639  24.823  0.00  0.00    -0.176 NA
ENDROOT
BRANCH   8  15
ATOM     15  C   UNL     1       8.774  -2.103  22.302  0.00  0.00    +0.125 C 
BRANCH  15  16
ATOM     16  C   UNL     1       9.905  -1.071  22.404  0.00  0.00    +0.029 C 
BRANCH  16  17
ATOM     17  C   UNL     1       9.534   0.336  22.930  0.00  0.00    +0.042 C 
BRANCH  17  18
ATOM     18  C   UNL     1       9.274   1.258  21.727  0.00  0.00    +0.161 C 
BRANCH  18  19
ATOM     19  O   UNL     1      10.264   2.272  21.639  0.00  0.00    -0.395 OA
ATOM     20  H   UNL     1      10.764   2.277  22.473  0.00  0.00    +0.209 HD
ENDBRANCH  18  19
ENDBRANCH  17  18
BRANCH  17  21
ATOM     21  C   UNL     1      10.606   0.954  23.840  0.00  0.00    +0.161 C 
BRANCH  21  22
ATOM     22  O   UNL     1      10.463   0.510  25.184  0.00  0.00    -0.395 OA
ATOM     23  H   UNL     1       9.733  -0.138  25.186  0.00  0.00    +0.209 HD
ENDBRANCH  21  22
ENDBRANCH  17  21
ENDBRANCH  16  17
ENDBRANCH  15  16
ENDBRANCH   8  15
TORSDOF 7
ENDMDL
MODEL 9
REMARK VINA RESULT:      -5.4      1.880      2.699
REMARK  Name = 
REMARK  7 active torsions:
REMARK  status: ('A' for Active; 'I' for Inactive)
REMARK    1  A    between atoms: N_9  and  C_10
REMARK    2  A    between atoms: C_10  and  C_11
REMARK    3  A    between atoms: C_11  and  C_12
REMARK    4  A    between atoms: C_12  and  C_13
REMARK    5  A    between atoms: C_12  and  C_15
REMARK    6  A    between atoms: C_13  and  O_14
REMARK    7  A    between atoms: C_15  and  O_16
REMARK                            x       y       z     vdW  Elec       q    Type
REMARK                         _______ _______ _______ _____ _____    ______ ____
ROOT
ATOM      1  N   UNL     1       6.246  -5.377  21.073  0.00  0.00    -0.329 N 
ATOM      2  H   UNL     1       6.991  -5.405  20.387  0.00  0.00    +0.145 HD
ATOM      3  H   UNL     1       5.676  -6.217  21.048  0.00  0.00    +0.145 HD
ATOM      4  C   UNL     1       6.605  -5.065  22.344  0.00  0.00    +0.195 A 
ATOM      5  N   UNL     1       7.553  -4.070  22.415  0.00  0.00    -0.312 N 
ATOM      6  H   UNL     1       7.864  -3.622  21.560  0.00  0.00    +0.170 HD
ATOM      7  C   UNL     1       7.902  -3.665  23.643  0.00  0.00    +0.146 A 
ATOM      8  N   UNL     1       8.763  -2.695  24.046  0.00  0.00    -0.316 N 
ATOM      9  C   UNL     1       8.705  -2.684  25.421  0.00  0.00    +0.201 A 
ATOM     10  N   UNL     1       7.902  -3.618  25.894  0.00  0.00    -0.229 NA
ATOM     11  C   UNL     1       7.379  -4.233  24.777  0.00  0.00    +0.172 A 
ATOM     12  C   UNL     1       6.407  -5.328  24.659  0.00  0.00    +0.302 A 
ATOM     13  O   UNL     1       5.945  -5.905  25.637  0.00  0.00    -0.263 OA
ATOM     14  N   UNL     1       6.053  -5.673  23.348  0.00  0.00    -0.176 NA
ENDROOT
BRANCH   8  15
ATOM     15  C   UNL     1       9.573  -1.810  23.238  0.00  0.00    +0.125 C 
BRANCH  15  16
ATOM     16  C   UNL     1      10.084  -0.566  23.978  0.00  0.00    +0.029 C 
BRANCH  16  17
ATOM     17  C   UNL     1      10.431   0.674  23.121  0.00  0.00    +0.042 C 
BRANCH  17  18
ATOM     18  C   UNL     1      10.120   1.939  23.939  0.00  0.00    +0.161 C 
BRANCH  18  19
ATOM     19  O   UNL     1      10.994   3.001  23.587  0.00  0.00    -0.395 OA
ATOM     20  H   UNL     1      11.608   3.144  24.328  0.00  0.00    +0.209 HD
ENDBRANCH  18  19
ENDBRANCH  17  18
BRANCH  17  21
ATOM     21  C   UNL     1       9.683   0.723  21.780  0.00  0.00    +0.161 C 
BRANCH  21  22
ATOM     22  O   UNL     1       9.489   2.063  21.344  0.00  0.00    -0.395 OA
ATOM     23  H   UNL     1       9.209   2.572  22.129  0.00  0.00    +0.209 HD
ENDBRANCH  21  22
ENDBRANCH  17  21
ENDBRANCH  16  17
ENDBRANCH  15  16
ENDBRANCH   8  15
TORSDOF 7
ENDMDL
