MODEL 1
REMARK VINA RESULT:      -7.7      0.000      0.000
REMARK  Name = 
REMARK  3 active torsions:
REMARK  status: ('A' for Active; 'I' for Inactive)
REMARK    1  A    between atoms: C_2  and  C_4
REMARK    2  A    between atoms: C_9  and  C_14
REMARK    3  A    between atoms: N_16  and  C_17
REMARK                            x       y       z     vdW  Elec       q    Type
REMARK                         _______ _______ _______ _____ _____    ______ ____
ROOT
ATOM      1  C   UNL     1       8.807  -3.893  25.752  0.00  0.00    +0.065 A 
ATOM      2  C   UNL     1       9.460  -3.576  24.555  0.00  0.00    +0.024 A 
ATOM      3  C   UNL     1       9.527  -2.247  24.107  0.00  0.00    -0.017 A 
ATOM      4  C   UNL     1       8.953  -1.228  24.901  0.00  0.00    -0.017 A 
ATOM      5  C   UNL     1       9.029   0.101  24.468  0.00  0.00    +0.021 A 
ATOM      6  C   UNL     1       9.644   0.435  23.253  0.00  0.00    +0.038 A 
ATOM      7  C   UNL     1      10.186  -0.573  22.453  0.00  0.00    +0.013 A 
ATOM      8  C   UNL     1       8.310  -1.558  26.105  0.00  0.00    +0.009 A 
ATOM      9  C   UNL     1      10.136  -1.904  22.887  0.00  0.00    +0.009 A 
ATOM     10  C   UNL     1       8.230  -2.886  26.525  0.00  0.00    +0.016 A 
ENDROOT
BRANCH   1  14
ATOM     11  N   UNL     1       9.443  -6.276  25.537  0.00  0.00    -0.247 N 
ATOM     12  H   UNL     1      10.279  -5.951  25.063  0.00  0.00    +0.288 HD
ATOM     13  H   UNL     1       9.624  -7.121  26.066  0.00  0.00    +0.288 HD
ATOM     14  C   UNL     1       8.731  -5.314  26.194  0.00  0.00    +0.308 C 
ATOM     15  N   UNL     1       7.999  -5.622  27.213  0.00  0.00    -0.099 NA
ATOM     16  H   UNL     1       8.020  -6.633  27.359  0.00  0.00    +0.363 HD
ENDBRANCH   1  14
BRANCH   6  17
ATOM     17  C   UNL     1       9.625   1.873  22.859  0.00  0.00    +0.248 C 
ATOM     18  N   UNL     1       8.736   2.690  23.536  0.00  0.00    -0.282 N 
ATOM     19  H   UNL     1       8.146   2.268  24.237  0.00  0.00    +0.155 HD
ATOM     20  O   UNL     1      10.375   2.212  21.949  0.00  0.00    -0.270 OA
BRANCH  18  21
ATOM     21  C   UNL     1       8.505   4.065  23.288  0.00  0.00    +0.034 A 
ATOM     22  C   UNL     1       7.425   4.407  22.463  0.00  0.00    +0.023 A 
ATOM     23  C   UNL     1       7.149   5.746  22.167  0.00  0.00    +0.002 A 
ATOM     24  C   UNL     1       7.951   6.759  22.687  0.00  0.00    +0.000 A 
ATOM     25  C   UNL     1       9.027   6.432  23.505  0.00  0.00    +0.002 A 
ATOM     26  C   UNL     1       9.299   5.094  23.804  0.00  0.00    +0.023 A 
ENDBRANCH  18  21
ENDBRANCH   6  17
TORSDOF 3
ENDMDL
MODEL 2
REMARK VINA RESULT:      -7.3      3.881      5.477
REMARK  Name = 
REMARK  3 active torsions:
REMARK  status: ('A' for Active; 'I' for Inactive)
REMARK    1  A    between atoms: C_2  and  C_4
REMARK    2  A    between atoms: C_9  and  C_14
REMARK    3  A    between atoms: N_16  and  C_17
REMARK                            x       y       z     vdW  Elec       q    Type
REMARK                         _______ _______ _______ _____ _____    ______ ____
ROOT
ATOM      1  C   UNL     1       3.864  -6.765  24.405  0.00  0.00    +0.065 A 
ATOM      2  C   UNL     1       4.935  -6.553  25.283  0.00  0.00    +0.024 A 
ATOM      3  C   UNL     1       5.903  -5.575  25.007  0.00  0.00    -0.017 A 
ATOM      4  C   UNL     1       5.763  -4.783  23.845  0.00  0.00    -0.017 A 
ATOM      5  C   UNL     1       6.716  -3.795  23.572  0.00  0.00    +0.021 A 
ATOM      6  C   UNL     1       7.817  -3.594  24.418  0.00  0.00    +0.038 A 
ATOM      7  C   UNL     1       7.973  -4.396  25.551  0.00  0.00    +0.013 A 
ATOM      8  C   UNL     1       4.680  -4.998  22.979  0.00  0.00    +0.009 A 
ATOM      9  C   UNL     1       7.013  -5.372  25.847  0.00  0.00    +0.009 A 
ATOM     10  C   UNL     1       3.738  -5.990  23.252  0.00  0.00    +0.016 A 
ENDROOT
BRANCH   1  14
ATOM     11  N   UNL     1       2.511  -8.086  26.002  0.00  0.00    -0.247 N 
ATOM     12  H   UNL     1       2.621  -7.310  26.648  0.00  0.00    +0.288 HD
ATOM     13  H   UNL     1       1.616  -8.544  26.126  0.00  0.00    +0.288 HD
ATOM     14  C   UNL     1       2.862  -7.824  24.709  0.00  0.00    +0.308 C 
ATOM     15  N   UNL     1       2.318  -8.480  23.738  0.00  0.00    -0.099 NA
ATOM     16  H   UNL     1       1.691  -9.194  24.113  0.00  0.00    +0.363 HD
ENDBRANCH   1  14
BRANCH   6  17
ATOM     17  C   UNL     1       8.803  -2.552  24.008  0.00  0.00    +0.248 C 
ATOM     18  N   UNL     1       8.337  -1.250  23.941  0.00  0.00    -0.282 N 
ATOM     19  H   UNL     1       7.365  -1.084  24.155  0.00  0.00    +0.155 HD
ATOM     20  O   UNL     1       9.936  -2.934  23.735  0.00  0.00    -0.270 OA
BRANCH  18  21
ATOM     21  C   UNL     1       9.075  -0.118  23.520  0.00  0.00    +0.034 A 
ATOM     22  C   UNL     1       9.826   0.567  24.484  0.00  0.00    +0.023 A 
ATOM     23  C   UNL     1      10.568   1.702  24.138  0.00  0.00    +0.002 A 
ATOM     24  C   UNL     1      10.566   2.167  22.825  0.00  0.00    +0.000 A 
ATOM     25  C   UNL     1       9.823   1.497  21.860  0.00  0.00    +0.002 A 
ATOM     26  C   UNL     1       9.085   0.361  22.206  0.00  0.00    +0.023 A 
ENDBRANCH  18  21
ENDBRANCH   6  17
TORSDOF 3
ENDMDL
MODEL 3
REMARK VINA RESULT:      -7.2      3.900      5.190
REMARK  Name = 
REMARK  3 active torsions:
REMARK  status: ('A' for Active; 'I' for Inactive)
REMARK    1  A    between atoms: C_2  and  C_4
REMARK    2  A    between atoms: C_9  and  C_14
REMARK    3  A    between atoms: N_16  and  C_17
REMARK                            x       y       z     vdW  Elec       q    Type
REMARK                         _______ _______ _______ _____ _____    ______ ____
ROOT
ATOM      1  C   UNL     1       4.051  -6.855  24.715  0.00  0.00    +0.065 A 
ATOM      2  C   UNL     1       4.377  -6.254  23.492  0.00  0.00    +0.024 A 
ATOM      3  C   UNL     1       5.382  -5.276  23.422  0.00  0.00    -0.017 A 
ATOM      4  C   UNL     1       6.085  -4.931  24.598  0.00  0.00    -0.017 A 
ATOM      5  C   UNL     1       7.098  -3.969  24.532  0.00  0.00    +0.021 A 
ATOM      6  C   UNL     1       7.413  -3.326  23.325  0.00  0.00    +0.038 A 
ATOM      7  C   UNL     1       6.700  -3.645  22.167  0.00  0.00    +0.013 A 
ATOM      8  C   UNL     1       5.756  -5.548  25.815  0.00  0.00    +0.009 A 
ATOM      9  C   UNL     1       5.699  -4.624  22.217  0.00  0.00    +0.009 A 
ATOM     10  C   UNL     1       4.738  -6.500  25.876  0.00  0.00    +0.016 A 
ENDROOT
BRANCH   1  14
ATOM     11  N   UNL     1       2.493  -8.311  25.971  0.00  0.00    -0.247 N 
ATOM     12  H   UNL     1       2.596  -7.658  26.742  0.00  0.00    +0.288 HD
ATOM     13  H   UNL     1       1.566  -8.718  25.953  0.00  0.00    +0.288 HD
ATOM     14  C   UNL     1       2.965  -7.873  24.767  0.00  0.00    +0.308 C 
ATOM     15  N   UNL     1       2.466  -8.325  23.665  0.00  0.00    -0.099 NA
ATOM     16  H   UNL     1       1.769  -9.042  23.872  0.00  0.00    +0.363 HD
ENDBRANCH   1  14
BRANCH   6  17
ATOM     17  C   UNL     1       8.473  -2.278  23.373  0.00  0.00    +0.248 C 
ATOM     18  N   UNL     1       8.059  -0.969  23.196  0.00  0.00    -0.282 N 
ATOM     19  H   UNL     1       7.078  -0.801  23.029  0.00  0.00    +0.155 HD
ATOM     20  O   UNL     1       9.626  -2.661  23.536  0.00  0.00    -0.270 OA
BRANCH  18  21
ATOM     21  C   UNL     1       8.895   0.173  23.143  0.00  0.00    +0.034 A 
ATOM     22  C   UNL     1       9.267   0.766  24.356  0.00  0.00    +0.023 A 
ATOM     23  C   UNL     1      10.081   1.904  24.375  0.00  0.00    +0.002 A 
ATOM     24  C   UNL     1      10.528   2.465  23.182  0.00  0.00    +0.000 A 
ATOM     25  C   UNL     1      10.164   1.887  21.971  0.00  0.00    +0.002 A 
ATOM     26  C   UNL     1       9.355   0.747  21.953  0.00  0.00    +0.023 A 
ENDBRANCH  18  21
ENDBRANCH   6  17
TORSDOF 3
ENDMDL
MODEL 4
REMARK VINA RESULT:      -7.1      1.445      2.040
REMARK  Name = 
REMARK  3 active torsions:
REMARK  status: ('A' for Active; 'I' for Inactive)
REMARK    1  A    between atoms: C_2  and  C_4
REMARK    2  A    between atoms: C_9  and  C_14
REMARK    3  A    between atoms: N_16  and  C_17
REMARK                            x       y       z     vdW  Elec       q    Type
REMARK                         _______ _______ _______ _____ _____    ______ ____
ROOT
ATOM      1  C   UNL     1       7.419  -4.163  26.240  0.00  0.00    +0.065 A 
ATOM      2  C   UNL     1       8.423  -4.091  25.267  0.00  0.00    +0.024 A 
ATOM      3  C   UNL     1       8.825  -2.851  24.745  0.00  0.00    -0.017 A 
ATOM      4  C   UNL     1       8.224  -1.672  25.242  0.00  0.00    -0.017 A 
ATOM      5  C   UNL     1       8.631  -0.432  24.737  0.00  0.00    +0.021 A 
ATOM      6  C   UNL     1       9.607  -0.341  23.733  0.00  0.00    +0.038 A 
ATOM      7  C   UNL     1      10.181  -1.506  23.221  0.00  0.00    +0.013 A 
ATOM      8  C   UNL     1       7.226  -1.758  26.225  0.00  0.00    +0.009 A 
ATOM      9  C   UNL     1       9.798  -2.751  23.734  0.00  0.00    +0.009 A 
ATOM     10  C   UNL     1       6.818  -2.998  26.717  0.00  0.00    +0.016 A 
ENDROOT
BRANCH   1  14
ATOM     11  N   UNL     1       5.965  -6.166  26.169  0.00  0.00    -0.247 N 
ATOM     12  H   UNL     1       5.808  -5.946  25.190  0.00  0.00    +0.288 HD
ATOM     13  H   UNL     1       5.949  -7.165  26.330  0.00  0.00    +0.288 HD
ATOM     14  C   UNL     1       6.995  -5.492  26.761  0.00  0.00    +0.308 C 
ATOM     15  N   UNL     1       7.620  -6.008  27.768  0.00  0.00    -0.099 NA
ATOM     16  H   UNL     1       7.183  -6.893  28.028  0.00  0.00    +0.363 HD
ENDBRANCH   1  14
BRANCH   6  17
ATOM     17  C   UNL     1       9.930   1.025  23.228  0.00  0.00    +0.248 C 
ATOM     18  N   UNL     1      10.012   2.033  24.174  0.00  0.00    -0.282 N 
ATOM     19  H   UNL     1       9.833   1.793  25.137  0.00  0.00    +0.155 HD
ATOM     20  O   UNL     1      10.069   1.151  22.016  0.00  0.00    -0.270 OA
BRANCH  18  21
ATOM     21  C   UNL     1      10.245   3.406  23.916  0.00  0.00    +0.034 A 
ATOM     22  C   UNL     1      11.537   3.787  23.531  0.00  0.00    +0.023 A 
ATOM     23  C   UNL     1      11.838   5.129  23.273  0.00  0.00    +0.002 A 
ATOM     24  C   UNL     1      10.854   6.105  23.401  0.00  0.00    +0.000 A 
ATOM     25  C   UNL     1       9.568   5.739  23.783  0.00  0.00    +0.002 A 
ATOM     26  C   UNL     1       9.267   4.398  24.036  0.00  0.00    +0.023 A 
ENDBRANCH  18  21
ENDBRANCH   6  17
TORSDOF 3
ENDMDL
MODEL 5
REMARK VINA RESULT:      -7.0      3.002      8.277
REMARK  Name = 
REMARK  3 active torsions:
REMARK  status: ('A' for Active; 'I' for Inactive)
REMARK    1  A    between atoms: C_2  and  C_4
REMARK    2  A    between atoms: C_9  and  C_14
REMARK    3  A    between atoms: N_16  and  C_17
REMARK                            x       y       z     vdW  Elec       q    Type
REMARK                         _______ _______ _______ _____ _____    ______ ____
ROOT
ATOM      1  C   UNL     1       9.812   2.764  23.587  0.00  0.00    +0.065 A 
ATOM      2  C   UNL     1      10.057   1.744  22.659  0.00  0.00    +0.024 A 
ATOM      3  C   UNL     1       9.558   0.449  22.872  0.00  0.00    -0.017 A 
ATOM      4  C   UNL     1       8.774   0.198  24.020  0.00  0.00    -0.017 A 
ATOM      5  C   UNL     1       8.261  -1.087  24.231  0.00  0.00    +0.021 A 
ATOM      6  C   UNL     1       8.528  -2.132  23.334  0.00  0.00    +0.038 A 
ATOM      7  C   UNL     1       9.326  -1.893  22.213  0.00  0.00    +0.013 A 
ATOM      8  C   UNL     1       8.527   1.232  24.937  0.00  0.00    +0.009 A 
ATOM      9  C   UNL     1       9.827  -0.606  21.981  0.00  0.00    +0.009 A 
ATOM     10  C   UNL     1       9.049   2.508  24.726  0.00  0.00    +0.016 A 
ENDROOT
BRANCH   1  14
ATOM     11  N   UNL     1      11.702   4.284  23.092  0.00  0.00    -0.247 N 
ATOM     12  H   UNL     1      12.164   3.480  22.676  0.00  0.00    +0.288 HD
ATOM     13  H   UNL     1      11.953   5.141  22.614  0.00  0.00    +0.288 HD
ATOM     14  C   UNL     1      10.371   4.124  23.349  0.00  0.00    +0.308 C 
ATOM     15  N   UNL     1       9.582   5.147  23.374  0.00  0.00    -0.099 NA
ATOM     16  H   UNL     1      10.123   6.002  23.237  0.00  0.00    +0.363 HD
ENDBRANCH   1  14
BRANCH   6  17
ATOM     17  C   UNL     1       7.978  -3.475  23.678  0.00  0.00    +0.248 C 
ATOM     18  N   UNL     1       6.628  -3.532  23.984  0.00  0.00    -0.282 N 
ATOM     19  H   UNL     1       6.104  -2.670  23.974  0.00  0.00    +0.155 HD
ATOM     20  O   UNL     1       8.767  -4.413  23.691  0.00  0.00    -0.270 OA
BRANCH  18  21
ATOM     21  C   UNL     1       5.911  -4.682  24.396  0.00  0.00    +0.034 A 
ATOM     22  C   UNL     1       5.972  -5.038  25.749  0.00  0.00    +0.023 A 
ATOM     23  C   UNL     1       5.297  -6.169  26.221  0.00  0.00    +0.002 A 
ATOM     24  C   UNL     1       4.557  -6.960  25.345  0.00  0.00    +0.000 A 
ATOM     25  C   UNL     1       4.491  -6.617  23.999  0.00  0.00    +0.002 A 
ATOM     26  C   UNL     1       5.162  -5.484  23.530  0.00  0.00    +0.023 A 
ENDBRANCH  18  21
ENDBRANCH   6  17
TORSDOF 3
ENDMDL
MODEL 6
REMARK VINA RESULT:      -7.0      3.052      8.417
REMARK  Name = 
REMARK  3 active torsions:
REMARK  status: ('A' for Active; 'I' for Inactive)
REMARK    1  A    between atoms: C_2  and  C_4
REMARK    2  A    between atoms: C_9  and  C_14
REMARK    3  A    between atoms: N_16  and  C_17
REMARK                            x       y       z     vdW  Elec       q    Type
REMARK                         _______ _______ _______ _____ _____    ______ ____
ROOT
ATOM      1  C   UNL     1      10.358   2.544  23.269  0.00  0.00    +0.065 A 
ATOM      2  C   UNL     1      10.133   1.862  24.472  0.00  0.00    +0.024 A 
ATOM      3  C   UNL     1       9.595   0.565  24.469  0.00  0.00    -0.017 A 
ATOM      4  C   UNL     1       9.315  -0.056  23.231  0.00  0.00    -0.017 A 
ATOM      5  C   UNL     1       8.793  -1.355  23.221  0.00  0.00    +0.021 A 
ATOM      6  C   UNL     1       8.524  -2.039  24.415  0.00  0.00    +0.038 A 
ATOM      7  C   UNL     1       8.773  -1.416  25.640  0.00  0.00    +0.013 A 
ATOM      8  C   UNL     1       9.555   0.634  22.032  0.00  0.00    +0.009 A 
ATOM      9  C   UNL     1       9.317  -0.125  25.662  0.00  0.00    +0.009 A 
ATOM     10  C   UNL     1      10.066   1.932  22.050  0.00  0.00    +0.016 A 
ENDROOT
BRANCH   1  14
ATOM     11  N   UNL     1      10.066   5.001  23.335  0.00  0.00    -0.247 N 
ATOM     12  H   UNL     1       9.153   4.824  23.743  0.00  0.00    +0.288 HD
ATOM     13  H   UNL     1      10.469   5.859  23.692  0.00  0.00    +0.288 HD
ATOM     14  C   UNL     1      10.909   3.927  23.300  0.00  0.00    +0.308 C 
ATOM     15  N   UNL     1      12.189   4.100  23.308  0.00  0.00    -0.099 NA
ATOM     16  H   UNL     1      12.402   5.098  23.286  0.00  0.00    +0.363 HD
ENDBRANCH   1  14
BRANCH   6  17
ATOM     17  C   UNL     1       7.920  -3.398  24.294  0.00  0.00    +0.248 C 
ATOM     18  N   UNL     1       6.630  -3.548  24.777  0.00  0.00    -0.282 N 
ATOM     19  H   UNL     1       6.184  -2.744  25.193  0.00  0.00    +0.155 HD
ATOM     20  O   UNL     1       8.621  -4.277  23.806  0.00  0.00    -0.270 OA
BRANCH  18  21
ATOM     21  C   UNL     1       5.888  -4.753  24.821  0.00  0.00    +0.034 A 
ATOM     22  C   UNL     1       5.283  -5.190  23.635  0.00  0.00    +0.023 A 
ATOM     23  C   UNL     1       4.525  -6.366  23.611  0.00  0.00    +0.002 A 
ATOM     24  C   UNL     1       4.360  -7.116  24.772  0.00  0.00    +0.000 A 
ATOM     25  C   UNL     1       4.954  -6.692  25.956  0.00  0.00    +0.002 A 
ATOM     26  C   UNL     1       5.715  -5.520  25.977  0.00  0.00    +0.023 A 
ENDBRANCH  18  21
ENDBRANCH   6  17
TORSDOF 3
ENDMDL
MODEL 7
REMARK VINA RESULT:      -7.0      2.571      2.966
REMARK  Name = 
REMARK  3 active torsions:
REMARK  status: ('A' for Active; 'I' for Inactive)
REMARK    1  A    between atoms: C_2  and  C_4
REMARK    2  A    between atoms: C_9  and  C_14
REMARK    3  A    between atoms: N_16  and  C_17
REMARK                            x       y       z     vdW  Elec       q    Type
REMARK                         _______ _______ _______ _____ _____    ______ ____
ROOT
ATOM      1  C   UNL     1       6.160  -4.515  23.540  0.00  0.00    +0.065 A 
ATOM      2  C   UNL     1       7.438  -4.209  24.023  0.00  0.00    +0.024 A 
ATOM      3  C   UNL     1       8.017  -2.955  23.769  0.00  0.00    -0.017 A 
ATOM      4  C   UNL     1       7.276  -1.994  23.046  0.00  0.00    -0.017 A 
ATOM      5  C   UNL     1       7.841  -0.737  22.803  0.00  0.00    +0.021 A 
ATOM      6  C   UNL     1       9.135  -0.424  23.244  0.00  0.00    +0.038 A 
ATOM      7  C   UNL     1       9.880  -1.383  23.933  0.00  0.00    +0.013 A 
ATOM      8  C   UNL     1       5.991  -2.309  22.577  0.00  0.00    +0.009 A 
ATOM      9  C   UNL     1       9.316  -2.637  24.202  0.00  0.00    +0.009 A 
ATOM     10  C   UNL     1       5.438  -3.568  22.815  0.00  0.00    +0.016 A 
ENDROOT
BRANCH   1  14
ATOM     11  N   UNL     1       5.269  -6.237  25.080  0.00  0.00    -0.247 N 
ATOM     12  H   UNL     1       5.067  -5.476  25.721  0.00  0.00    +0.288 HD
ATOM     13  H   UNL     1       4.586  -6.980  25.162  0.00  0.00    +0.288 HD
ATOM     14  C   UNL     1       5.576  -5.860  23.804  0.00  0.00    +0.308 C 
ATOM     15  N   UNL     1       5.349  -6.659  22.814  0.00  0.00    -0.099 NA
ATOM     16  H   UNL     1       4.992  -7.549  23.164  0.00  0.00    +0.363 HD
ENDBRANCH   1  14
BRANCH   6  17
ATOM     17  C   UNL     1       9.664   0.924  22.887  0.00  0.00    +0.248 C 
ATOM     18  N   UNL     1       9.831   1.821  23.928  0.00  0.00    -0.282 N 
ATOM     19  H   UNL     1       9.574   1.520  24.857  0.00  0.00    +0.155 HD
ATOM     20  O   UNL     1       9.879   1.141  21.699  0.00  0.00    -0.270 OA
BRANCH  18  21
ATOM     21  C   UNL     1      10.258   3.166  23.815  0.00  0.00    +0.034 A 
ATOM     22  C   UNL     1       9.318   4.173  24.072  0.00  0.00    +0.023 A 
ATOM     23  C   UNL     1       9.670   5.523  23.966  0.00  0.00    +0.002 A 
ATOM     24  C   UNL     1      10.964   5.882  23.598  0.00  0.00    +0.000 A 
ATOM     25  C   UNL     1      11.906   4.892  23.339  0.00  0.00    +0.002 A 
ATOM     26  C   UNL     1      11.554   3.544  23.450  0.00  0.00    +0.023 A 
ENDBRANCH  18  21
ENDBRANCH   6  17
TORSDOF 3
ENDMDL
MODEL 8
REMARK VINA RESULT:      -6.9      2.997      8.234
REMARK  Name = 
REMARK  3 active torsions:
REMARK  status: ('A' for Active; 'I' for Inactive)
REMARK    1  A    between atoms: C_2  and  C_4
REMARK    2  A    between atoms: C_9  and  C_14
REMARK    3  A    between atoms: N_16  and  C_17
REMARK                            x       y       z     vdW  Elec       q    Type
REMARK                         _______ _______ _______ _____ _____    ______ ____
ROOT
ATOM      1  C   UNL     1       9.288   4.097  23.440  0.00  0.00    +0.065 A 
ATOM      2  C   UNL     1      10.246   3.146  23.814  0.00  0.00    +0.024 A 
ATOM      3  C   UNL     1       9.955   1.775  23.752  0.00  0.00    -0.017 A 
ATOM      4  C   UNL     1       8.690   1.365  23.273  0.00  0.00    -0.017 A 
ATOM      5  C   UNL     1       8.399  -0.002  23.194  0.00  0.00    +0.021 A 
ATOM      6  C   UNL     1       9.330  -0.968  23.602  0.00  0.00    +0.038 A 
ATOM      7  C   UNL     1      10.570  -0.564  24.102  0.00  0.00    +0.013 A 
ATOM      8  C   UNL     1       7.742   2.327  22.891  0.00  0.00    +0.009 A 
ATOM      9  C   UNL     1      10.881   0.800  24.165  0.00  0.00    +0.009 A 
ATOM     10  C   UNL     1       8.036   3.688  22.981  0.00  0.00    +0.016 A 
ENDROOT
BRANCH   1  14
ATOM     11  N   UNL     1      10.742   5.956  24.187  0.00  0.00    -0.247 N 
ATOM     12  H   UNL     1      11.497   5.277  24.216  0.00  0.00    +0.288 HD
ATOM     13  H   UNL     1      11.083   6.875  23.932  0.00  0.00    +0.288 HD
ATOM     14  C   UNL     1       9.614   5.547  23.536  0.00  0.00    +0.308 C 
ATOM     15  N   UNL     1       8.828   6.412  22.984  0.00  0.00    -0.099 NA
ATOM     16  H   UNL     1       9.166   7.356  23.176  0.00  0.00    +0.363 HD
ENDBRANCH   1  14
BRANCH   6  17
ATOM     17  C   UNL     1       8.901  -2.395  23.526  0.00  0.00    +0.248 C 
ATOM     18  N   UNL     1       7.626  -2.634  23.043  0.00  0.00    -0.282 N 
ATOM     19  H   UNL     1       7.059  -1.838  22.789  0.00  0.00    +0.155 HD
ATOM     20  O   UNL     1       9.698  -3.238  23.924  0.00  0.00    -0.270 OA
BRANCH  18  21
ATOM     21  C   UNL     1       6.991  -3.896  22.943  0.00  0.00    +0.034 A 
ATOM     22  C   UNL     1       6.165  -4.296  24.001  0.00  0.00    +0.023 A 
ATOM     23  C   UNL     1       5.517  -5.536  23.971  0.00  0.00    +0.002 A 
ATOM     24  C   UNL     1       5.692  -6.392  22.887  0.00  0.00    +0.000 A 
ATOM     25  C   UNL     1       6.512  -6.006  21.832  0.00  0.00    +0.002 A 
ATOM     26  C   UNL     1       7.154  -4.765  21.860  0.00  0.00    +0.023 A 
ENDBRANCH  18  21
ENDBRANCH   6  17
TORSDOF 3
ENDMDL
MODEL 9
REMARK VINA RESULT:      -6.8      2.951      7.976
REMARK  Name = 
REMARK  3 active torsions:
REMARK  status: ('A' for Active; 'I' for Inactive)
REMARK    1  A    between atoms: C_2  and  C_4
REMARK    2  A    between atoms: C_9  and  C_14
REMARK    3  A    between atoms: N_16  and  C_17
REMARK                            x       y       z     vdW  Elec       q    Type
REMARK                         _______ _______ _______ _____ _____    ______ ____
ROOT
ATOM      1  C   UNL     1       8.717   4.687  25.033  0.00  0.00    +0.065 A 
ATOM      2  C   UNL     1       9.471   4.211  23.952  0.00  0.00    +0.024 A 
ATOM      3  C   UNL     1       9.370   2.871  23.545  0.00  0.00    -0.017 A 
ATOM      4  C   UNL     1       8.471   2.017  24.221  0.00  0.00    -0.017 A 
ATOM      5  C   UNL     1       8.355   0.684  23.811  0.00  0.00    +0.021 A 
ATOM      6  C   UNL     1       9.130   0.178  22.756  0.00  0.00    +0.038 A 
ATOM      7  C   UNL     1      10.040   1.014  22.106  0.00  0.00    +0.013 A 
ATOM      8  C   UNL     1       7.714   2.508  25.296  0.00  0.00    +0.009 A 
ATOM      9  C   UNL     1      10.148   2.356  22.493  0.00  0.00    +0.009 A 
ATOM     10  C   UNL     1       7.841   3.835  25.706  0.00  0.00    +0.016 A 
ENDROOT
BRANCH   1  14
ATOM     11  N   UNL     1       8.325   7.108  24.699  0.00  0.00    -0.247 N 
ATOM     12  H   UNL     1       7.533   6.841  24.123  0.00  0.00    +0.288 HD
ATOM     13  H   UNL     1       8.150   7.979  25.186  0.00  0.00    +0.288 HD
ATOM     14  C   UNL     1       8.858   6.107  25.460  0.00  0.00    +0.308 C 
ATOM     15  N   UNL     1       9.473   6.380  26.562  0.00  0.00    -0.099 NA
ATOM     16  H   UNL     1       9.521   7.392  26.688  0.00  0.00    +0.363 HD
ENDBRANCH   1  14
BRANCH   6  17
ATOM     17  C   UNL     1       8.968  -1.269  22.432  0.00  0.00    +0.248 C 
ATOM     18  N   UNL     1       7.783  -1.864  22.828  0.00  0.00    -0.282 N 
ATOM     19  H   UNL     1       7.110  -1.297  23.323  0.00  0.00    +0.155 HD
ATOM     20  O   UNL     1       9.907  -1.822  21.870  0.00  0.00    -0.270 OA
BRANCH  18  21
ATOM     21  C   UNL     1       7.442  -3.231  22.681  0.00  0.00    +0.034 A 
ATOM     22  C   UNL     1       6.508  -3.567  21.692  0.00  0.00    +0.023 A 
ATOM     23  C   UNL     1       6.117  -4.897  21.502  0.00  0.00    +0.002 A 
ATOM     24  C   UNL     1       6.652  -5.906  22.299  0.00  0.00    +0.000 A 
ATOM     25  C   UNL     1       7.579  -5.584  23.285  0.00  0.00    +0.002 A 
ATOM     26  C   UNL     1       7.972  -4.256  23.472  0.00  0.00    +0.023 A 
ENDBRANCH  18  21
ENDBRANCH   6  17
TORSDOF 3
ENDMDL
