MODEL 1
REMARK VINA RESULT:      -5.5      0.000      0.000
REMARK  Name = 
REMARK  18 active torsions:
REMARK  status: ('A' for Active; 'I' for Inactive)
REMARK    1  A    between atoms: C_5  and  C_7
REMARK    2  A    between atoms: N_9  and  C_10
REMARK    3  A    between atoms: C_10  and  C_11
REMARK    4  A    between atoms: C_10  and  C_16
REMARK    5  A    between atoms: C_11  and  C_12
REMARK    6  A    between atoms: C_16  and  C_18
REMARK    7  A    between atoms: C_23  and  C_24
REMARK    8  A    between atoms: C_23  and  C_25
REMARK    9  A    between atoms: C_26  and  C_28
REMARK   10  A    between atoms: C_28  and  N_30
REMARK   11  A    between atoms: C_28  and  C_38
REMARK   12  A    between atoms: N_33  and  C_34
REMARK   13  A    between atoms: C_34  and  C_35
REMARK   14  A    between atoms: C_34  and  C_36
REMARK   15  A    between atoms: C_34  and  C_37
REMARK   16  A    between atoms: C_38  and  C_39
REMARK   17  A    between atoms: C_38  and  C_40
REMARK   18  A    between atoms: C_38  and  C_41
REMARK                            x       y       z     vdW  Elec       q    Type
REMARK                         _______ _______ _______ _____ _____    ______ ____
ROOT
ATOM      1  C   UNL     1       5.455   3.774  22.713  0.00  0.00    +0.018 C 
ATOM      2  C   UNL     1       5.744   4.901  23.694  0.00  0.00    -0.025 C 
ATOM      3  C   UNL     1       4.566   5.793  24.019  0.00  0.00    +0.011 C 
ATOM      4  C   UNL     1       7.052   5.646  23.688  0.00  0.00    +0.011 C 
ATOM      5  C   UNL     1       5.684   3.448  24.158  0.00  0.00    +0.030 C 
ATOM      6  C   UNL     1       6.896   2.491  24.245  0.00  0.00    +0.166 C 
ATOM      7  N   UNL     1       6.947   1.979  22.862  0.00  0.00    -0.288 N 
ATOM      8  C   UNL     1       7.885   1.112  22.302  0.00  0.00    +0.237 C 
ATOM      9  O   UNL     1       8.364   1.367  21.192  0.00  0.00    -0.274 OA
ATOM     10  C   UNL     1       6.434   2.977  21.929  0.00  0.00    +0.113 C 
ENDROOT
BRANCH   6  11
ATOM     11  C   UNL     1       6.816   1.604  25.537  0.00  0.00    +0.234 C 
ATOM     12  N   UNL     1       5.539   1.354  25.990  0.00  0.00    -0.304 N 
ATOM     13  H   UNL     1       4.733   1.650  25.448  0.00  0.00    +0.149 HD
ATOM     14  O   UNL     1       7.771   1.259  26.228  0.00  0.00    -0.274 OA
BRANCH  12  15
ATOM     15  C   UNL     1       5.264   0.612  27.218  0.00  0.00    +0.149 C 
BRANCH  15  16
ATOM     16  C   UNL     1       4.565  -0.675  26.796  0.00  0.00    +0.237 C 
ATOM     17  O   UNL     1       3.410  -0.727  26.372  0.00  0.00    -0.285 OA
BRANCH  16  18
ATOM     18  C   UNL     1       5.363  -1.972  26.915  0.00  0.00    +0.279 C 
ATOM     19  O   UNL     1       4.820  -3.053  27.048  0.00  0.00    -0.267 OA
ATOM     20  N   UNL     1       6.717  -1.798  26.848  0.00  0.00    -0.323 N 
ATOM     21  H   UNL     1       7.332  -2.597  26.912  0.00  0.00    +0.145 HD
ATOM     22  H   UNL     1       7.105  -0.863  26.765  0.00  0.00    +0.145 HD
ENDBRANCH  16  18
ENDBRANCH  15  16
BRANCH  15  23
ATOM     23  C   UNL     1       4.466   1.470  28.209  0.00  0.00    +0.034 C 
BRANCH  23  24
ATOM     24  C   UNL     1       5.339   2.077  29.308  0.00  0.00    -0.009 C 
ATOM     25  C   UNL     1       6.096   3.376  28.922  0.00  0.00    +0.003 C 
ATOM     26  C   UNL     1       7.165   2.942  29.950  0.00  0.00    +0.001 C 
ATOM     27  C   UNL     1       6.746   1.493  29.628  0.00  0.00    +0.003 C 
ENDBRANCH  23  24
ENDBRANCH  15  23
ENDBRANCH  12  15
ENDBRANCH   6  11
BRANCH   8  28
ATOM     28  C   UNL     1       8.291  -0.181  23.080  0.00  0.00    +0.166 C 
BRANCH  28  29
ATOM     29  N   UNL     1       7.947  -1.390  22.305  0.00  0.00    -0.288 N 
ATOM     30  H   UNL     1       8.319  -1.442  21.366  0.00  0.00    +0.151 HD
ATOM     31  C   UNL     1       7.311  -2.466  22.846  0.00  0.00    +0.301 C 
ATOM     32  N   UNL     1       7.011  -3.445  21.941  0.00  0.00    -0.295 N 
ATOM     33  H   UNL     1       7.001  -3.162  20.972  0.00  0.00    +0.151 HD
ATOM     34  O   UNL     1       7.060  -2.557  24.042  0.00  0.00    -0.253 OA
BRANCH  32  35
ATOM     35  C   UNL     1       6.319  -4.690  22.315  0.00  0.00    +0.028 C 
ATOM     36  C   UNL     1       7.142  -5.462  23.361  0.00  0.00    +0.031 C 
ATOM     37  C   UNL     1       6.175  -5.582  21.072  0.00  0.00    +0.031 C 
ATOM     38  C   UNL     1       4.901  -4.414  22.858  0.00  0.00    +0.031 C 
ENDBRANCH  32  35
ENDBRANCH  28  29
BRANCH  28  39
ATOM     39  C   UNL     1       9.751  -0.247  23.650  0.00  0.00    -0.011 C 
ATOM     40  C   UNL     1      10.387   1.145  23.798  0.00  0.00    +0.013 C 
ATOM     41  C   UNL     1      10.643  -1.076  22.691  0.00  0.00    +0.013 C 
ATOM     42  C   UNL     1       9.794  -0.979  25.010  0.00  0.00    +0.013 C 
ENDBRANCH  28  39
ENDBRANCH   8  28
TORSDOF 10
ENDMDL
MODEL 2
REMARK VINA RESULT:      -5.4      2.713      6.382
REMARK  Name = 
REMARK  18 active torsions:
REMARK  status: ('A' for Active; 'I' for Inactive)
REMARK    1  A    between atoms: C_5  and  C_7
REMARK    2  A    between atoms: N_9  and  C_10
REMARK    3  A    between atoms: C_10  and  C_11
REMARK    4  A    between atoms: C_10  and  C_16
REMARK    5  A    between atoms: C_11  and  C_12
REMARK    6  A    between atoms: C_16  and  C_18
REMARK    7  A    between atoms: C_23  and  C_24
REMARK    8  A    between atoms: C_23  and  C_25
REMARK    9  A    between atoms: C_26  and  C_28
REMARK   10  A    between atoms: C_28  and  N_30
REMARK   11  A    between atoms: C_28  and  C_38
REMARK   12  A    between atoms: N_33  and  C_34
REMARK   13  A    between atoms: C_34  and  C_35
REMARK   14  A    between atoms: C_34  and  C_36
REMARK   15  A    between atoms: C_34  and  C_37
REMARK   16  A    between atoms: C_38  and  C_39
REMARK   17  A    between atoms: C_38  and  C_40
REMARK   18  A    between atoms: C_38  and  C_41
REMARK                            x       y       z     vdW  Elec       q    Type
REMARK                         _______ _______ _______ _____ _____    ______ ____
ROOT
ATOM      1  C   UNL     1       4.468   3.917  28.180  0.00  0.00    +0.018 C 
ATOM      2  C   UNL     1       5.542   3.476  29.164  0.00  0.00    -0.025 C 
ATOM      3  C   UNL     1       5.034   2.779  30.407  0.00  0.00    +0.011 C 
ATOM      4  C   UNL     1       6.771   4.306  29.423  0.00  0.00    +0.011 C 
ATOM      5  C   UNL     1       5.359   2.765  27.825  0.00  0.00    +0.030 C 
ATOM      6  C   UNL     1       6.104   3.122  26.518  0.00  0.00    +0.166 C 
ATOM      7  N   UNL     1       5.242   4.197  25.990  0.00  0.00    -0.288 N 
ATOM      8  C   UNL     1       5.438   4.971  24.847  0.00  0.00    +0.237 C 
ATOM      9  O   UNL     1       5.270   6.195  24.902  0.00  0.00    -0.274 OA
ATOM     10  C   UNL     1       4.591   4.912  27.083  0.00  0.00    +0.113 C 
ENDROOT
BRANCH   6  11
ATOM     11  C   UNL     1       6.516   1.826  25.736  0.00  0.00    +0.234 C 
ATOM     12  N   UNL     1       7.850   1.495  25.827  0.00  0.00    -0.304 N 
ATOM     13  H   UNL     1       8.469   2.012  26.444  0.00  0.00    +0.149 HD
ATOM     14  O   UNL     1       5.799   1.200  24.960  0.00  0.00    -0.274 OA
BRANCH  12  15
ATOM     15  C   UNL     1       8.438   0.366  25.109  0.00  0.00    +0.149 C 
BRANCH  15  16
ATOM     16  C   UNL     1       8.497  -0.791  26.099  0.00  0.00    +0.237 C 
ATOM     17  O   UNL     1       9.077  -0.743  27.184  0.00  0.00    -0.285 OA
BRANCH  16  18
ATOM     18  C   UNL     1       7.788  -2.084  25.701  0.00  0.00    +0.279 C 
ATOM     19  O   UNL     1       8.153  -3.171  26.108  0.00  0.00    -0.267 OA
ATOM     20  N   UNL     1       6.720  -1.897  24.868  0.00  0.00    -0.323 N 
ATOM     21  H   UNL     1       6.181  -2.691  24.552  0.00  0.00    +0.145 HD
ATOM     22  H   UNL     1       6.488  -0.964  24.544  0.00  0.00    +0.145 HD
ENDBRANCH  16  18
ENDBRANCH  15  16
BRANCH  15  23
ATOM     23  C   UNL     1       9.795   0.750  24.504  0.00  0.00    +0.034 C 
BRANCH  23  24
ATOM     24  C   UNL     1      10.004   0.179  23.100  0.00  0.00    -0.009 C 
ATOM     25  C   UNL     1       8.709  -0.146  22.309  0.00  0.00    +0.003 C 
ATOM     26  C   UNL     1       9.536  -1.238  21.594  0.00  0.00    +0.001 C 
ATOM     27  C   UNL     1      10.367  -1.321  22.892  0.00  0.00    +0.003 C 
ENDBRANCH  23  24
ENDBRANCH  15  23
ENDBRANCH  12  15
ENDBRANCH   6  11
BRANCH   8  28
ATOM     28  C   UNL     1       5.838   4.271  23.509  0.00  0.00    +0.166 C 
BRANCH  28  29
ATOM     29  N   UNL     1       4.837   4.536  22.456  0.00  0.00    -0.288 N 
ATOM     30  H   UNL     1       5.128   5.145  21.704  0.00  0.00    +0.151 HD
ATOM     31  C   UNL     1       3.643   3.885  22.382  0.00  0.00    +0.301 C 
ATOM     32  N   UNL     1       2.826   4.337  21.384  0.00  0.00    -0.295 N 
ATOM     33  H   UNL     1       3.036   5.257  21.026  0.00  0.00    +0.151 HD
ATOM     34  O   UNL     1       3.344   2.958  23.126  0.00  0.00    -0.253 OA
BRANCH  32  35
ATOM     35  C   UNL     1       1.488   3.775  21.134  0.00  0.00    +0.028 C 
ATOM     36  C   UNL     1       1.607   2.331  20.616  0.00  0.00    +0.031 C 
ATOM     37  C   UNL     1       0.782   4.610  20.055  0.00  0.00    +0.031 C 
ATOM     38  C   UNL     1       0.608   3.810  22.402  0.00  0.00    +0.031 C 
ENDBRANCH  32  35
ENDBRANCH  28  29
BRANCH  28  39
ATOM     39  C   UNL     1       7.303   4.493  22.993  0.00  0.00    -0.011 C 
ATOM     40  C   UNL     1       7.414   5.697  22.044  0.00  0.00    +0.013 C 
ATOM     41  C   UNL     1       7.775   3.234  22.220  0.00  0.00    +0.013 C 
ATOM     42  C   UNL     1       8.294   4.669  24.165  0.00  0.00    +0.013 C 
ENDBRANCH  28  39
ENDBRANCH   8  28
TORSDOF 10
ENDMDL
MODEL 3
REMARK VINA RESULT:      -5.4      2.169      3.335
REMARK  Name = 
REMARK  18 active torsions:
REMARK  status: ('A' for Active; 'I' for Inactive)
REMARK    1  A    between atoms: C_5  and  C_7
REMARK    2  A    between atoms: N_9  and  C_10
REMARK    3  A    between atoms: C_10  and  C_11
REMARK    4  A    between atoms: C_10  and  C_16
REMARK    5  A    between atoms: C_11  and  C_12
REMARK    6  A    between atoms: C_16  and  C_18
REMARK    7  A    between atoms: C_23  and  C_24
REMARK    8  A    between atoms: C_23  and  C_25
REMARK    9  A    between atoms: C_26  and  C_28
REMARK   10  A    between atoms: C_28  and  N_30
REMARK   11  A    between atoms: C_28  and  C_38
REMARK   12  A    between atoms: N_33  and  C_34
REMARK   13  A    between atoms: C_34  and  C_35
REMARK   14  A    between atoms: C_34  and  C_36
REMARK   15  A    between atoms: C_34  and  C_37
REMARK   16  A    between atoms: C_38  and  C_39
REMARK   17  A    between atoms: C_38  and  C_40
REMARK   18  A    between atoms: C_38  and  C_41
REMARK                            x       y       z     vdW  Elec       q    Type
REMARK                         _______ _______ _______ _____ _____    ______ ____
ROOT
ATOM      1  C   UNL     1       7.998   1.863  23.109  0.00  0.00    +0.018 C 
ATOM      2  C   UNL     1       9.135   2.541  23.861  0.00  0.00    -0.025 C 
ATOM      3  C   UNL     1       8.996   4.037  24.032  0.00  0.00    +0.011 C 
ATOM      4  C   UNL     1      10.567   2.104  23.699  0.00  0.00    +0.011 C 
ATOM      5  C   UNL     1       8.133   1.647  24.587  0.00  0.00    +0.030 C 
ATOM      6  C   UNL     1       8.308   0.130  24.833  0.00  0.00    +0.166 C 
ATOM      7  N   UNL     1       7.785  -0.421  23.568  0.00  0.00    -0.288 N 
ATOM      8  C   UNL     1       7.741  -1.755  23.165  0.00  0.00    +0.237 C 
ATOM      9  O   UNL     1       8.095  -2.059  22.020  0.00  0.00    -0.274 OA
ATOM     10  C   UNL     1       8.001   0.519  22.474  0.00  0.00    +0.113 C 
ENDROOT
BRANCH   6  11
ATOM     11  C   UNL     1       7.810  -0.265  26.267  0.00  0.00    +0.234 C 
ATOM     12  N   UNL     1       6.487   0.024  26.521  0.00  0.00    -0.304 N 
ATOM     13  H   UNL     1       5.884   0.371  25.781  0.00  0.00    +0.149 HD
ATOM     14  O   UNL     1       8.521  -0.656  27.190  0.00  0.00    -0.274 OA
BRANCH  12  15
ATOM     15  C   UNL     1       5.861  -0.201  27.822  0.00  0.00    +0.149 C 
BRANCH  15  16
ATOM     16  C   UNL     1       4.522  -0.874  27.545  0.00  0.00    +0.237 C 
ATOM     17  O   UNL     1       3.848  -0.680  26.533  0.00  0.00    -0.285 OA
BRANCH  16  18
ATOM     18  C   UNL     1       3.999  -1.844  28.601  0.00  0.00    +0.279 C 
ATOM     19  O   UNL     1       3.848  -1.514  29.763  0.00  0.00    -0.267 OA
ATOM     20  N   UNL     1       3.715  -3.091  28.116  0.00  0.00    -0.323 N 
ATOM     21  H   UNL     1       3.358  -3.804  28.737  0.00  0.00    +0.145 HD
ATOM     22  H   UNL     1       3.892  -3.308  27.141  0.00  0.00    +0.145 HD
ENDBRANCH  16  18
ENDBRANCH  15  16
BRANCH  15  23
ATOM     23  C   UNL     1       5.759   1.110  28.613  0.00  0.00    +0.034 C 
BRANCH  23  24
ATOM     24  C   UNL     1       5.727   2.347  27.714  0.00  0.00    -0.009 C 
ATOM     25  C   UNL     1       6.971   3.271  27.800  0.00  0.00    +0.003 C 
ATOM     26  C   UNL     1       6.018   4.427  27.422  0.00  0.00    +0.001 C 
ATOM     27  C   UNL     1       4.908   3.609  28.116  0.00  0.00    +0.003 C 
ENDBRANCH  23  24
ENDBRANCH  15  23
ENDBRANCH  12  15
ENDBRANCH   6  11
BRANCH   8  28
ATOM     28  C   UNL     1       7.219  -2.838  24.163  0.00  0.00    +0.166 C 
BRANCH  28  29
ATOM     29  N   UNL     1       6.045  -3.541  23.609  0.00  0.00    -0.288 N 
ATOM     30  H   UNL     1       6.133  -3.887  22.663  0.00  0.00    +0.151 HD
ATOM     31  C   UNL     1       4.952  -3.868  24.354  0.00  0.00    +0.301 C 
ATOM     32  N   UNL     1       3.940  -4.439  23.634  0.00  0.00    -0.295 N 
ATOM     33  H   UNL     1       3.967  -4.283  22.637  0.00  0.00    +0.151 HD
ATOM     34  O   UNL     1       4.897  -3.693  25.566  0.00  0.00    -0.253 OA
BRANCH  32  35
ATOM     35  C   UNL     1       2.669  -4.863  24.245  0.00  0.00    +0.028 C 
ATOM     36  C   UNL     1       2.912  -6.019  25.230  0.00  0.00    +0.031 C 
ATOM     37  C   UNL     1       1.723  -5.368  23.144  0.00  0.00    +0.031 C 
ATOM     38  C   UNL     1       1.965  -3.693  24.965  0.00  0.00    +0.031 C 
ENDBRANCH  32  35
ENDBRANCH  28  29
BRANCH  28  39
ATOM     39  C   UNL     1       8.274  -3.838  24.754  0.00  0.00    -0.011 C 
ATOM     40  C   UNL     1       8.105  -4.043  26.268  0.00  0.00    +0.013 C 
ATOM     41  C   UNL     1       9.702  -3.287  24.506  0.00  0.00    +0.013 C 
ATOM     42  C   UNL     1       8.217  -5.207  24.040  0.00  0.00    +0.013 C 
ENDBRANCH  28  39
ENDBRANCH   8  28
TORSDOF 10
ENDMDL
MODEL 4
REMARK VINA RESULT:      -5.4      1.322      1.793
REMARK  Name = 
REMARK  18 active torsions:
REMARK  status: ('A' for Active; 'I' for Inactive)
REMARK    1  A    between atoms: C_5  and  C_7
REMARK    2  A    between atoms: N_9  and  C_10
REMARK    3  A    between atoms: C_10  and  C_11
REMARK    4  A    between atoms: C_10  and  C_16
REMARK    5  A    between atoms: C_11  and  C_12
REMARK    6  A    between atoms: C_16  and  C_18
REMARK    7  A    between atoms: C_23  and  C_24
REMARK    8  A    between atoms: C_23  and  C_25
REMARK    9  A    between atoms: C_26  and  C_28
REMARK   10  A    between atoms: C_28  and  N_30
REMARK   11  A    between atoms: C_28  and  C_38
REMARK   12  A    between atoms: N_33  and  C_34
REMARK   13  A    between atoms: C_34  and  C_35
REMARK   14  A    between atoms: C_34  and  C_36
REMARK   15  A    between atoms: C_34  and  C_37
REMARK   16  A    between atoms: C_38  and  C_39
REMARK   17  A    between atoms: C_38  and  C_40
REMARK   18  A    between atoms: C_38  and  C_41
REMARK                            x       y       z     vdW  Elec       q    Type
REMARK                         _______ _______ _______ _____ _____    ______ ____
ROOT
ATOM      1  C   UNL     1       4.464   3.451  23.398  0.00  0.00    +0.018 C 
ATOM      2  C   UNL     1       4.540   4.543  24.456  0.00  0.00    -0.025 C 
ATOM      3  C   UNL     1       3.213   5.149  24.855  0.00  0.00    +0.011 C 
ATOM      4  C   UNL     1       5.668   5.539  24.491  0.00  0.00    +0.011 C 
ATOM      5  C   UNL     1       4.789   3.081  24.814  0.00  0.00    +0.030 C 
ATOM      6  C   UNL     1       6.173   2.389  24.821  0.00  0.00    +0.166 C 
ATOM      7  N   UNL     1       6.295   1.995  23.405  0.00  0.00    -0.288 N 
ATOM      8  C   UNL     1       7.376   1.379  22.775  0.00  0.00    +0.237 C 
ATOM      9  O   UNL     1       7.766   1.802  21.681  0.00  0.00    -0.274 OA
ATOM     10  C   UNL     1       5.567   2.927  22.550  0.00  0.00    +0.113 C 
ENDROOT
BRANCH   6  11
ATOM     11  C   UNL     1       6.307   1.418  26.046  0.00  0.00    +0.234 C 
ATOM     12  N   UNL     1       5.269   0.524  26.193  0.00  0.00    -0.304 N 
ATOM     13  H   UNL     1       4.542   0.457  25.487  0.00  0.00    +0.149 HD
ATOM     14  O   UNL     1       7.155   1.495  26.931  0.00  0.00    -0.274 OA
BRANCH  12  15
ATOM     15  C   UNL     1       5.178  -0.409  27.314  0.00  0.00    +0.149 C 
BRANCH  15  16
ATOM     16  C   UNL     1       4.702  -1.735  26.733  0.00  0.00    +0.237 C 
ATOM     17  O   UNL     1       4.006  -1.836  25.722  0.00  0.00    -0.285 OA
BRANCH  16  18
ATOM     18  C   UNL     1       5.123  -3.007  27.465  0.00  0.00    +0.279 C 
ATOM     19  O   UNL     1       4.490  -3.450  28.406  0.00  0.00    -0.267 OA
ATOM     20  N   UNL     1       6.252  -3.590  26.960  0.00  0.00    -0.323 N 
ATOM     21  H   UNL     1       6.609  -4.440  27.373  0.00  0.00    +0.145 HD
ATOM     22  H   UNL     1       6.748  -3.151  26.191  0.00  0.00    +0.145 HD
ENDBRANCH  16  18
ENDBRANCH  15  16
BRANCH  15  23
ATOM     23  C   UNL     1       4.279   0.155  28.422  0.00  0.00    +0.034 C 
BRANCH  23  24
ATOM     24  C   UNL     1       3.307   1.221  27.915  0.00  0.00    -0.009 C 
ATOM     25  C   UNL     1       3.600   2.672  28.382  0.00  0.00    +0.003 C 
ATOM     26  C   UNL     1       2.079   2.915  28.259  0.00  0.00    +0.001 C 
ATOM     27  C   UNL     1       1.912   1.415  28.580  0.00  0.00    +0.003 C 
ENDBRANCH  23  24
ENDBRANCH  15  23
ENDBRANCH  12  15
ENDBRANCH   6  11
BRANCH   8  28
ATOM     28  C   UNL     1       8.056   0.147  23.453  0.00  0.00    +0.166 C 
BRANCH  28  29
ATOM     29  N   UNL     1       7.859  -1.073  22.645  0.00  0.00    -0.288 N 
ATOM     30  H   UNL     1       8.253  -1.064  21.714  0.00  0.00    +0.151 HD
ATOM     31  C   UNL     1       7.331  -2.224  23.149  0.00  0.00    +0.301 C 
ATOM     32  N   UNL     1       7.154  -3.208  22.217  0.00  0.00    -0.295 N 
ATOM     33  H   UNL     1       7.135  -2.904  21.254  0.00  0.00    +0.151 HD
ATOM     34  O   UNL     1       7.067  -2.369  24.337  0.00  0.00    -0.253 OA
BRANCH  32  35
ATOM     35  C   UNL     1       6.592  -4.527  22.549  0.00  0.00    +0.028 C 
ATOM     36  C   UNL     1       7.534  -5.281  23.505  0.00  0.00    +0.031 C 
ATOM     37  C   UNL     1       6.458  -5.357  21.263  0.00  0.00    +0.031 C 
ATOM     38  C   UNL     1       5.187  -4.407  23.176  0.00  0.00    +0.031 C 
ENDBRANCH  32  35
ENDBRANCH  28  29
BRANCH  28  39
ATOM     39  C   UNL     1       9.548   0.312  23.910  0.00  0.00    -0.011 C 
ATOM     40  C   UNL     1      10.535  -0.363  22.945  0.00  0.00    +0.013 C 
ATOM     41  C   UNL     1       9.734  -0.334  25.308  0.00  0.00    +0.013 C 
ATOM     42  C   UNL     1       9.927   1.800  24.076  0.00  0.00    +0.013 C 
ENDBRANCH  28  39
ENDBRANCH   8  28
TORSDOF 10
ENDMDL
MODEL 5
REMARK VINA RESULT:      -5.3      2.317      6.297
REMARK  Name = 
REMARK  18 active torsions:
REMARK  status: ('A' for Active; 'I' for Inactive)
REMARK    1  A    between atoms: C_5  and  C_7
REMARK    2  A    between atoms: N_9  and  C_10
REMARK    3  A    between atoms: C_10  and  C_11
REMARK    4  A    between atoms: C_10  and  C_16
REMARK    5  A    between atoms: C_11  and  C_12
REMARK    6  A    between atoms: C_16  and  C_18
REMARK    7  A    between atoms: C_23  and  C_24
REMARK    8  A    between atoms: C_23  and  C_25
REMARK    9  A    between atoms: C_26  and  C_28
REMARK   10  A    between atoms: C_28  and  N_30
REMARK   11  A    between atoms: C_28  and  C_38
REMARK   12  A    between atoms: N_33  and  C_34
REMARK   13  A    between atoms: C_34  and  C_35
REMARK   14  A    between atoms: C_34  and  C_36
REMARK   15  A    between atoms: C_34  and  C_37
REMARK   16  A    between atoms: C_38  and  C_39
REMARK   17  A    between atoms: C_38  and  C_40
REMARK   18  A    between atoms: C_38  and  C_41
REMARK                            x       y       z     vdW  Elec       q    Type
REMARK                         _______ _______ _______ _____ _____    ______ ____
ROOT
ATOM      1  C   UNL     1       4.662   2.027  28.376  0.00  0.00    +0.018 C 
ATOM      2  C   UNL     1       5.448   1.118  29.311  0.00  0.00    -0.025 C 
ATOM      3  C   UNL     1       4.624   0.399  30.357  0.00  0.00    +0.011 C 
ATOM      4  C   UNL     1       6.823   1.480  29.802  0.00  0.00    +0.011 C 
ATOM      5  C   UNL     1       5.224   0.741  27.848  0.00  0.00    +0.030 C 
ATOM      6  C   UNL     1       6.184   1.081  26.684  0.00  0.00    +0.166 C 
ATOM      7  N   UNL     1       5.729   2.441  26.336  0.00  0.00    -0.288 N 
ATOM      8  C   UNL     1       6.266   3.308  25.384  0.00  0.00    +0.237 C 
ATOM      9  O   UNL     1       6.448   4.495  25.676  0.00  0.00    -0.274 OA
ATOM     10  C   UNL     1       5.188   3.115  27.511  0.00  0.00    +0.113 C 
ENDROOT
BRANCH   6  11
ATOM     11  C   UNL     1       6.297  -0.121  25.682  0.00  0.00    +0.234 C 
ATOM     12  N   UNL     1       7.095  -1.159  26.111  0.00  0.00    -0.304 N 
ATOM     13  H   UNL     1       7.482  -1.158  27.050  0.00  0.00    +0.149 HD
ATOM     14  O   UNL     1       5.869  -0.136  24.531  0.00  0.00    -0.274 OA
BRANCH  12  15
ATOM     15  C   UNL     1       7.383  -2.331  25.287  0.00  0.00    +0.149 C 
BRANCH  15  16
ATOM     16  C   UNL     1       7.007  -3.548  26.124  0.00  0.00    +0.237 C 
ATOM     17  O   UNL     1       6.385  -3.491  27.186  0.00  0.00    -0.285 OA
BRANCH  16  18
ATOM     18  C   UNL     1       7.440  -4.915  25.599  0.00  0.00    +0.279 C 
ATOM     19  O   UNL     1       7.180  -5.284  24.469  0.00  0.00    -0.267 OA
ATOM     20  N   UNL     1       8.141  -5.660  26.506  0.00  0.00    -0.323 N 
ATOM     21  H   UNL     1       8.476  -6.579  26.252  0.00  0.00    +0.145 HD
ATOM     22  H   UNL     1       8.297  -5.303  27.443  0.00  0.00    +0.145 HD
ENDBRANCH  16  18
ENDBRANCH  15  16
BRANCH  15  23
ATOM     23  C   UNL     1       8.841  -2.318  24.808  0.00  0.00    +0.034 C 
BRANCH  23  24
ATOM     24  C   UNL     1       9.052  -1.444  23.571  0.00  0.00    -0.009 C 
ATOM     25  C   UNL     1       8.381  -1.954  22.268  0.00  0.00    +0.003 C 
ATOM     26  C   UNL     1       9.524  -1.238  21.514  0.00  0.00    +0.001 C 
ATOM     27  C   UNL     1      10.385  -1.503  22.767  0.00  0.00    +0.003 C 
ENDBRANCH  23  24
ENDBRANCH  15  23
ENDBRANCH  12  15
ENDBRANCH   6  11
BRANCH   8  28
ATOM     28  C   UNL     1       6.601   2.765  23.958  0.00  0.00    +0.166 C 
BRANCH  28  29
ATOM     29  N   UNL     1       5.767   3.427  22.935  0.00  0.00    -0.288 N 
ATOM     30  H   UNL     1       6.260   3.867  22.169  0.00  0.00    +0.151 HD
ATOM     31  C   UNL     1       4.408   3.327  22.902  0.00  0.00    +0.301 C 
ATOM     32  N   UNL     1       3.820   4.083  21.927  0.00  0.00    -0.295 N 
ATOM     33  H   UNL     1       4.380   4.836  21.555  0.00  0.00    +0.151 HD
ATOM     34  O   UNL     1       3.777   2.601  23.662  0.00  0.00    -0.253 OA
BRANCH  32  35
ATOM     35  C   UNL     1       2.363   4.124  21.722  0.00  0.00    +0.028 C 
ATOM     36  C   UNL     1       1.864   2.773  21.180  0.00  0.00    +0.031 C 
ATOM     37  C   UNL     1       2.029   5.205  20.682  0.00  0.00    +0.031 C 
ATOM     38  C   UNL     1       1.614   4.480  23.024  0.00  0.00    +0.031 C 
ENDBRANCH  32  35
ENDBRANCH  28  29
BRANCH  28  39
ATOM     39  C   UNL     1       8.113   2.725  23.543  0.00  0.00    -0.011 C 
ATOM     40  C   UNL     1       8.995   2.042  24.602  0.00  0.00    +0.013 C 
ATOM     41  C   UNL     1       8.636   4.172  23.352  0.00  0.00    +0.013 C 
ATOM     42  C   UNL     1       8.307   2.020  22.182  0.00  0.00    +0.013 C 
ENDBRANCH  28  39
ENDBRANCH   8  28
TORSDOF 10
ENDMDL
MODEL 6
REMARK VINA RESULT:      -5.2      2.378      6.987
REMARK  Name = 
REMARK  18 active torsions:
REMARK  status: ('A' for Active; 'I' for Inactive)
REMARK    1  A    between atoms: C_5  and  C_7
REMARK    2  A    between atoms: N_9  and  C_10
REMARK    3  A    between atoms: C_10  and  C_11
REMARK    4  A    between atoms: C_10  and  C_16
REMARK    5  A    between atoms: C_11  and  C_12
REMARK    6  A    between atoms: C_16  and  C_18
REMARK    7  A    between atoms: C_23  and  C_24
REMARK    8  A    between atoms: C_23  and  C_25
REMARK    9  A    between atoms: C_26  and  C_28
REMARK   10  A    between atoms: C_28  and  N_30
REMARK   11  A    between atoms: C_28  and  C_38
REMARK   12  A    between atoms: N_33  and  C_34
REMARK   13  A    between atoms: C_34  and  C_35
REMARK   14  A    between atoms: C_34  and  C_36
REMARK   15  A    between atoms: C_34  and  C_37
REMARK   16  A    between atoms: C_38  and  C_39
REMARK   17  A    between atoms: C_38  and  C_40
REMARK   18  A    between atoms: C_38  and  C_41
REMARK                            x       y       z     vdW  Elec       q    Type
REMARK                         _______ _______ _______ _____ _____    ______ ____
ROOT
ATOM      1  C   UNL     1      10.275   0.050  24.444  0.00  0.00    +0.018 C 
ATOM      2  C   UNL     1       9.800  -0.970  23.419  0.00  0.00    -0.025 C 
ATOM      3  C   UNL     1      10.108  -2.413  23.752  0.00  0.00    +0.011 C 
ATOM      4  C   UNL     1       9.846  -0.692  21.940  0.00  0.00    +0.011 C 
ATOM      5  C   UNL     1       8.808  -0.231  24.313  0.00  0.00    +0.030 C 
ATOM      6  C   UNL     1       8.099   1.095  23.950  0.00  0.00    +0.166 C 
ATOM      7  N   UNL     1       9.113   2.079  24.373  0.00  0.00    -0.288 N 
ATOM      8  C   UNL     1       9.073   3.467  24.237  0.00  0.00    +0.237 C 
ATOM      9  O   UNL     1      10.071   4.068  23.824  0.00  0.00    -0.274 OA
ATOM     10  C   UNL     1      10.453   1.513  24.256  0.00  0.00    +0.113 C 
ENDROOT
BRANCH   6  11
ATOM     11  C   UNL     1       6.603   1.077  24.422  0.00  0.00    +0.234 C 
ATOM     12  N   UNL     1       6.334   0.211  25.459  0.00  0.00    -0.304 N 
ATOM     13  H   UNL     1       7.087  -0.285  25.926  0.00  0.00    +0.149 HD
ATOM     14  O   UNL     1       5.667   1.640  23.859  0.00  0.00    -0.274 OA
BRANCH  12  15
ATOM     15  C   UNL     1       4.987  -0.001  25.987  0.00  0.00    +0.149 C 
BRANCH  15  16
ATOM     16  C   UNL     1       4.831   0.954  27.164  0.00  0.00    +0.237 C 
ATOM     17  O   UNL     1       3.940   1.800  27.254  0.00  0.00    -0.285 OA
BRANCH  16  18
ATOM     18  C   UNL     1       5.854   0.841  28.292  0.00  0.00    +0.279 C 
ATOM     19  O   UNL     1       7.051   0.922  28.088  0.00  0.00    -0.267 OA
ATOM     20  N   UNL     1       5.298   0.654  29.528  0.00  0.00    -0.323 N 
ATOM     21  H   UNL     1       5.893   0.573  30.341  0.00  0.00    +0.145 HD
ATOM     22  H   UNL     1       4.292   0.566  29.623  0.00  0.00    +0.145 HD
ENDBRANCH  16  18
ENDBRANCH  15  16
BRANCH  15  23
ATOM     23  C   UNL     1       4.763  -1.478  26.335  0.00  0.00    +0.034 C 
BRANCH  23  24
ATOM     24  C   UNL     1       6.002  -2.342  26.090  0.00  0.00    -0.009 C 
ATOM     25  C   UNL     1       5.899  -3.340  24.905  0.00  0.00    +0.003 C 
ATOM     26  C   UNL     1       6.892  -4.225  25.692  0.00  0.00    +0.001 C 
ATOM     27  C   UNL     1       6.291  -3.596  26.966  0.00  0.00    +0.003 C 
ENDBRANCH  23  24
ENDBRANCH  15  23
ENDBRANCH  12  15
ENDBRANCH   6  11
BRANCH   8  28
ATOM     28  C   UNL     1       7.773   4.236  24.635  0.00  0.00    +0.166 C 
BRANCH  28  29
ATOM     29  N   UNL     1       7.990   5.035  25.858  0.00  0.00    -0.288 N 
ATOM     30  H   UNL     1       8.658   5.791  25.788  0.00  0.00    +0.151 HD
ATOM     31  C   UNL     1       7.232   4.899  26.982  0.00  0.00    +0.301 C 
ATOM     32  N   UNL     1       7.649   5.671  28.030  0.00  0.00    -0.295 N 
ATOM     33  H   UNL     1       8.601   6.005  27.979  0.00  0.00    +0.151 HD
ATOM     34  O   UNL     1       6.247   4.171  27.034  0.00  0.00    -0.253 OA
BRANCH  32  35
ATOM     35  C   UNL     1       6.973   5.670  29.337  0.00  0.00    +0.028 C 
ATOM     36  C   UNL     1       5.571   6.291  29.212  0.00  0.00    +0.031 C 
ATOM     37  C   UNL     1       7.783   6.524  30.326  0.00  0.00    +0.031 C 
ATOM     38  C   UNL     1       6.871   4.247  29.926  0.00  0.00    +0.031 C 
ENDBRANCH  32  35
ENDBRANCH  28  29
BRANCH  28  39
ATOM     39  C   UNL     1       7.058   5.067  23.513  0.00  0.00    -0.011 C 
ATOM     40  C   UNL     1       7.622   6.491  23.387  0.00  0.00    +0.013 C 
ATOM     41  C   UNL     1       5.547   5.181  23.840  0.00  0.00    +0.013 C 
ATOM     42  C   UNL     1       7.143   4.357  22.143  0.00  0.00    +0.013 C 
ENDBRANCH  28  39
ENDBRANCH   8  28
TORSDOF 10
ENDMDL
MODEL 7
REMARK VINA RESULT:      -5.2      2.135      7.120
REMARK  Name = 
REMARK  18 active torsions:
REMARK  status: ('A' for Active; 'I' for Inactive)
REMARK    1  A    between atoms: C_5  and  C_7
REMARK    2  A    between atoms: N_9  and  C_10
REMARK    3  A    between atoms: C_10  and  C_11
REMARK    4  A    between atoms: C_10  and  C_16
REMARK    5  A    between atoms: C_11  and  C_12
REMARK    6  A    between atoms: C_16  and  C_18
REMARK    7  A    between atoms: C_23  and  C_24
REMARK    8  A    between atoms: C_23  and  C_25
REMARK    9  A    between atoms: C_26  and  C_28
REMARK   10  A    between atoms: C_28  and  N_30
REMARK   11  A    between atoms: C_28  and  C_38
REMARK   12  A    between atoms: N_33  and  C_34
REMARK   13  A    between atoms: C_34  and  C_35
REMARK   14  A    between atoms: C_34  and  C_36
REMARK   15  A    between atoms: C_34  and  C_37
REMARK   16  A    between atoms: C_38  and  C_39
REMARK   17  A    between atoms: C_38  and  C_40
REMARK   18  A    between atoms: C_38  and  C_41
REMARK                            x       y       z     vdW  Elec       q    Type
REMARK                         _______ _______ _______ _____ _____    ______ ____
ROOT
ATOM      1  C   UNL     1       6.053  -2.699  24.082  0.00  0.00    +0.018 C 
ATOM      2  C   UNL     1       7.339  -3.411  24.476  0.00  0.00    -0.025 C 
ATOM      3  C   UNL     1       7.931  -4.311  23.414  0.00  0.00    +0.011 C 
ATOM      4  C   UNL     1       7.565  -3.930  25.870  0.00  0.00    +0.011 C 
ATOM      5  C   UNL     1       7.321  -1.909  24.204  0.00  0.00    +0.030 C 
ATOM      6  C   UNL     1       7.099  -0.813  25.273  0.00  0.00    +0.166 C 
ATOM      7  N   UNL     1       5.626  -0.757  25.315  0.00  0.00    -0.288 N 
ATOM      8  C   UNL     1       4.819   0.013  26.151  0.00  0.00    +0.237 C 
ATOM      9  O   UNL     1       3.844  -0.507  26.707  0.00  0.00    -0.274 OA
ATOM     10  C   UNL     1       5.056  -2.058  24.978  0.00  0.00    +0.113 C 
ENDROOT
BRANCH   6  11
ATOM     11  C   UNL     1       8.045   0.413  25.022  0.00  0.00    +0.234 C 
ATOM     12  N   UNL     1       7.631   1.269  24.025  0.00  0.00    -0.304 N 
ATOM     13  H   UNL     1       6.728   1.142  23.578  0.00  0.00    +0.149 HD
ATOM     14  O   UNL     1       9.155   0.575  25.522  0.00  0.00    -0.274 OA
BRANCH  12  15
ATOM     15  C   UNL     1       8.416   2.425  23.595  0.00  0.00    +0.149 C 
BRANCH  15  16
ATOM     16  C   UNL     1       9.674   1.871  22.938  0.00  0.00    +0.237 C 
ATOM     17  O   UNL     1      10.816   2.247  23.204  0.00  0.00    -0.285 OA
BRANCH  16  18
ATOM     18  C   UNL     1       9.487   0.782  21.883  0.00  0.00    +0.279 C 
ATOM     19  O   UNL     1       9.927  -0.343  22.032  0.00  0.00    -0.267 OA
ATOM     20  N   UNL     1       8.782   1.190  20.784  0.00  0.00    -0.323 N 
ATOM     21  H   UNL     1       8.600   0.541  20.032  0.00  0.00    +0.145 HD
ATOM     22  H   UNL     1       8.469   2.153  20.712  0.00  0.00    +0.145 HD
ENDBRANCH  16  18
ENDBRANCH  15  16
BRANCH  15  23
ATOM     23  C   UNL     1       8.681   3.373  24.771  0.00  0.00    +0.034 C 
BRANCH  23  24
ATOM     24  C   UNL     1       8.455   4.843  24.413  0.00  0.00    -0.009 C 
ATOM     25  C   UNL     1       7.716   5.100  23.072  0.00  0.00    +0.003 C 
ATOM     26  C   UNL     1       8.501   6.430  23.007  0.00  0.00    +0.001 C 
ATOM     27  C   UNL     1       9.602   5.706  23.809  0.00  0.00    +0.003 C 
ENDBRANCH  23  24
ENDBRANCH  15  23
ENDBRANCH  12  15
ENDBRANCH   6  11
BRANCH   8  28
ATOM     28  C   UNL     1       5.148   1.527  26.349  0.00  0.00    +0.166 C 
BRANCH  28  29
ATOM     29  N   UNL     1       4.061   2.375  25.821  0.00  0.00    -0.288 N 
ATOM     30  H   UNL     1       3.341   2.644  26.478  0.00  0.00    +0.151 HD
ATOM     31  C   UNL     1       4.079   2.920  24.572  0.00  0.00    +0.301 C 
ATOM     32  N   UNL     1       2.939   3.601  24.247  0.00  0.00    -0.295 N 
ATOM     33  H   UNL     1       2.123   3.382  24.799  0.00  0.00    +0.151 HD
ATOM     34  O   UNL     1       5.045   2.830  23.823  0.00  0.00    -0.253 OA
BRANCH  32  35
ATOM     35  C   UNL     1       2.751   4.261  22.945  0.00  0.00    +0.028 C 
ATOM     36  C   UNL     1       3.859   5.303  22.711  0.00  0.00    +0.031 C 
ATOM     37  C   UNL     1       1.401   4.995  22.940  0.00  0.00    +0.031 C 
ATOM     38  C   UNL     1       2.731   3.241  21.786  0.00  0.00    +0.031 C 
ENDBRANCH  32  35
ENDBRANCH  28  29
BRANCH  28  39
ATOM     39  C   UNL     1       5.602   1.983  27.780  0.00  0.00    -0.011 C 
ATOM     40  C   UNL     1       6.491   3.237  27.743  0.00  0.00    +0.013 C 
ATOM     41  C   UNL     1       6.415   0.845  28.450  0.00  0.00    +0.013 C 
ATOM     42  C   UNL     1       4.390   2.239  28.703  0.00  0.00    +0.013 C 
ENDBRANCH  28  39
ENDBRANCH   8  28
TORSDOF 10
ENDMDL
MODEL 8
REMARK VINA RESULT:      -5.1      2.270      7.485
REMARK  Name = 
REMARK  18 active torsions:
REMARK  status: ('A' for Active; 'I' for Inactive)
REMARK    1  A    between atoms: C_5  and  C_7
REMARK    2  A    between atoms: N_9  and  C_10
REMARK    3  A    between atoms: C_10  and  C_11
REMARK    4  A    between atoms: C_10  and  C_16
REMARK    5  A    between atoms: C_11  and  C_12
REMARK    6  A    between atoms: C_16  and  C_18
REMARK    7  A    between atoms: C_23  and  C_24
REMARK    8  A    between atoms: C_23  and  C_25
REMARK    9  A    between atoms: C_26  and  C_28
REMARK   10  A    between atoms: C_28  and  N_30
REMARK   11  A    between atoms: C_28  and  C_38
REMARK   12  A    between atoms: N_33  and  C_34
REMARK   13  A    between atoms: C_34  and  C_35
REMARK   14  A    between atoms: C_34  and  C_36
REMARK   15  A    between atoms: C_34  and  C_37
REMARK   16  A    between atoms: C_38  and  C_39
REMARK   17  A    between atoms: C_38  and  C_40
REMARK   18  A    between atoms: C_38  and  C_41
REMARK                            x       y       z     vdW  Elec       q    Type
REMARK                         _______ _______ _______ _____ _____    ______ ____
ROOT
ATOM      1  C   UNL     1       5.384  -2.743  24.605  0.00  0.00    +0.018 C 
ATOM      2  C   UNL     1       6.714  -3.457  24.797  0.00  0.00    -0.025 C 
ATOM      3  C   UNL     1       7.077  -4.451  23.715  0.00  0.00    +0.011 C 
ATOM      4  C   UNL     1       7.203  -3.875  26.158  0.00  0.00    +0.011 C 
ATOM      5  C   UNL     1       6.661  -1.980  24.415  0.00  0.00    +0.030 C 
ATOM      6  C   UNL     1       6.665  -0.801  25.416  0.00  0.00    +0.166 C 
ATOM      7  N   UNL     1       5.229  -0.703  25.739  0.00  0.00    -0.288 N 
ATOM      8  C   UNL     1       4.610   0.150  26.653  0.00  0.00    +0.237 C 
ATOM      9  O   UNL     1       3.757  -0.300  27.426  0.00  0.00    -0.274 OA
ATOM     10  C   UNL     1       4.589  -2.009  25.624  0.00  0.00    +0.113 C 
ENDROOT
BRANCH   6  11
ATOM     11  C   UNL     1       7.557   0.377  24.890  0.00  0.00    +0.234 C 
ATOM     12  N   UNL     1       7.377   0.690  23.561  0.00  0.00    -0.304 N 
ATOM     13  H   UNL     1       6.642   0.243  23.020  0.00  0.00    +0.149 HD
ATOM     14  O   UNL     1       8.473   0.913  25.509  0.00  0.00    -0.274 OA
BRANCH  12  15
ATOM     15  C   UNL     1       8.169   1.707  22.871  0.00  0.00    +0.149 C 
BRANCH  15  16
ATOM     16  C   UNL     1       7.299   2.956  22.801  0.00  0.00    +0.237 C 
ATOM     17  O   UNL     1       6.476   3.177  21.911  0.00  0.00    -0.285 OA
BRANCH  16  18
ATOM     18  C   UNL     1       7.474   3.989  23.912  0.00  0.00    +0.279 C 
ATOM     19  O   UNL     1       8.496   4.063  24.569  0.00  0.00    -0.267 OA
ATOM     20  N   UNL     1       6.393   4.810  24.081  0.00  0.00    -0.323 N 
ATOM     21  H   UNL     1       6.414   5.531  24.788  0.00  0.00    +0.145 HD
ATOM     22  H   UNL     1       5.561   4.674  23.517  0.00  0.00    +0.145 HD
ENDBRANCH  16  18
ENDBRANCH  15  16
BRANCH  15  23
ATOM     23  C   UNL     1       8.648   1.193  21.507  0.00  0.00    +0.034 C 
BRANCH  23  24
ATOM     24  C   UNL     1       9.697   0.085  21.624  0.00  0.00    -0.009 C 
ATOM     25  C   UNL     1       9.138  -1.349  21.821  0.00  0.00    +0.003 C 
ATOM     26  C   UNL     1      10.450  -1.652  22.578  0.00  0.00    +0.001 C 
ATOM     27  C   UNL     1      10.462  -0.157  22.958  0.00  0.00    +0.003 C 
ENDBRANCH  23  24
ENDBRANCH  15  23
ENDBRANCH  12  15
ENDBRANCH   6  11
BRANCH   8  28
ATOM     28  C   UNL     1       4.989   1.665  26.661  0.00  0.00    +0.166 C 
BRANCH  28  29
ATOM     29  N   UNL     1       3.809   2.504  26.368  0.00  0.00    -0.288 N 
ATOM     30  H   UNL     1       3.340   2.913  27.165  0.00  0.00    +0.151 HD
ATOM     31  C   UNL     1       3.445   2.863  25.106  0.00  0.00    +0.301 C 
ATOM     32  N   UNL     1       2.276   3.569  25.045  0.00  0.00    -0.295 N 
ATOM     33  H   UNL     1       1.671   3.489  25.849  0.00  0.00    +0.151 HD
ATOM     34  O   UNL     1       4.123   2.601  24.119  0.00  0.00    -0.253 OA
BRANCH  32  35
ATOM     35  C   UNL     1       1.701   4.049  23.778  0.00  0.00    +0.028 C 
ATOM     36  C   UNL     1       0.580   5.066  24.054  0.00  0.00    +0.031 C 
ATOM     37  C   UNL     1       1.088   2.862  23.019  0.00  0.00    +0.031 C 
ATOM     38  C   UNL     1       2.775   4.681  22.867  0.00  0.00    +0.031 C 
ENDBRANCH  32  35
ENDBRANCH  28  29
BRANCH  28  39
ATOM     39  C   UNL     1       5.792   2.197  27.900  0.00  0.00    -0.011 C 
ATOM     40  C   UNL     1       6.653   1.105  28.555  0.00  0.00    +0.013 C 
ATOM     41  C   UNL     1       4.801   2.725  28.969  0.00  0.00    +0.013 C 
ATOM     42  C   UNL     1       6.686   3.398  27.520  0.00  0.00    +0.013 C 
ENDBRANCH  28  39
ENDBRANCH   8  28
TORSDOF 10
ENDMDL
MODEL 9
REMARK VINA RESULT:      -5.1      2.905      7.058
REMARK  Name = 
REMARK  18 active torsions:
REMARK  status: ('A' for Active; 'I' for Inactive)
REMARK    1  A    between atoms: C_5  and  C_7
REMARK    2  A    between atoms: N_9  and  C_10
REMARK    3  A    between atoms: C_10  and  C_11
REMARK    4  A    between atoms: C_10  and  C_16
REMARK    5  A    between atoms: C_11  and  C_12
REMARK    6  A    between atoms: C_16  and  C_18
REMARK    7  A    between atoms: C_23  and  C_24
REMARK    8  A    between atoms: C_23  and  C_25
REMARK    9  A    between atoms: C_26  and  C_28
REMARK   10  A    between atoms: C_28  and  N_30
REMARK   11  A    between atoms: C_28  and  C_38
REMARK   12  A    between atoms: N_33  and  C_34
REMARK   13  A    between atoms: C_34  and  C_35
REMARK   14  A    between atoms: C_34  and  C_36
REMARK   15  A    between atoms: C_34  and  C_37
REMARK   16  A    between atoms: C_38  and  C_39
REMARK   17  A    between atoms: C_38  and  C_40
REMARK   18  A    between atoms: C_38  and  C_41
REMARK                            x       y       z     vdW  Elec       q    Type
REMARK                         _______ _______ _______ _____ _____    ______ ____
ROOT
ATOM      1  C   UNL     1       6.174   0.833  28.069  0.00  0.00    +0.018 C 
ATOM      2  C   UNL     1       4.803   0.177  27.989  0.00  0.00    -0.025 C 
ATOM      3  C   UNL     1       3.795   0.660  29.009  0.00  0.00    +0.011 C 
ATOM      4  C   UNL     1       4.637  -1.281  27.653  0.00  0.00    +0.011 C 
ATOM      5  C   UNL     1       5.266   1.167  26.924  0.00  0.00    +0.030 C 
ATOM      6  C   UNL     1       5.992   0.789  25.612  0.00  0.00    +0.166 C 
ATOM      7  N   UNL     1       7.392   0.732  26.074  0.00  0.00    -0.288 N 
ATOM      8  C   UNL     1       8.524   0.370  25.344  0.00  0.00    +0.237 C 
ATOM      9  O   UNL     1       9.350  -0.403  25.841  0.00  0.00    -0.274 OA
ATOM     10  C   UNL     1       7.450   0.348  27.481  0.00  0.00    +0.113 C 
ENDROOT
BRANCH   6  11
ATOM     11  C   UNL     1       5.469   1.655  24.413  0.00  0.00    +0.234 C 
ATOM     12  N   UNL     1       4.472   2.548  24.736  0.00  0.00    -0.304 N 
ATOM     13  H   UNL     1       4.192   2.682  25.703  0.00  0.00    +0.149 HD
ATOM     14  O   UNL     1       5.764   1.494  23.231  0.00  0.00    -0.274 OA
BRANCH  12  15
ATOM     15  C   UNL     1       3.806   3.388  23.742  0.00  0.00    +0.149 C 
BRANCH  15  16
ATOM     16  C   UNL     1       4.357   4.796  23.930  0.00  0.00    +0.237 C 
ATOM     17  O   UNL     1       4.096   5.518  24.894  0.00  0.00    -0.285 OA
BRANCH  16  18
ATOM     18  C   UNL     1       5.288   5.330  22.844  0.00  0.00    +0.279 C 
ATOM     19  O   UNL     1       5.535   6.517  22.732  0.00  0.00    -0.267 OA
ATOM     20  N   UNL     1       5.810   4.359  22.034  0.00  0.00    -0.323 N 
ATOM     21  H   UNL     1       6.442   4.612  21.288  0.00  0.00    +0.145 HD
ATOM     22  H   UNL     1       5.538   3.391  22.166  0.00  0.00    +0.145 HD
ENDBRANCH  16  18
ENDBRANCH  15  16
BRANCH  15  23
ATOM     23  C   UNL     1       2.281   3.282  23.871  0.00  0.00    +0.034 C 
BRANCH  23  24
ATOM     24  C   UNL     1       1.557   3.468  22.536  0.00  0.00    -0.009 C 
ATOM     25  C   UNL     1       0.562   2.340  22.151  0.00  0.00    +0.003 C 
ATOM     26  C   UNL     1       0.876   2.698  20.681  0.00  0.00    +0.001 C 
ATOM     27  C   UNL     1       2.264   3.141  21.188  0.00  0.00    +0.003 C 
ENDBRANCH  23  24
ENDBRANCH  15  23
ENDBRANCH  12  15
ENDBRANCH   6  11
BRANCH   8  28
ATOM     28  C   UNL     1       8.739   0.974  23.919  0.00  0.00    +0.166 C 
BRANCH  28  29
ATOM     29  N   UNL     1       9.655   2.130  23.971  0.00  0.00    -0.288 N 
ATOM     30  H   UNL     1      10.627   1.943  23.762  0.00  0.00    +0.151 HD
ATOM     31  C   UNL     1       9.227   3.415  24.121  0.00  0.00    +0.301 C 
ATOM     32  N   UNL     1      10.238   4.328  24.230  0.00  0.00    -0.295 N 
ATOM     33  H   UNL     1      11.140   3.957  24.491  0.00  0.00    +0.151 HD
ATOM     34  O   UNL     1       8.040   3.723  24.129  0.00  0.00    -0.253 OA
BRANCH  32  35
ATOM     35  C   UNL     1       9.994   5.769  24.405  0.00  0.00    +0.028 C 
ATOM     36  C   UNL     1      11.329   6.525  24.518  0.00  0.00    +0.031 C 
ATOM     37  C   UNL     1       9.210   5.994  25.707  0.00  0.00    +0.031 C 
ATOM     38  C   UNL     1       9.154   6.350  23.248  0.00  0.00    +0.031 C 
ENDBRANCH  32  35
ENDBRANCH  28  29
BRANCH  28  39
ATOM     39  C   UNL     1       9.118  -0.022  22.767  0.00  0.00    -0.011 C 
ATOM     40  C   UNL     1      10.540  -0.585  22.923  0.00  0.00    +0.013 C 
ATOM     41  C   UNL     1       9.044   0.713  21.404  0.00  0.00    +0.013 C 
ATOM     42  C   UNL     1       8.110  -1.190  22.675  0.00  0.00    +0.013 C 
ENDBRANCH  28  39
ENDBRANCH   8  28
TORSDOF 10
ENDMDL
