MODEL 1
REMARK VINA RESULT:      -7.3      0.000      0.000
REMARK  Name = 
REMARK  11 active torsions:
REMARK  status: ('A' for Active; 'I' for Inactive)
REMARK    1  A    between atoms: C_1  and  C_2
REMARK    2  A    between atoms: C_4  and  N_5
REMARK    3  A    between atoms: C_6  and  C_8
REMARK    4  A    between atoms: C_8  and  C_9
REMARK    5  A    between atoms: C_12  and  O_13
REMARK    6  A    between atoms: O_13  and  C_14
REMARK    7  A    between atoms: C_14  and  C_15
REMARK    8  A    between atoms: C_14  and  C_16
REMARK    9  A    between atoms: C_14  and  C_17
REMARK   10  A    between atoms: C_17  and  O_18
REMARK   11  A    between atoms: C_23  and  C_24
REMARK                            x       y       z     vdW  Elec       q    Type
REMARK                         _______ _______ _______ _____ _____    ______ ____
ROOT
ATOM      1  C   UNL     1       9.271  -1.998  22.623  0.00  0.00    -0.038 A 
ATOM      2  C   UNL     1       8.038  -2.521  22.232  0.00  0.00    +0.007 A 
ATOM      3  C   UNL     1       7.416  -3.517  22.985  0.00  0.00    +0.046 A 
ATOM      4  C   UNL     1       8.019  -4.045  24.123  0.00  0.00    +0.122 A 
ATOM      5  C   UNL     1       9.259  -3.526  24.513  0.00  0.00    +0.046 A 
ATOM      6  C   UNL     1       9.876  -2.502  23.779  0.00  0.00    +0.007 A 
ENDROOT
BRANCH   1   7
ATOM      7  C   UNL     1       9.914  -0.920  21.792  0.00  0.00    +0.131 C 
BRANCH   7  10
ATOM      8  N   UNL     1      10.168   1.102  23.212  0.00  0.00    -0.285 N 
ATOM      9  H   UNL     1      10.919   0.589  23.658  0.00  0.00    +0.155 HD
ATOM     10  C   UNL     1       9.567   0.526  22.103  0.00  0.00    +0.222 C 
ATOM     11  O   UNL     1       8.794   1.109  21.339  0.00  0.00    -0.275 OA
BRANCH   8  18
ATOM     12  C   UNL     1       7.414   4.395  25.745  0.00  0.00    +0.044 C 
ATOM     13  C   UNL     1       8.617   4.059  24.912  0.00  0.00    -0.048 A 
ATOM     14  C   UNL     1       9.543   5.049  24.573  0.00  0.00    +0.006 A 
ATOM     15  C   UNL     1      10.675   4.734  23.809  0.00  0.00    -0.048 A 
ATOM     16  C   UNL     1      11.637   5.825  23.439  0.00  0.00    +0.044 C 
ATOM     17  C   UNL     1      10.876   3.407  23.393  0.00  0.00    +0.026 A 
ATOM     18  C   UNL     1       9.938   2.411  23.695  0.00  0.00    +0.034 A 
ATOM     19  C   UNL     1       8.823   2.749  24.467  0.00  0.00    +0.026 A 
ENDBRANCH   8  18
ENDBRANCH   7  10
ENDBRANCH   1   7
BRANCH   4  20
ATOM     20  O   UNL     1       7.538  -5.080  24.879  0.00  0.00    -0.475 OA
BRANCH  20  21
ATOM     21  C   UNL     1       6.459  -4.902  25.830  0.00  0.00    +0.200 C 
ATOM     22  C   UNL     1       5.304  -5.896  25.638  0.00  0.00    +0.067 C 
ATOM     23  C   UNL     1       6.043  -3.431  25.946  0.00  0.00    +0.067 C 
BRANCH  21  24
ATOM     24  C   UNL     1       7.039  -5.278  27.215  0.00  0.00    +0.348 C 
ATOM     25  O   UNL     1       6.504  -5.025  28.287  0.00  0.00    -0.247 OA
BRANCH  24  26
ATOM     26  O   UNL     1       8.215  -5.953  27.141  0.00  0.00    -0.478 OA
ATOM     27  H   UNL     1       8.209  -6.532  26.352  0.00  0.00    +0.295 HD
ENDBRANCH  24  26
ENDBRANCH  21  24
ENDBRANCH  20  21
ENDBRANCH   4  20
TORSDOF 7
ENDMDL
MODEL 2
REMARK VINA RESULT:      -7.2      0.559      1.805
REMARK  Name = 
REMARK  11 active torsions:
REMARK  status: ('A' for Active; 'I' for Inactive)
REMARK    1  A    between atoms: C_1  and  C_2
REMARK    2  A    between atoms: C_4  and  N_5
REMARK    3  A    between atoms: C_6  and  C_8
REMARK    4  A    between atoms: C_8  and  C_9
REMARK    5  A    between atoms: C_12  and  O_13
REMARK    6  A    between atoms: O_13  and  C_14
REMARK    7  A    between atoms: C_14  and  C_15
REMARK    8  A    between atoms: C_14  and  C_16
REMARK    9  A    between atoms: C_14  and  C_17
REMARK   10  A    between atoms: C_17  and  O_18
REMARK   11  A    between atoms: C_23  and  C_24
REMARK                            x       y       z     vdW  Elec       q    Type
REMARK                         _______ _______ _______ _____ _____    ______ ____
ROOT
ATOM      1  C   UNL     1       9.233  -1.859  22.553  0.00  0.00    -0.038 A 
ATOM      2  C   UNL     1       7.953  -2.350  22.292  0.00  0.00    +0.007 A 
ATOM      3  C   UNL     1       7.380  -3.319  23.117  0.00  0.00    +0.046 A 
ATOM      4  C   UNL     1       8.077  -3.853  24.197  0.00  0.00    +0.122 A 
ATOM      5  C   UNL     1       9.364  -3.367  24.456  0.00  0.00    +0.046 A 
ATOM      6  C   UNL     1       9.934  -2.369  23.651  0.00  0.00    +0.007 A 
ENDROOT
BRANCH   1   7
ATOM      7  C   UNL     1       9.821  -0.809  21.649  0.00  0.00    +0.131 C 
BRANCH   7  10
ATOM      8  N   UNL     1      10.236   1.216  23.024  0.00  0.00    -0.285 N 
ATOM      9  H   UNL     1      11.002   0.685  23.421  0.00  0.00    +0.155 HD
ATOM     10  C   UNL     1       9.540   0.649  21.968  0.00  0.00    +0.222 C 
ATOM     11  O   UNL     1       8.731   1.248  21.255  0.00  0.00    -0.275 OA
BRANCH   8  18
ATOM     12  C   UNL     1      11.891   5.886  23.569  0.00  0.00    +0.044 C 
ATOM     13  C   UNL     1      10.855   4.827  23.810  0.00  0.00    -0.048 A 
ATOM     14  C   UNL     1       9.702   5.118  24.545  0.00  0.00    +0.006 A 
ATOM     15  C   UNL     1       8.726   4.136  24.758  0.00  0.00    -0.048 A 
ATOM     16  C   UNL     1       7.512   4.472  25.574  0.00  0.00    +0.044 C 
ATOM     17  C   UNL     1       8.912   2.852  24.216  0.00  0.00    +0.026 A 
ATOM     18  C   UNL     1      10.080   2.536  23.508  0.00  0.00    +0.034 A 
ATOM     19  C   UNL     1      11.034   3.537  23.301  0.00  0.00    +0.026 A 
ENDBRANCH   8  18
ENDBRANCH   7  10
ENDBRANCH   1   7
BRANCH   4  20
ATOM     20  O   UNL     1       7.644  -4.865  25.010  0.00  0.00    -0.475 OA
BRANCH  20  21
ATOM     21  C   UNL     1       6.521  -4.701  25.911  0.00  0.00    +0.200 C 
ATOM     22  C   UNL     1       5.162  -4.978  25.249  0.00  0.00    +0.067 C 
ATOM     23  C   UNL     1       6.610  -3.387  26.694  0.00  0.00    +0.067 C 
BRANCH  21  24
ATOM     24  C   UNL     1       6.649  -5.824  26.968  0.00  0.00    +0.348 C 
ATOM     25  O   UNL     1       5.757  -6.611  27.260  0.00  0.00    -0.247 OA
BRANCH  24  26
ATOM     26  O   UNL     1       7.876  -5.881  27.547  0.00  0.00    -0.478 OA
ATOM     27  H   UNL     1       8.563  -5.920  26.850  0.00  0.00    +0.295 HD
ENDBRANCH  24  26
ENDBRANCH  21  24
ENDBRANCH  20  21
ENDBRANCH   4  20
TORSDOF 7
ENDMDL
MODEL 3
REMARK VINA RESULT:      -7.0      1.564      2.741
REMARK  Name = 
REMARK  11 active torsions:
REMARK  status: ('A' for Active; 'I' for Inactive)
REMARK    1  A    between atoms: C_1  and  C_2
REMARK    2  A    between atoms: C_4  and  N_5
REMARK    3  A    between atoms: C_6  and  C_8
REMARK    4  A    between atoms: C_8  and  C_9
REMARK    5  A    between atoms: C_12  and  O_13
REMARK    6  A    between atoms: O_13  and  C_14
REMARK    7  A    between atoms: C_14  and  C_15
REMARK    8  A    between atoms: C_14  and  C_16
REMARK    9  A    between atoms: C_14  and  C_17
REMARK   10  A    between atoms: C_17  and  O_18
REMARK   11  A    between atoms: C_23  and  C_24
REMARK                            x       y       z     vdW  Elec       q    Type
REMARK                         _______ _______ _______ _____ _____    ______ ____
ROOT
ATOM      1  C   UNL     1       8.991  -2.164  23.002  0.00  0.00    -0.038 A 
ATOM      2  C   UNL     1       9.243  -3.172  23.933  0.00  0.00    +0.007 A 
ATOM      3  C   UNL     1       8.206  -3.968  24.420  0.00  0.00    +0.046 A 
ATOM      4  C   UNL     1       6.888  -3.759  24.025  0.00  0.00    +0.122 A 
ATOM      5  C   UNL     1       6.631  -2.742  23.097  0.00  0.00    +0.046 A 
ATOM      6  C   UNL     1       7.673  -1.959  22.578  0.00  0.00    +0.007 A 
ENDROOT
BRANCH   1   7
ATOM      7  C   UNL     1      10.132  -1.326  22.492  0.00  0.00    +0.131 C 
BRANCH   7  10
ATOM      8  N   UNL     1      10.258   0.881  23.624  0.00  0.00    -0.285 N 
ATOM      9  H   UNL     1      10.726   0.376  24.367  0.00  0.00    +0.155 HD
ATOM     10  C   UNL     1       9.956   0.183  22.465  0.00  0.00    +0.222 C 
ATOM     11  O   UNL     1       9.581   0.699  21.410  0.00  0.00    -0.275 OA
BRANCH   8  18
ATOM     12  C   UNL     1      11.976   5.542  23.220  0.00  0.00    +0.044 C 
ATOM     13  C   UNL     1      10.917   4.569  23.651  0.00  0.00    -0.048 A 
ATOM     14  C   UNL     1       9.753   5.021  24.278  0.00  0.00    +0.006 A 
ATOM     15  C   UNL     1       8.756   4.116  24.667  0.00  0.00    -0.048 A 
ATOM     16  C   UNL     1       7.529   4.630  25.362  0.00  0.00    +0.044 C 
ATOM     17  C   UNL     1       8.934   2.745  24.411  0.00  0.00    +0.026 A 
ATOM     18  C   UNL     1      10.112   2.275  23.816  0.00  0.00    +0.034 A 
ATOM     19  C   UNL     1      11.087   3.199  23.429  0.00  0.00    +0.026 A 
ENDBRANCH   8  18
ENDBRANCH   7  10
ENDBRANCH   1   7
BRANCH   4  20
ATOM     20  O   UNL     1       5.790  -4.420  24.507  0.00  0.00    -0.475 OA
BRANCH  20  21
ATOM     21  C   UNL     1       5.093  -5.424  23.727  0.00  0.00    +0.200 C 
ATOM     22  C   UNL     1       5.949  -6.026  22.601  0.00  0.00    +0.067 C 
ATOM     23  C   UNL     1       3.700  -4.945  23.303  0.00  0.00    +0.067 C 
BRANCH  21  24
ATOM     24  C   UNL     1       4.849  -6.618  24.680  0.00  0.00    +0.348 C 
ATOM     25  O   UNL     1       5.151  -6.634  25.867  0.00  0.00    -0.247 OA
BRANCH  24  26
ATOM     26  O   UNL     1       4.233  -7.669  24.080  0.00  0.00    -0.478 OA
ATOM     27  H   UNL     1       4.903  -8.230  23.638  0.00  0.00    +0.295 HD
ENDBRANCH  24  26
ENDBRANCH  21  24
ENDBRANCH  20  21
ENDBRANCH   4  20
TORSDOF 7
ENDMDL
MODEL 4
REMARK VINA RESULT:      -7.0      1.553      2.129
REMARK  Name = 
REMARK  11 active torsions:
REMARK  status: ('A' for Active; 'I' for Inactive)
REMARK    1  A    between atoms: C_1  and  C_2
REMARK    2  A    between atoms: C_4  and  N_5
REMARK    3  A    between atoms: C_6  and  C_8
REMARK    4  A    between atoms: C_8  and  C_9
REMARK    5  A    between atoms: C_12  and  O_13
REMARK    6  A    between atoms: O_13  and  C_14
REMARK    7  A    between atoms: C_14  and  C_15
REMARK    8  A    between atoms: C_14  and  C_16
REMARK    9  A    between atoms: C_14  and  C_17
REMARK   10  A    between atoms: C_17  and  O_18
REMARK   11  A    between atoms: C_23  and  C_24
REMARK                            x       y       z     vdW  Elec       q    Type
REMARK                         _______ _______ _______ _____ _____    ______ ____
ROOT
ATOM      1  C   UNL     1       8.983  -2.088  22.935  0.00  0.00    -0.038 A 
ATOM      2  C   UNL     1       9.258  -3.108  23.847  0.00  0.00    +0.007 A 
ATOM      3  C   UNL     1       8.234  -3.915  24.345  0.00  0.00    +0.046 A 
ATOM      4  C   UNL     1       6.908  -3.705  23.980  0.00  0.00    +0.122 A 
ATOM      5  C   UNL     1       6.628  -2.678  23.071  0.00  0.00    +0.046 A 
ATOM      6  C   UNL     1       7.656  -1.884  22.541  0.00  0.00    +0.007 A 
ENDROOT
BRANCH   1   7
ATOM      7  C   UNL     1      10.110  -1.239  22.412  0.00  0.00    +0.131 C 
BRANCH   7  10
ATOM      8  N   UNL     1      10.229   0.936  23.604  0.00  0.00    -0.285 N 
ATOM      9  H   UNL     1      10.693   0.412  24.336  0.00  0.00    +0.155 HD
ATOM     10  C   UNL     1       9.935   0.270  22.425  0.00  0.00    +0.222 C 
ATOM     11  O   UNL     1       9.566   0.814  21.382  0.00  0.00    -0.275 OA
BRANCH   8  18
ATOM     12  C   UNL     1       7.588   4.831  25.249  0.00  0.00    +0.044 C 
ATOM     13  C   UNL     1       8.822   4.259  24.612  0.00  0.00    -0.048 A 
ATOM     14  C   UNL     1       9.863   5.099  24.206  0.00  0.00    +0.006 A 
ATOM     15  C   UNL     1      11.022   4.567  23.625  0.00  0.00    -0.048 A 
ATOM     16  C   UNL     1      12.111   5.497  23.175  0.00  0.00    +0.044 C 
ATOM     17  C   UNL     1      11.133   3.175  23.463  0.00  0.00    +0.026 A 
ATOM     18  C   UNL     1      10.082   2.325  23.832  0.00  0.00    +0.034 A 
ATOM     19  C   UNL     1       8.941   2.880  24.418  0.00  0.00    +0.026 A 
ENDBRANCH   8  18
ENDBRANCH   7  10
ENDBRANCH   1   7
BRANCH   4  20
ATOM     20  O   UNL     1       5.823  -4.378  24.476  0.00  0.00    -0.475 OA
BRANCH  20  21
ATOM     21  C   UNL     1       5.134  -5.397  23.710  0.00  0.00    +0.200 C 
ATOM     22  C   UNL     1       5.992  -6.001  22.587  0.00  0.00    +0.067 C 
ATOM     23  C   UNL     1       3.734  -4.939  23.288  0.00  0.00    +0.067 C 
BRANCH  21  24
ATOM     24  C   UNL     1       4.908  -6.584  24.677  0.00  0.00    +0.348 C 
ATOM     25  O   UNL     1       5.222  -6.587  25.860  0.00  0.00    -0.247 OA
BRANCH  24  26
ATOM     26  O   UNL     1       4.294  -7.645  24.093  0.00  0.00    -0.478 OA
ATOM     27  H   UNL     1       4.963  -8.205  23.649  0.00  0.00    +0.295 HD
ENDBRANCH  24  26
ENDBRANCH  21  24
ENDBRANCH  20  21
ENDBRANCH   4  20
TORSDOF 7
ENDMDL
MODEL 5
REMARK VINA RESULT:      -6.9      2.872      8.748
REMARK  Name = 
REMARK  11 active torsions:
REMARK  status: ('A' for Active; 'I' for Inactive)
REMARK    1  A    between atoms: C_1  and  C_2
REMARK    2  A    between atoms: C_4  and  N_5
REMARK    3  A    between atoms: C_6  and  C_8
REMARK    4  A    between atoms: C_8  and  C_9
REMARK    5  A    between atoms: C_12  and  O_13
REMARK    6  A    between atoms: O_13  and  C_14
REMARK    7  A    between atoms: C_14  and  C_15
REMARK    8  A    between atoms: C_14  and  C_16
REMARK    9  A    between atoms: C_14  and  C_17
REMARK   10  A    between atoms: C_17  and  O_18
REMARK   11  A    between atoms: C_23  and  C_24
REMARK                            x       y       z     vdW  Elec       q    Type
REMARK                         _______ _______ _______ _____ _____    ______ ____
ROOT
ATOM      1  C   UNL     1       9.243   1.343  22.205  0.00  0.00    -0.038 A 
ATOM      2  C   UNL     1       8.107   1.973  21.697  0.00  0.00    +0.007 A 
ATOM      3  C   UNL     1       7.584   3.108  22.316  0.00  0.00    +0.046 A 
ATOM      4  C   UNL     1       8.153   3.625  23.477  0.00  0.00    +0.122 A 
ATOM      5  C   UNL     1       9.289   2.990  23.993  0.00  0.00    +0.046 A 
ATOM      6  C   UNL     1       9.840   1.867  23.357  0.00  0.00    +0.007 A 
ENDROOT
BRANCH   1   7
ATOM      7  C   UNL     1       9.786   0.123  21.510  0.00  0.00    +0.131 C 
BRANCH   7  10
ATOM      8  N   UNL     1       8.301  -1.640  22.433  0.00  0.00    -0.285 N 
ATOM      9  H   UNL     1       7.549  -1.104  22.016  0.00  0.00    +0.155 HD
ATOM     10  C   UNL     1       9.600  -1.226  22.183  0.00  0.00    +0.222 C 
ATOM     11  O   UNL     1      10.611  -1.882  22.444  0.00  0.00    -0.275 OA
BRANCH   8  18
ATOM     12  C   UNL     1       7.910  -4.405  26.561  0.00  0.00    +0.044 C 
ATOM     13  C   UNL     1       7.722  -4.225  25.083  0.00  0.00    -0.048 A 
ATOM     14  C   UNL     1       7.178  -5.252  24.308  0.00  0.00    +0.006 A 
ATOM     15  C   UNL     1       6.988  -5.081  22.930  0.00  0.00    -0.048 A 
ATOM     16  C   UNL     1       6.426  -6.213  22.120  0.00  0.00    +0.044 C 
ATOM     17  C   UNL     1       7.342  -3.858  22.334  0.00  0.00    +0.026 A 
ATOM     18  C   UNL     1       7.922  -2.833  23.093  0.00  0.00    +0.034 A 
ATOM     19  C   UNL     1       8.092  -3.025  24.467  0.00  0.00    +0.026 A 
ENDBRANCH   8  18
ENDBRANCH   7  10
ENDBRANCH   1   7
BRANCH   4  20
ATOM     20  O   UNL     1       7.669   4.674  24.210  0.00  0.00    -0.475 OA
BRANCH  20  21
ATOM     21  C   UNL     1       7.897   6.053  23.823  0.00  0.00    +0.200 C 
ATOM     22  C   UNL     1       9.326   6.318  23.323  0.00  0.00    +0.067 C 
ATOM     23  C   UNL     1       7.384   7.032  24.885  0.00  0.00    +0.067 C 
BRANCH  21  24
ATOM     24  C   UNL     1       7.020   6.300  22.573  0.00  0.00    +0.348 C 
ATOM     25  O   UNL     1       5.796   6.359  22.581  0.00  0.00    -0.247 OA
BRANCH  24  26
ATOM     26  O   UNL     1       7.740   6.475  21.435  0.00  0.00    -0.478 OA
ATOM     27  H   UNL     1       8.485   7.085  21.612  0.00  0.00    +0.295 HD
ENDBRANCH  24  26
ENDBRANCH  21  24
ENDBRANCH  20  21
ENDBRANCH   4  20
TORSDOF 7
ENDMDL
MODEL 6
REMARK VINA RESULT:      -6.8      2.504      8.854
REMARK  Name = 
REMARK  11 active torsions:
REMARK  status: ('A' for Active; 'I' for Inactive)
REMARK    1  A    between atoms: C_1  and  C_2
REMARK    2  A    between atoms: C_4  and  N_5
REMARK    3  A    between atoms: C_6  and  C_8
REMARK    4  A    between atoms: C_8  and  C_9
REMARK    5  A    between atoms: C_12  and  O_13
REMARK    6  A    between atoms: O_13  and  C_14
REMARK    7  A    between atoms: C_14  and  C_15
REMARK    8  A    between atoms: C_14  and  C_16
REMARK    9  A    between atoms: C_14  and  C_17
REMARK   10  A    between atoms: C_17  and  O_18
REMARK   11  A    between atoms: C_23  and  C_24
REMARK                            x       y       z     vdW  Elec       q    Type
REMARK                         _______ _______ _______ _____ _____    ______ ____
ROOT
ATOM      1  C   UNL     1       9.941  -0.599  23.313  0.00  0.00    -0.038 A 
ATOM      2  C   UNL     1       9.829   0.125  22.126  0.00  0.00    +0.007 A 
ATOM      3  C   UNL     1       9.949   1.515  22.126  0.00  0.00    +0.046 A 
ATOM      4  C   UNL     1      10.143   2.224  23.308  0.00  0.00    +0.122 A 
ATOM      5  C   UNL     1      10.248   1.499  24.501  0.00  0.00    +0.046 A 
ATOM      6  C   UNL     1      10.162   0.099  24.505  0.00  0.00    +0.007 A 
ENDROOT
BRANCH   1   7
ATOM      7  C   UNL     1       9.813  -2.099  23.279  0.00  0.00    +0.131 C 
BRANCH   7  10
ATOM      8  N   UNL     1       8.627  -3.934  24.458  0.00  0.00    -0.285 N 
ATOM      9  H   UNL     1       9.554  -4.261  24.701  0.00  0.00    +0.155 HD
ATOM     10  C   UNL     1       8.527  -2.720  23.797  0.00  0.00    +0.222 C 
ATOM     11  O   UNL     1       7.477  -2.098  23.620  0.00  0.00    -0.275 OA
BRANCH   8  18
ATOM     12  C   UNL     1       4.403  -6.495  23.794  0.00  0.00    +0.044 C 
ATOM     13  C   UNL     1       5.474  -5.944  24.691  0.00  0.00    -0.048 A 
ATOM     14  C   UNL     1       5.419  -6.155  26.071  0.00  0.00    +0.006 A 
ATOM     15  C   UNL     1       6.425  -5.654  26.909  0.00  0.00    -0.048 A 
ATOM     16  C   UNL     1       6.325  -5.874  28.390  0.00  0.00    +0.044 C 
ATOM     17  C   UNL     1       7.499  -4.943  26.344  0.00  0.00    +0.026 A 
ATOM     18  C   UNL     1       7.547  -4.694  24.966  0.00  0.00    +0.034 A 
ATOM     19  C   UNL     1       6.537  -5.212  24.152  0.00  0.00    +0.026 A 
ENDBRANCH   8  18
ENDBRANCH   7  10
ENDBRANCH   1   7
BRANCH   4  20
ATOM     20  O   UNL     1      10.184   3.587  23.429  0.00  0.00    -0.475 OA
BRANCH  20  21
ATOM     21  C   UNL     1       8.992   4.372  23.683  0.00  0.00    +0.200 C 
ATOM     22  C   UNL     1       8.565   4.373  25.160  0.00  0.00    +0.067 C 
ATOM     23  C   UNL     1       7.877   4.050  22.682  0.00  0.00    +0.067 C 
BRANCH  21  24
ATOM     24  C   UNL     1       9.380   5.845  23.413  0.00  0.00    +0.348 C 
ATOM     25  O   UNL     1       8.617   6.797  23.515  0.00  0.00    -0.247 OA
BRANCH  24  26
ATOM     26  O   UNL     1      10.683   6.003  23.064  0.00  0.00    -0.478 OA
ATOM     27  H   UNL     1      11.243   5.430  23.627  0.00  0.00    +0.295 HD
ENDBRANCH  24  26
ENDBRANCH  21  24
ENDBRANCH  20  21
ENDBRANCH   4  20
TORSDOF 7
ENDMDL
MODEL 7
REMARK VINA RESULT:      -6.8      0.996      1.735
REMARK  Name = 
REMARK  11 active torsions:
REMARK  status: ('A' for Active; 'I' for Inactive)
REMARK    1  A    between atoms: C_1  and  C_2
REMARK    2  A    between atoms: C_4  and  N_5
REMARK    3  A    between atoms: C_6  and  C_8
REMARK    4  A    between atoms: C_8  and  C_9
REMARK    5  A    between atoms: C_12  and  O_13
REMARK    6  A    between atoms: O_13  and  C_14
REMARK    7  A    between atoms: C_14  and  C_15
REMARK    8  A    between atoms: C_14  and  C_16
REMARK    9  A    between atoms: C_14  and  C_17
REMARK   10  A    between atoms: C_17  and  O_18
REMARK   11  A    between atoms: C_23  and  C_24
REMARK                            x       y       z     vdW  Elec       q    Type
REMARK                         _______ _______ _______ _____ _____    ______ ____
ROOT
ATOM      1  C   UNL     1       9.248  -1.940  22.666  0.00  0.00    -0.038 A 
ATOM      2  C   UNL     1       9.859  -2.453  23.810  0.00  0.00    +0.007 A 
ATOM      3  C   UNL     1       9.299  -3.532  24.494  0.00  0.00    +0.046 A 
ATOM      4  C   UNL     1       8.099  -4.105  24.082  0.00  0.00    +0.122 A 
ATOM      5  C   UNL     1       7.480  -3.586  22.938  0.00  0.00    +0.046 A 
ATOM      6  C   UNL     1       8.054  -2.522  22.227  0.00  0.00    +0.007 A 
ENDROOT
BRANCH   1   7
ATOM      7  C   UNL     1       9.880  -0.778  21.947  0.00  0.00    +0.131 C 
BRANCH   7  10
ATOM      8  N   UNL     1       9.791   1.125  23.541  0.00  0.00    -0.285 N 
ATOM      9  H   UNL     1      10.480   0.603  24.069  0.00  0.00    +0.155 HD
ATOM     10  C   UNL     1       9.415   0.623  22.304  0.00  0.00    +0.222 C 
ATOM     11  O   UNL     1       8.753   1.240  21.466  0.00  0.00    -0.275 OA
BRANCH   8  18
ATOM     12  C   UNL     1       6.949   3.919  26.534  0.00  0.00    +0.044 C 
ATOM     13  C   UNL     1       8.044   3.787  25.516  0.00  0.00    -0.048 A 
ATOM     14  C   UNL     1       8.719   4.918  25.051  0.00  0.00    +0.006 A 
ATOM     15  C   UNL     1       9.752   4.796  24.111  0.00  0.00    -0.048 A 
ATOM     16  C   UNL     1      10.439   6.033  23.612  0.00  0.00    +0.044 C 
ATOM     17  C   UNL     1      10.110   3.519  23.646  0.00  0.00    +0.026 A 
ATOM     18  C   UNL     1       9.418   2.380  24.077  0.00  0.00    +0.034 A 
ATOM     19  C   UNL     1       8.398   2.528  25.021  0.00  0.00    +0.026 A 
ENDBRANCH   8  18
ENDBRANCH   7  10
ENDBRANCH   1   7
BRANCH   4  20
ATOM     20  O   UNL     1       7.422  -5.103  24.730  0.00  0.00    -0.475 OA
BRANCH  20  21
ATOM     21  C   UNL     1       6.735  -4.876  25.985  0.00  0.00    +0.200 C 
ATOM     22  C   UNL     1       6.160  -3.457  26.119  0.00  0.00    +0.067 C 
ATOM     23  C   UNL     1       7.562  -5.361  27.180  0.00  0.00    +0.067 C 
BRANCH  21  24
ATOM     24  C   UNL     1       5.478  -5.779  25.958  0.00  0.00    +0.348 C 
ATOM     25  O   UNL     1       5.397  -6.876  26.496  0.00  0.00    -0.247 OA
BRANCH  24  26
ATOM     26  O   UNL     1       4.433  -5.228  25.287  0.00  0.00    -0.478 OA
ATOM     27  H   UNL     1       4.473  -5.496  24.346  0.00  0.00    +0.295 HD
ENDBRANCH  24  26
ENDBRANCH  21  24
ENDBRANCH  20  21
ENDBRANCH   4  20
TORSDOF 7
ENDMDL
MODEL 8
REMARK VINA RESULT:      -6.8      2.550      8.347
REMARK  Name = 
REMARK  11 active torsions:
REMARK  status: ('A' for Active; 'I' for Inactive)
REMARK    1  A    between atoms: C_1  and  C_2
REMARK    2  A    between atoms: C_4  and  N_5
REMARK    3  A    between atoms: C_6  and  C_8
REMARK    4  A    between atoms: C_8  and  C_9
REMARK    5  A    between atoms: C_12  and  O_13
REMARK    6  A    between atoms: O_13  and  C_14
REMARK    7  A    between atoms: C_14  and  C_15
REMARK    8  A    between atoms: C_14  and  C_16
REMARK    9  A    between atoms: C_14  and  C_17
REMARK   10  A    between atoms: C_17  and  O_18
REMARK   11  A    between atoms: C_23  and  C_24
REMARK                            x       y       z     vdW  Elec       q    Type
REMARK                         _______ _______ _______ _____ _____    ______ ____
ROOT
ATOM      1  C   UNL     1      10.187  -0.328  22.991  0.00  0.00    -0.038 A 
ATOM      2  C   UNL     1       9.927   0.484  21.887  0.00  0.00    +0.007 A 
ATOM      3  C   UNL     1       9.919   1.874  22.010  0.00  0.00    +0.046 A 
ATOM      4  C   UNL     1      10.130   2.491  23.239  0.00  0.00    +0.122 A 
ATOM      5  C   UNL     1      10.384   1.677  24.351  0.00  0.00    +0.046 A 
ATOM      6  C   UNL     1      10.426   0.281  24.228  0.00  0.00    +0.007 A 
ENDROOT
BRANCH   1   7
ATOM      7  C   UNL     1      10.195  -1.824  22.824  0.00  0.00    +0.131 C 
BRANCH   7  10
ATOM      8  N   UNL     1       7.757  -2.180  23.130  0.00  0.00    -0.285 N 
ATOM      9  H   UNL     1       7.651  -1.463  22.422  0.00  0.00    +0.155 HD
ATOM     10  C   UNL     1       9.042  -2.616  23.414  0.00  0.00    +0.222 C 
ATOM     11  O   UNL     1       9.314  -3.611  24.090  0.00  0.00    -0.275 OA
BRANCH   8  18
ATOM     12  C   UNL     1       4.171  -5.638  22.952  0.00  0.00    +0.044 C 
ATOM     13  C   UNL     1       4.777  -4.410  23.567  0.00  0.00    -0.048 A 
ATOM     14  C   UNL     1       4.155  -3.776  24.645  0.00  0.00    +0.006 A 
ATOM     15  C   UNL     1       4.726  -2.638  25.231  0.00  0.00    -0.048 A 
ATOM     16  C   UNL     1       4.019  -1.966  26.371  0.00  0.00    +0.044 C 
ATOM     17  C   UNL     1       5.942  -2.144  24.727  0.00  0.00    +0.026 A 
ATOM     18  C   UNL     1       6.559  -2.747  23.623  0.00  0.00    +0.034 A 
ATOM     19  C   UNL     1       5.973  -3.886  23.064  0.00  0.00    +0.026 A 
ENDBRANCH   8  18
ENDBRANCH   7  10
ENDBRANCH   1   7
BRANCH   4  20
ATOM     20  O   UNL     1      10.054   3.835  23.486  0.00  0.00    -0.475 OA
BRANCH  20  21
ATOM     21  C   UNL     1       8.792   4.500  23.744  0.00  0.00    +0.200 C 
ATOM     22  C   UNL     1       8.454   4.609  25.239  0.00  0.00    +0.067 C 
ATOM     23  C   UNL     1       7.669   3.947  22.860  0.00  0.00    +0.067 C 
BRANCH  21  24
ATOM     24  C   UNL     1       8.981   5.970  23.303  0.00  0.00    +0.348 C 
ATOM     25  O   UNL     1       9.619   6.809  23.927  0.00  0.00    -0.247 OA
BRANCH  24  26
ATOM     26  O   UNL     1       8.384   6.258  22.117  0.00  0.00    -0.478 OA
ATOM     27  H   UNL     1       8.540   5.525  21.487  0.00  0.00    +0.295 HD
ENDBRANCH  24  26
ENDBRANCH  21  24
ENDBRANCH  20  21
ENDBRANCH   4  20
TORSDOF 7
ENDMDL
MODEL 9
REMARK VINA RESULT:      -6.8      2.966      8.672
REMARK  Name = 
REMARK  11 active torsions:
REMARK  status: ('A' for Active; 'I' for Inactive)
REMARK    1  A    between atoms: C_1  and  C_2
REMARK    2  A    between atoms: C_4  and  N_5
REMARK    3  A    between atoms: C_6  and  C_8
REMARK    4  A    between atoms: C_8  and  C_9
REMARK    5  A    between atoms: C_12  and  O_13
REMARK    6  A    between atoms: O_13  and  C_14
REMARK    7  A    between atoms: C_14  and  C_15
REMARK    8  A    between atoms: C_14  and  C_16
REMARK    9  A    between atoms: C_14  and  C_17
REMARK   10  A    between atoms: C_17  and  O_18
REMARK   11  A    between atoms: C_23  and  C_24
REMARK                            x       y       z     vdW  Elec       q    Type
REMARK                         _______ _______ _______ _____ _____    ______ ____
ROOT
ATOM      1  C   UNL     1       9.312   1.416  22.303  0.00  0.00    -0.038 A 
ATOM      2  C   UNL     1       8.356   2.351  21.906  0.00  0.00    +0.007 A 
ATOM      3  C   UNL     1       8.080   3.468  22.697  0.00  0.00    +0.046 A 
ATOM      4  C   UNL     1       8.719   3.664  23.918  0.00  0.00    +0.122 A 
ATOM      5  C   UNL     1       9.673   2.722  24.321  0.00  0.00    +0.046 A 
ATOM      6  C   UNL     1       9.979   1.615  23.517  0.00  0.00    +0.007 A 
ENDROOT
BRANCH   1   7
ATOM      7  C   UNL     1       9.591   0.226  21.425  0.00  0.00    +0.131 C 
BRANCH   7  10
ATOM      8  N   UNL     1       8.188  -1.595  22.366  0.00  0.00    -0.285 N 
ATOM      9  H   UNL     1       7.404  -1.042  22.040  0.00  0.00    +0.155 HD
ATOM     10  C   UNL     1       9.463  -1.159  22.036  0.00  0.00    +0.222 C 
ATOM     11  O   UNL     1      10.492  -1.822  22.179  0.00  0.00    -0.275 OA
BRANCH   8  18
ATOM     12  C   UNL     1       6.514  -6.284  22.149  0.00  0.00    +0.044 C 
ATOM     13  C   UNL     1       7.042  -5.117  22.931  0.00  0.00    -0.048 A 
ATOM     14  C   UNL     1       7.213  -5.211  24.315  0.00  0.00    +0.006 A 
ATOM     15  C   UNL     1       7.720  -4.127  25.045  0.00  0.00    -0.048 A 
ATOM     16  C   UNL     1       7.867  -4.250  26.534  0.00  0.00    +0.044 C 
ATOM     17  C   UNL     1       8.066  -2.944  24.369  0.00  0.00    +0.026 A 
ATOM     18  C   UNL     1       7.866  -2.824  22.988  0.00  0.00    +0.034 A 
ATOM     19  C   UNL     1       7.368  -3.922  22.281  0.00  0.00    +0.026 A 
ENDBRANCH   8  18
ENDBRANCH   7  10
ENDBRANCH   1   7
BRANCH   4  20
ATOM     20  O   UNL     1       8.459   4.672  24.807  0.00  0.00    -0.475 OA
BRANCH  20  21
ATOM     21  C   UNL     1       9.055   5.986  24.675  0.00  0.00    +0.200 C 
ATOM     22  C   UNL     1       8.148   7.000  23.961  0.00  0.00    +0.067 C 
ATOM     23  C   UNL     1      10.491   5.906  24.144  0.00  0.00    +0.067 C 
BRANCH  21  24
ATOM     24  C   UNL     1       9.176   6.550  26.111  0.00  0.00    +0.348 C 
ATOM     25  O   UNL     1      10.234   6.767  26.688  0.00  0.00    -0.247 OA
BRANCH  24  26
ATOM     26  O   UNL     1       7.976   6.815  26.689  0.00  0.00    -0.478 OA
ATOM     27  H   UNL     1       7.956   7.748  26.984  0.00  0.00    +0.295 HD
ENDBRANCH  24  26
ENDBRANCH  21  24
ENDBRANCH  20  21
ENDBRANCH   4  20
TORSDOF 7
ENDMDL
