MODEL 1
REMARK VINA RESULT:      -7.0      0.000      0.000
REMARK  Name = 
REMARK  7 active torsions:
REMARK  status: ('A' for Active; 'I' for Inactive)
REMARK    1  A    between atoms: C_1  and  O_2
REMARK    2  A    between atoms: O_2  and  C_3
REMARK    3  A    between atoms: C_9  and  C_10
REMARK    4  A    between atoms: C_10  and  O_11
REMARK    5  A    between atoms: O_11  and  C_12
REMARK    6  A    between atoms: C_18  and  C_19
REMARK    7  A    between atoms: N_20  and  C_21
REMARK                            x       y       z     vdW  Elec       q    Type
REMARK                         _______ _______ _______ _____ _____    ______ ____
ROOT
ATOM      1  C   UNL     1       4.096  -5.131  23.492  0.00  0.00    +0.171 C 
ATOM      2  C   UNL     1       5.181  -4.286  22.841  0.00  0.00    +0.230 C 
ATOM      3  O   UNL     1       5.036  -3.709  21.771  0.00  0.00    -0.283 OA
ATOM      4  C   UNL     1       6.414  -4.196  23.612  0.00  0.00    +0.061 A 
ATOM      5  C   UNL     1       7.580  -3.402  23.380  0.00  0.00    +0.022 A 
ATOM      6  C   UNL     1       8.480  -3.699  24.400  0.00  0.00    +0.023 A 
ATOM      7  N   UNL     1       7.886  -4.631  25.231  0.00  0.00    -0.344 N 
ATOM      8  C   UNL     1       8.469  -5.221  26.420  0.00  0.00    +0.149 C 
ATOM      9  C   UNL     1       9.852  -3.164  24.637  0.00  0.00    +0.064 C 
ATOM     10  C   UNL     1       6.624  -4.917  24.769  0.00  0.00    +0.101 A 
ATOM     11  C   UNL     1       5.637  -5.793  25.342  0.00  0.00    +0.207 C 
ATOM     12  O   UNL     1       5.791  -6.476  26.348  0.00  0.00    -0.286 OA
ATOM     13  C   UNL     1       4.335  -5.814  24.627  0.00  0.00    +0.102 C 
ENDROOT
BRANCH   1  15
ATOM     14  C   UNL     1       2.203  -6.532  22.946  0.00  0.00    +0.277 C 
ATOM     15  O   UNL     1       2.807  -5.245  22.968  0.00  0.00    -0.491 OA
ENDBRANCH   1  15
BRANCH   5  16
ATOM     16  C   UNL     1       7.760  -2.429  22.247  0.00  0.00    +0.267 C 
BRANCH  16  17
ATOM     17  O   UNL     1       7.334  -1.122  22.630  0.00  0.00    -0.487 OA
BRANCH  17  18
ATOM     18  C   UNL     1       8.305  -0.166  22.758  0.00  0.00    +0.121 A 
ATOM     19  C   UNL     1       8.528   0.267  24.067  0.00  0.00    +0.045 A 
ATOM     20  C   UNL     1       9.483   1.248  24.341  0.00  0.00    +0.004 A 
ATOM     21  C   UNL     1      10.227   1.801  23.303  0.00  0.00    +0.000 A 
ATOM     22  C   UNL     1      10.018   1.368  21.994  0.00  0.00    +0.004 A 
ATOM     23  C   UNL     1       9.059   0.387  21.721  0.00  0.00    +0.045 A 
ENDBRANCH  17  18
ENDBRANCH  16  17
ENDBRANCH   5  16
TORSDOF 4
ENDMDL
MODEL 2
REMARK VINA RESULT:      -6.8      2.104      3.873
REMARK  Name = 
REMARK  7 active torsions:
REMARK  status: ('A' for Active; 'I' for Inactive)
REMARK    1  A    between atoms: C_1  and  O_2
REMARK    2  A    between atoms: O_2  and  C_3
REMARK    3  A    between atoms: C_9  and  C_10
REMARK    4  A    between atoms: C_10  and  O_11
REMARK    5  A    between atoms: O_11  and  C_12
REMARK    6  A    between atoms: C_18  and  C_19
REMARK    7  A    between atoms: N_20  and  C_21
REMARK                            x       y       z     vdW  Elec       q    Type
REMARK                         _______ _______ _______ _____ _____    ______ ____
ROOT
ATOM      1  C   UNL     1       6.258  -5.988  27.885  0.00  0.00    +0.171 C 
ATOM      2  C   UNL     1       7.166  -5.259  26.905  0.00  0.00    +0.230 C 
ATOM      3  O   UNL     1       8.218  -4.723  27.230  0.00  0.00    -0.283 OA
ATOM      4  C   UNL     1       6.692  -5.270  25.527  0.00  0.00    +0.061 A 
ATOM      5  C   UNL     1       7.334  -4.806  24.338  0.00  0.00    +0.022 A 
ATOM      6  C   UNL     1       6.448  -5.029  23.288  0.00  0.00    +0.023 A 
ATOM      7  N   UNL     1       5.311  -5.616  23.811  0.00  0.00    -0.344 N 
ATOM      8  C   UNL     1       4.131  -6.020  23.071  0.00  0.00    +0.149 C 
ATOM      9  C   UNL     1       6.605  -4.725  21.836  0.00  0.00    +0.064 C 
ATOM     10  C   UNL     1       5.465  -5.786  25.165  0.00  0.00    +0.101 A 
ATOM     11  C   UNL     1       4.558  -6.392  26.102  0.00  0.00    +0.207 C 
ATOM     12  O   UNL     1       3.447  -6.834  25.831  0.00  0.00    -0.286 OA
ATOM     13  C   UNL     1       5.072  -6.488  27.493  0.00  0.00    +0.102 C 
ENDROOT
BRANCH   1  15
ATOM     14  C   UNL     1       5.646  -5.820  30.217  0.00  0.00    +0.277 C 
ATOM     15  O   UNL     1       6.595  -6.189  29.225  0.00  0.00    -0.491 OA
ENDBRANCH   1  15
BRANCH   5  16
ATOM     16  C   UNL     1       8.714  -4.207  24.268  0.00  0.00    +0.267 C 
BRANCH  16  17
ATOM     17  O   UNL     1       8.697  -2.848  24.701  0.00  0.00    -0.487 OA
BRANCH  17  18
ATOM     18  C   UNL     1       9.101  -1.904  23.796  0.00  0.00    +0.121 A 
ATOM     19  C   UNL     1       9.802  -0.829  24.347  0.00  0.00    +0.045 A 
ATOM     20  C   UNL     1      10.263   0.211  23.538  0.00  0.00    +0.004 A 
ATOM     21  C   UNL     1      10.027   0.181  22.166  0.00  0.00    +0.000 A 
ATOM     22  C   UNL     1       9.335  -0.892  21.607  0.00  0.00    +0.004 A 
ATOM     23  C   UNL     1       8.872  -1.933  22.418  0.00  0.00    +0.045 A 
ENDBRANCH  17  18
ENDBRANCH  16  17
ENDBRANCH   5  16
TORSDOF 4
ENDMDL
MODEL 3
REMARK VINA RESULT:      -6.6      2.221      2.997
REMARK  Name = 
REMARK  7 active torsions:
REMARK  status: ('A' for Active; 'I' for Inactive)
REMARK    1  A    between atoms: C_1  and  O_2
REMARK    2  A    between atoms: O_2  and  C_3
REMARK    3  A    between atoms: C_9  and  C_10
REMARK    4  A    between atoms: C_10  and  O_11
REMARK    5  A    between atoms: O_11  and  C_12
REMARK    6  A    between atoms: C_18  and  C_19
REMARK    7  A    between atoms: N_20  and  C_21
REMARK                            x       y       z     vdW  Elec       q    Type
REMARK                         _______ _______ _______ _____ _____    ______ ____
ROOT
ATOM      1  C   UNL     1       5.917  -5.093  23.207  0.00  0.00    +0.171 C 
ATOM      2  C   UNL     1       7.232  -4.503  23.694  0.00  0.00    +0.230 C 
ATOM      3  O   UNL     1       8.326  -4.978  23.424  0.00  0.00    -0.283 OA
ATOM      4  C   UNL     1       7.085  -3.296  24.499  0.00  0.00    +0.061 A 
ATOM      5  C   UNL     1       8.086  -2.413  25.010  0.00  0.00    +0.022 A 
ATOM      6  C   UNL     1       7.421  -1.424  25.730  0.00  0.00    +0.023 A 
ATOM      7  N   UNL     1       6.066  -1.685  25.655  0.00  0.00    -0.344 N 
ATOM      8  C   UNL     1       5.004  -0.907  26.263  0.00  0.00    +0.149 C 
ATOM      9  C   UNL     1       7.980  -0.261  26.478  0.00  0.00    +0.064 C 
ATOM     10  C   UNL     1       5.856  -2.806  24.890  0.00  0.00    +0.101 A 
ATOM     11  C   UNL     1       4.609  -3.414  24.512  0.00  0.00    +0.207 C 
ATOM     12  O   UNL     1       3.498  -3.032  24.861  0.00  0.00    -0.286 OA
ATOM     13  C   UNL     1       4.736  -4.581  23.602  0.00  0.00    +0.102 C 
ENDROOT
BRANCH   1  15
ATOM     14  C   UNL     1       6.128  -5.945  20.954  0.00  0.00    +0.277 C 
ATOM     15  O   UNL     1       5.851  -6.177  22.330  0.00  0.00    -0.491 OA
ENDBRANCH   1  15
BRANCH   5  16
ATOM     16  C   UNL     1       9.567  -2.548  24.781  0.00  0.00    +0.267 C 
BRANCH  16  17
ATOM     17  O   UNL     1       9.910  -2.158  23.452  0.00  0.00    -0.487 OA
BRANCH  17  18
ATOM     18  C   UNL     1       9.982  -0.815  23.200  0.00  0.00    +0.121 A 
ATOM     19  C   UNL     1       9.402  -0.416  21.994  0.00  0.00    +0.045 A 
ATOM     20  C   UNL     1       9.414   0.926  21.606  0.00  0.00    +0.004 A 
ATOM     21  C   UNL     1      10.008   1.880  22.427  0.00  0.00    +0.000 A 
ATOM     22  C   UNL     1      10.582   1.492  23.636  0.00  0.00    +0.004 A 
ATOM     23  C   UNL     1      10.571   0.148  24.023  0.00  0.00    +0.045 A 
ENDBRANCH  17  18
ENDBRANCH  16  17
ENDBRANCH   5  16
TORSDOF 4
ENDMDL
MODEL 4
REMARK VINA RESULT:      -6.5      1.798      3.381
REMARK  Name = 
REMARK  7 active torsions:
REMARK  status: ('A' for Active; 'I' for Inactive)
REMARK    1  A    between atoms: C_1  and  O_2
REMARK    2  A    between atoms: O_2  and  C_3
REMARK    3  A    between atoms: C_9  and  C_10
REMARK    4  A    between atoms: C_10  and  O_11
REMARK    5  A    between atoms: O_11  and  C_12
REMARK    6  A    between atoms: C_18  and  C_19
REMARK    7  A    between atoms: N_20  and  C_21
REMARK                            x       y       z     vdW  Elec       q    Type
REMARK                         _______ _______ _______ _____ _____    ______ ____
ROOT
ATOM      1  C   UNL     1       5.858  -5.990  26.230  0.00  0.00    +0.171 C 
ATOM      2  C   UNL     1       6.893  -4.874  26.213  0.00  0.00    +0.230 C 
ATOM      3  O   UNL     1       7.561  -4.557  27.188  0.00  0.00    -0.283 OA
ATOM      4  C   UNL     1       7.045  -4.218  24.920  0.00  0.00    +0.061 A 
ATOM      5  C   UNL     1       7.993  -3.233  24.503  0.00  0.00    +0.022 A 
ATOM      6  C   UNL     1       7.696  -2.925  23.177  0.00  0.00    +0.023 A 
ATOM      7  N   UNL     1       6.615  -3.697  22.795  0.00  0.00    -0.344 N 
ATOM      8  C   UNL     1       5.974  -3.696  21.494  0.00  0.00    +0.149 C 
ATOM      9  C   UNL     1       8.362  -1.955  22.260  0.00  0.00    +0.064 C 
ATOM     10  C   UNL     1       6.232  -4.500  23.841  0.00  0.00    +0.101 A 
ATOM     11  C   UNL     1       5.188  -5.488  23.878  0.00  0.00    +0.207 C 
ATOM     12  O   UNL     1       4.424  -5.748  22.956  0.00  0.00    -0.286 OA
ATOM     13  C   UNL     1       5.090  -6.242  25.154  0.00  0.00    +0.102 C 
ENDROOT
BRANCH   1  15
ATOM     14  C   UNL     1       4.377  -6.772  27.973  0.00  0.00    +0.277 C 
ATOM     15  O   UNL     1       5.649  -6.813  27.338  0.00  0.00    -0.491 OA
ENDBRANCH   1  15
BRANCH   5  16
ATOM     16  C   UNL     1       9.098  -2.670  25.355  0.00  0.00    +0.267 C 
BRANCH  16  17
ATOM     17  O   UNL     1       8.650  -1.516  26.065  0.00  0.00    -0.487 OA
BRANCH  17  18
ATOM     18  C   UNL     1       8.916  -0.299  25.498  0.00  0.00    +0.121 A 
ATOM     19  C   UNL     1      10.193  -0.179  24.946  0.00  0.00    +0.045 A 
ATOM     20  C   UNL     1      10.601   1.013  24.346  0.00  0.00    +0.004 A 
ATOM     21  C   UNL     1       9.730   2.097  24.291  0.00  0.00    +0.000 A 
ATOM     22  C   UNL     1       8.451   1.984  24.833  0.00  0.00    +0.004 A 
ATOM     23  C   UNL     1       8.043   0.790  25.436  0.00  0.00    +0.045 A 
ENDBRANCH  17  18
ENDBRANCH  16  17
ENDBRANCH   5  16
TORSDOF 4
ENDMDL
MODEL 5
REMARK VINA RESULT:      -6.3      3.467      7.950
REMARK  Name = 
REMARK  7 active torsions:
REMARK  status: ('A' for Active; 'I' for Inactive)
REMARK    1  A    between atoms: C_1  and  O_2
REMARK    2  A    between atoms: O_2  and  C_3
REMARK    3  A    between atoms: C_9  and  C_10
REMARK    4  A    between atoms: C_10  and  O_11
REMARK    5  A    between atoms: O_11  and  C_12
REMARK    6  A    between atoms: C_18  and  C_19
REMARK    7  A    between atoms: N_20  and  C_21
REMARK                            x       y       z     vdW  Elec       q    Type
REMARK                         _______ _______ _______ _____ _____    ______ ____
ROOT
ATOM      1  C   UNL     1      10.469   3.418  23.634  0.00  0.00    +0.171 C 
ATOM      2  C   UNL     1      10.353   1.943  23.991  0.00  0.00    +0.230 C 
ATOM      3  O   UNL     1      11.318   1.200  24.110  0.00  0.00    -0.283 OA
ATOM      4  C   UNL     1       8.987   1.485  24.209  0.00  0.00    +0.061 A 
ATOM      5  C   UNL     1       8.512   0.221  24.675  0.00  0.00    +0.022 A 
ATOM      6  C   UNL     1       7.121   0.292  24.686  0.00  0.00    +0.023 A 
ATOM      7  N   UNL     1       6.758   1.553  24.253  0.00  0.00    -0.344 N 
ATOM      8  C   UNL     1       5.407   2.059  24.110  0.00  0.00    +0.149 C 
ATOM      9  C   UNL     1       6.124  -0.747  25.076  0.00  0.00    +0.064 C 
ATOM     10  C   UNL     1       7.887   2.288  23.985  0.00  0.00    +0.101 A 
ATOM     11  C   UNL     1       7.985   3.657  23.554  0.00  0.00    +0.207 C 
ATOM     12  O   UNL     1       7.037   4.395  23.313  0.00  0.00    -0.286 OA
ATOM     13  C   UNL     1       9.373   4.173  23.432  0.00  0.00    +0.102 C 
ENDROOT
BRANCH   1  15
ATOM     14  C   UNL     1      11.714   5.490  23.602  0.00  0.00    +0.277 C 
ATOM     15  O   UNL     1      11.695   4.072  23.501  0.00  0.00    -0.491 OA
ENDBRANCH   1  15
BRANCH   5  16
ATOM     16  C   UNL     1       9.379  -0.940  25.083  0.00  0.00    +0.267 C 
BRANCH  16  17
ATOM     17  O   UNL     1       9.726  -1.734  23.949  0.00  0.00    -0.487 OA
BRANCH  17  18
ATOM     18  C   UNL     1       8.921  -2.806  23.674  0.00  0.00    +0.121 A 
ATOM     19  C   UNL     1       9.068  -3.885  24.548  0.00  0.00    +0.045 A 
ATOM     20  C   UNL     1       8.316  -5.049  24.377  0.00  0.00    +0.004 A 
ATOM     21  C   UNL     1       7.406  -5.139  23.327  0.00  0.00    +0.000 A 
ATOM     22  C   UNL     1       7.247  -4.064  22.455  0.00  0.00    +0.004 A 
ATOM     23  C   UNL     1       8.003  -2.899  22.626  0.00  0.00    +0.045 A 
ENDBRANCH  17  18
ENDBRANCH  16  17
ENDBRANCH   5  16
TORSDOF 4
ENDMDL
MODEL 6
REMARK VINA RESULT:      -6.3      2.533      2.937
REMARK  Name = 
REMARK  7 active torsions:
REMARK  status: ('A' for Active; 'I' for Inactive)
REMARK    1  A    between atoms: C_1  and  O_2
REMARK    2  A    between atoms: O_2  and  C_3
REMARK    3  A    between atoms: C_9  and  C_10
REMARK    4  A    between atoms: C_10  and  O_11
REMARK    5  A    between atoms: O_11  and  C_12
REMARK    6  A    between atoms: C_18  and  C_19
REMARK    7  A    between atoms: N_20  and  C_21
REMARK                            x       y       z     vdW  Elec       q    Type
REMARK                         _______ _______ _______ _____ _____    ______ ____
ROOT
ATOM      1  C   UNL     1       4.683  -3.632  27.253  0.00  0.00    +0.171 C 
ATOM      2  C   UNL     1       5.131  -2.761  26.088  0.00  0.00    +0.230 C 
ATOM      3  O   UNL     1       4.414  -1.923  25.558  0.00  0.00    -0.283 OA
ATOM      4  C   UNL     1       6.506  -2.990  25.663  0.00  0.00    +0.061 A 
ATOM      5  C   UNL     1       7.294  -2.282  24.704  0.00  0.00    +0.022 A 
ATOM      6  C   UNL     1       8.534  -2.914  24.657  0.00  0.00    +0.023 A 
ATOM      7  N   UNL     1       8.511  -3.961  25.559  0.00  0.00    -0.344 N 
ATOM      8  C   UNL     1       9.594  -4.886  25.834  0.00  0.00    +0.149 C 
ATOM      9  C   UNL     1       9.728  -2.594  23.822  0.00  0.00    +0.064 C 
ATOM     10  C   UNL     1       7.290  -3.996  26.188  0.00  0.00    +0.101 A 
ATOM     11  C   UNL     1       6.841  -4.886  27.225  0.00  0.00    +0.207 C 
ATOM     12  O   UNL     1       7.491  -5.811  27.697  0.00  0.00    -0.286 OA
ATOM     13  C   UNL     1       5.480  -4.598  27.746  0.00  0.00    +0.102 C 
ENDROOT
BRANCH   1  15
ATOM     14  C   UNL     1       3.316  -3.918  29.226  0.00  0.00    +0.277 C 
ATOM     15  O   UNL     1       3.444  -3.482  27.879  0.00  0.00    -0.491 OA
ENDBRANCH   1  15
BRANCH   5  16
ATOM     16  C   UNL     1       6.843  -1.078  23.923  0.00  0.00    +0.267 C 
BRANCH  16  17
ATOM     17  O   UNL     1       7.345   0.122  24.510  0.00  0.00    -0.487 OA
BRANCH  17  18
ATOM     18  C   UNL     1       8.341   0.772  23.833  0.00  0.00    +0.121 A 
ATOM     19  C   UNL     1       8.337   0.570  22.451  0.00  0.00    +0.045 A 
ATOM     20  C   UNL     1       9.304   1.166  21.640  0.00  0.00    +0.004 A 
ATOM     21  C   UNL     1      10.285   1.973  22.208  0.00  0.00    +0.000 A 
ATOM     22  C   UNL     1      10.293   2.187  23.585  0.00  0.00    +0.004 A 
ATOM     23  C   UNL     1       9.324   1.589  24.398  0.00  0.00    +0.045 A 
ENDBRANCH  17  18
ENDBRANCH  16  17
ENDBRANCH   5  16
TORSDOF 4
ENDMDL
MODEL 7
REMARK VINA RESULT:      -6.1      2.896      4.263
REMARK  Name = 
REMARK  7 active torsions:
REMARK  status: ('A' for Active; 'I' for Inactive)
REMARK    1  A    between atoms: C_1  and  O_2
REMARK    2  A    between atoms: O_2  and  C_3
REMARK    3  A    between atoms: C_9  and  C_10
REMARK    4  A    between atoms: C_10  and  O_11
REMARK    5  A    between atoms: O_11  and  C_12
REMARK    6  A    between atoms: C_18  and  C_19
REMARK    7  A    between atoms: N_20  and  C_21
REMARK                            x       y       z     vdW  Elec       q    Type
REMARK                         _______ _______ _______ _____ _____    ______ ____
ROOT
ATOM      1  C   UNL     1       6.042  -0.997  26.967  0.00  0.00    +0.171 C 
ATOM      2  C   UNL     1       7.281  -1.527  26.260  0.00  0.00    +0.230 C 
ATOM      3  O   UNL     1       8.414  -1.128  26.492  0.00  0.00    -0.283 OA
ATOM      4  C   UNL     1       7.011  -2.579  25.288  0.00  0.00    +0.061 A 
ATOM      5  C   UNL     1       7.923  -3.388  24.542  0.00  0.00    +0.022 A 
ATOM      6  C   UNL     1       7.154  -4.228  23.740  0.00  0.00    +0.023 A 
ATOM      7  N   UNL     1       5.823  -3.952  23.993  0.00  0.00    -0.344 N 
ATOM      8  C   UNL     1       4.678  -4.594  23.376  0.00  0.00    +0.149 C 
ATOM      9  C   UNL     1       7.592  -5.263  22.760  0.00  0.00    +0.064 C 
ATOM     10  C   UNL     1       5.732  -2.970  24.948  0.00  0.00    +0.101 A 
ATOM     11  C   UNL     1       4.551  -2.405  25.544  0.00  0.00    +0.207 C 
ATOM     12  O   UNL     1       3.398  -2.698  25.251  0.00  0.00    -0.286 OA
ATOM     13  C   UNL     1       4.810  -1.408  26.614  0.00  0.00    +0.102 C 
ENDROOT
BRANCH   1  15
ATOM     14  C   UNL     1       4.883   0.346  28.610  0.00  0.00    +0.277 C 
ATOM     15  O   UNL     1       6.103  -0.072  28.011  0.00  0.00    -0.491 OA
ENDBRANCH   1  15
BRANCH   5  16
ATOM     16  C   UNL     1       9.423  -3.326  24.639  0.00  0.00    +0.267 C 
BRANCH  16  17
ATOM     17  O   UNL     1       9.995  -2.943  23.389  0.00  0.00    -0.487 OA
BRANCH  17  18
ATOM     18  C   UNL     1       9.975  -1.609  23.082  0.00  0.00    +0.121 A 
ATOM     19  C   UNL     1       9.475  -1.310  21.813  0.00  0.00    +0.045 A 
ATOM     20  C   UNL     1       9.408   0.011  21.366  0.00  0.00    +0.004 A 
ATOM     21  C   UNL     1       9.841   1.046  22.190  0.00  0.00    +0.000 A 
ATOM     22  C   UNL     1      10.334   0.757  23.461  0.00  0.00    +0.004 A 
ATOM     23  C   UNL     1      10.402  -0.567  23.908  0.00  0.00    +0.045 A 
ENDBRANCH  17  18
ENDBRANCH  16  17
ENDBRANCH   5  16
TORSDOF 4
ENDMDL
MODEL 8
REMARK VINA RESULT:      -6.1      2.666      6.838
REMARK  Name = 
REMARK  7 active torsions:
REMARK  status: ('A' for Active; 'I' for Inactive)
REMARK    1  A    between atoms: C_1  and  O_2
REMARK    2  A    between atoms: O_2  and  C_3
REMARK    3  A    between atoms: C_9  and  C_10
REMARK    4  A    between atoms: C_10  and  O_11
REMARK    5  A    between atoms: O_11  and  C_12
REMARK    6  A    between atoms: C_18  and  C_19
REMARK    7  A    between atoms: N_20  and  C_21
REMARK                            x       y       z     vdW  Elec       q    Type
REMARK                         _______ _______ _______ _____ _____    ______ ____
ROOT
ATOM      1  C   UNL     1       8.521  -2.870  23.220  0.00  0.00    +0.171 C 
ATOM      2  C   UNL     1       8.392  -3.769  24.442  0.00  0.00    +0.230 C 
ATOM      3  O   UNL     1       9.237  -3.833  25.325  0.00  0.00    -0.283 OA
ATOM      4  C   UNL     1       7.157  -4.539  24.490  0.00  0.00    +0.061 A 
ATOM      5  C   UNL     1       6.643  -5.375  25.529  0.00  0.00    +0.022 A 
ATOM      6  C   UNL     1       5.436  -5.895  25.069  0.00  0.00    +0.023 A 
ATOM      7  N   UNL     1       5.213  -5.390  23.801  0.00  0.00    -0.344 N 
ATOM      8  C   UNL     1       4.073  -5.669  22.950  0.00  0.00    +0.149 C 
ATOM      9  C   UNL     1       4.489  -6.830  25.743  0.00  0.00    +0.064 C 
ATOM     10  C   UNL     1       6.243  -4.548  23.456  0.00  0.00    +0.101 A 
ATOM     11  C   UNL     1       6.404  -3.774  22.255  0.00  0.00    +0.207 C 
ATOM     12  O   UNL     1       5.636  -3.776  21.301  0.00  0.00    -0.286 OA
ATOM     13  C   UNL     1       7.605  -2.899  22.236  0.00  0.00    +0.102 C 
ENDROOT
BRANCH   1  15
ATOM     14  C   UNL     1       9.548  -1.113  21.915  0.00  0.00    +0.277 C 
ATOM     15  O   UNL     1       9.575  -1.970  23.050  0.00  0.00    -0.491 OA
ENDBRANCH   1  15
BRANCH   5  16
ATOM     16  C   UNL     1       7.301  -5.614  26.861  0.00  0.00    +0.267 C 
BRANCH  16  17
ATOM     17  O   UNL     1       6.883  -4.637  27.813  0.00  0.00    -0.487 OA
BRANCH  17  18
ATOM     18  C   UNL     1       5.714  -4.883  28.482  0.00  0.00    +0.121 A 
ATOM     19  C   UNL     1       5.717  -6.050  29.250  0.00  0.00    +0.045 A 
ATOM     20  C   UNL     1       4.585  -6.429  29.975  0.00  0.00    +0.004 A 
ATOM     21  C   UNL     1       3.441  -5.638  29.939  0.00  0.00    +0.000 A 
ATOM     22  C   UNL     1       3.432  -4.467  29.182  0.00  0.00    +0.004 A 
ATOM     23  C   UNL     1       4.565  -4.090  28.454  0.00  0.00    +0.045 A 
ENDBRANCH  17  18
ENDBRANCH  16  17
ENDBRANCH   5  16
TORSDOF 4
ENDMDL
MODEL 9
REMARK VINA RESULT:      -6.0      2.498      3.539
REMARK  Name = 
REMARK  7 active torsions:
REMARK  status: ('A' for Active; 'I' for Inactive)
REMARK    1  A    between atoms: C_1  and  O_2
REMARK    2  A    between atoms: O_2  and  C_3
REMARK    3  A    between atoms: C_9  and  C_10
REMARK    4  A    between atoms: C_10  and  O_11
REMARK    5  A    between atoms: O_11  and  C_12
REMARK    6  A    between atoms: C_18  and  C_19
REMARK    7  A    between atoms: N_20  and  C_21
REMARK                            x       y       z     vdW  Elec       q    Type
REMARK                         _______ _______ _______ _____ _____    ______ ____
ROOT
ATOM      1  C   UNL     1       7.728  -4.683  24.026  0.00  0.00    +0.171 C 
ATOM      2  C   UNL     1       8.571  -3.504  24.492  0.00  0.00    +0.230 C 
ATOM      3  O   UNL     1       9.719  -3.307  24.120  0.00  0.00    -0.283 OA
ATOM      4  C   UNL     1       7.885  -2.604  25.410  0.00  0.00    +0.061 A 
ATOM      5  C   UNL     1       8.309  -1.348  25.943  0.00  0.00    +0.022 A 
ATOM      6  C   UNL     1       7.293  -0.904  26.786  0.00  0.00    +0.023 A 
ATOM      7  N   UNL     1       6.282  -1.846  26.763  0.00  0.00    -0.344 N 
ATOM      8  C   UNL     1       5.032  -1.787  27.496  0.00  0.00    +0.149 C 
ATOM      9  C   UNL     1       7.219   0.340  27.605  0.00  0.00    +0.064 C 
ATOM     10  C   UNL     1       6.626  -2.867  25.910  0.00  0.00    +0.101 A 
ATOM     11  C   UNL     1       5.861  -4.029  25.548  0.00  0.00    +0.207 C 
ATOM     12  O   UNL     1       4.756  -4.319  25.991  0.00  0.00    -0.286 OA
ATOM     13  C   UNL     1       6.500  -4.902  24.530  0.00  0.00    +0.102 C 
ENDROOT
BRANCH   1  15
ATOM     14  C   UNL     1       7.258  -5.958  22.026  0.00  0.00    +0.277 C 
ATOM     15  O   UNL     1       8.165  -5.591  23.059  0.00  0.00    -0.491 OA
ENDBRANCH   1  15
BRANCH   5  16
ATOM     16  C   UNL     1       9.607  -0.658  25.622  0.00  0.00    +0.267 C 
BRANCH  16  17
ATOM     17  O   UNL     1       9.370   0.661  25.133  0.00  0.00    -0.487 OA
BRANCH  17  18
ATOM     18  C   UNL     1       9.184   0.798  23.784  0.00  0.00    +0.121 A 
ATOM     19  C   UNL     1       8.355   1.860  23.414  0.00  0.00    +0.045 A 
ATOM     20  C   UNL     1       8.071   2.107  22.069  0.00  0.00    +0.004 A 
ATOM     21  C   UNL     1       8.618   1.292  21.083  0.00  0.00    +0.000 A 
ATOM     22  C   UNL     1       9.452   0.235  21.443  0.00  0.00    +0.004 A 
ATOM     23  C   UNL     1       9.735  -0.014  22.790  0.00  0.00    +0.045 A 
ENDBRANCH  17  18
ENDBRANCH  16  17
ENDBRANCH   5  16
TORSDOF 4
ENDMDL
