MODEL 1
REMARK VINA RESULT:      -6.7      0.000      0.000
REMARK  Name = 
REMARK  24 active torsions:
REMARK  status: ('A' for Active; 'I' for Inactive)
REMARK    1  A    between atoms: O_1  and  C_2
REMARK    2  A    between atoms: C_2  and  C_3
REMARK    3  A    between atoms: C_6  and  O_8
REMARK    4  A    between atoms: O_8  and  C_9
REMARK    5  A    between atoms: C_11  and  O_13
REMARK    6  A    between atoms: C_14  and  O_16
REMARK    7  A    between atoms: C_17  and  O_19
REMARK    8  A    between atoms: O_19  and  C_20
REMARK    9  A    between atoms: C_22  and  O_24
REMARK   10  A    between atoms: C_25  and  O_27
REMARK   11  A    between atoms: C_28  and  O_30
REMARK   12  A    between atoms: O_30  and  C_31
REMARK   13  A    between atoms: C_33  and  O_35
REMARK   14  A    between atoms: C_36  and  O_38
REMARK   15  A    between atoms: C_39  and  O_41
REMARK   16  A    between atoms: C_43  and  C_45
REMARK   17  A    between atoms: C_45  and  O_46
REMARK   18  A    between atoms: C_48  and  C_50
REMARK   19  A    between atoms: C_50  and  O_51
REMARK   20  A    between atoms: C_53  and  C_55
REMARK   21  A    between atoms: C_55  and  O_56
REMARK   22  A    between atoms: C_57  and  O_59
REMARK   23  A    between atoms: C_60  and  O_62
REMARK   24  A    between atoms: C_63  and  O_65
REMARK                            x       y       z     vdW  Elec       q    Type
REMARK                         _______ _______ _______ _____ _____    ______ ____
ROOT
ATOM      1  O   UNL     1       7.432  -2.500  25.144  0.00  0.00    -0.340 OA
ENDROOT
BRANCH   1   5
ATOM      2  C   UNL     1       7.340   0.587  23.320  0.00  0.00    +0.183 C 
ATOM      3  C   UNL     1       6.479   0.213  24.552  0.00  0.00    +0.178 C 
ATOM      4  O   UNL     1       7.291  -0.187  25.673  0.00  0.00    -0.341 OA
ATOM      5  C   UNL     1       8.178  -1.300  25.406  0.00  0.00    +0.282 C 
ATOM      6  C   UNL     1       9.121  -0.944  24.239  0.00  0.00    +0.201 C 
ATOM      7  C   UNL     1       8.273  -0.596  23.006  0.00  0.00    +0.179 C 
BRANCH   6   8
ATOM      8  O   UNL     1      10.005   0.119  24.600  0.00  0.00    -0.384 OA
ATOM      9  H   UNL     1       9.463   0.916  24.773  0.00  0.00    +0.210 HD
ENDBRANCH   6   8
BRANCH   7  10
ATOM     10  O   UNL     1       7.512  -1.708  22.527  0.00  0.00    -0.386 OA
ATOM     11  H   UNL     1       7.876  -1.972  21.651  0.00  0.00    +0.210 HD
ENDBRANCH   7  10
BRANCH   3  12
ATOM     12  C   UNL     1       5.584   1.385  24.978  0.00  0.00    +0.190 C 
BRANCH  12  13
ATOM     13  O   UNL     1       4.859   1.886  23.855  0.00  0.00    -0.392 OA
ATOM     14  H   UNL     1       5.510   1.956  23.131  0.00  0.00    +0.210 HD
ENDBRANCH  12  13
ENDBRANCH   3  12
BRANCH   2  15
ATOM     15  O   UNL     1       8.060   1.810  23.582  0.00  0.00    -0.340 OA
BRANCH  15  20
ATOM     16  C   UNL     1      10.171   3.779  23.589  0.00  0.00    +0.178 C 
ATOM     17  C   UNL     1       9.300   5.047  23.689  0.00  0.00    +0.177 C 
ATOM     18  C   UNL     1       7.804   4.759  23.483  0.00  0.00    +0.179 C 
ATOM     19  C   UNL     1       7.603   3.884  22.247  0.00  0.00    +0.201 C 
ATOM     20  C   UNL     1       8.422   2.597  22.435  0.00  0.00    +0.282 C 
ATOM     21  O   UNL     1       9.806   2.940  22.485  0.00  0.00    -0.341 OA
BRANCH  19  22
ATOM     22  O   UNL     1       6.200   3.666  22.044  0.00  0.00    -0.384 OA
ATOM     23  H   UNL     1       5.849   4.424  21.540  0.00  0.00    +0.210 HD
ENDBRANCH  19  22
BRANCH  18  24
ATOM     24  O   UNL     1       7.081   5.986  23.306  0.00  0.00    -0.386 OA
ATOM     25  H   UNL     1       6.223   5.731  22.916  0.00  0.00    +0.210 HD
ENDBRANCH  18  24
BRANCH  17  26
ATOM     26  O   UNL     1       9.527   5.684  24.953  0.00  0.00    -0.386 OA
ATOM     27  H   UNL     1       9.016   6.511  24.974  0.00  0.00    +0.210 HD
ENDBRANCH  17  26
BRANCH  16  28
ATOM     28  C   UNL     1      11.641   4.195  23.382  0.00  0.00    +0.190 C 
BRANCH  28  29
ATOM     29  O   UNL     1      11.725   5.486  22.778  0.00  0.00    -0.392 OA
ATOM     30  H   UNL     1      11.446   6.130  23.450  0.00  0.00    +0.210 HD
ENDBRANCH  28  29
ENDBRANCH  16  28
ENDBRANCH  15  20
ENDBRANCH   2  15
ENDBRANCH   1   5
BRANCH   1  31
ATOM     31  C   UNL     1       6.409  -2.828  26.118  0.00  0.00    +0.183 C 
ATOM     32  C   UNL     1       6.477  -4.333  26.443  0.00  0.00    +0.178 C 
ATOM     33  O   UNL     1       6.111  -5.110  25.300  0.00  0.00    -0.341 OA
ATOM     34  C   UNL     1       4.802  -4.834  24.796  0.00  0.00    +0.282 C 
ATOM     35  C   UNL     1       4.537  -3.344  24.490  0.00  0.00    +0.201 C 
ATOM     36  C   UNL     1       4.972  -2.483  25.678  0.00  0.00    +0.179 C 
BRANCH  35  37
ATOM     37  O   UNL     1       5.217  -2.920  23.304  0.00  0.00    -0.384 OA
ATOM     38  H   UNL     1       4.826  -3.375  22.537  0.00  0.00    +0.210 HD
ENDBRANCH  35  37
BRANCH  36  39
ATOM     39  O   UNL     1       4.082  -2.621  26.794  0.00  0.00    -0.386 OA
ATOM     40  H   UNL     1       3.159  -2.517  26.490  0.00  0.00    +0.210 HD
ENDBRANCH  36  39
BRANCH  32  41
ATOM     41  C   UNL     1       7.886  -4.772  26.865  0.00  0.00    +0.190 C 
BRANCH  41  42
ATOM     42  O   UNL     1       7.822  -6.001  27.588  0.00  0.00    -0.392 OA
ATOM     43  H   UNL     1       7.743  -5.748  28.528  0.00  0.00    +0.210 HD
ENDBRANCH  41  42
ENDBRANCH  32  41
BRANCH  34  44
ATOM     44  O   UNL     1       3.813  -5.386  25.681  0.00  0.00    -0.340 OA
BRANCH  44  45
ATOM     45  C   UNL     1       4.184  -6.646  26.298  0.00  0.00    +0.183 C 
ATOM     46  C   UNL     1       2.989  -7.637  26.209  0.00  0.00    +0.178 C 
ATOM     47  O   UNL     1       1.865  -7.162  26.972  0.00  0.00    -0.341 OA
ATOM     48  C   UNL     1       2.156  -6.985  28.359  0.00  0.00    +0.279 C 
ATOM     49  C   UNL     1       3.303  -5.987  28.574  0.00  0.00    +0.201 C 
ATOM     50  C   UNL     1       4.542  -6.476  27.794  0.00  0.00    +0.179 C 
BRANCH  48  51
ATOM     51  O   UNL     1       2.493  -8.228  28.964  0.00  0.00    -0.365 OA
ATOM     52  H   UNL     1       3.320  -8.519  28.537  0.00  0.00    +0.213 HD
ENDBRANCH  48  51
BRANCH  49  53
ATOM     53  O   UNL     1       2.903  -4.676  28.165  0.00  0.00    -0.384 OA
ATOM     54  H   UNL     1       3.096  -4.591  27.209  0.00  0.00    +0.210 HD
ENDBRANCH  49  53
BRANCH  50  55
ATOM     55  O   UNL     1       5.097  -7.680  28.329  0.00  0.00    -0.386 OA
ATOM     56  H   UNL     1       5.148  -7.592  29.303  0.00  0.00    +0.210 HD
ENDBRANCH  50  55
BRANCH  46  57
ATOM     57  C   UNL     1       2.515  -7.919  24.780  0.00  0.00    +0.190 C 
BRANCH  57  58
ATOM     58  O   UNL     1       3.611  -7.887  23.874  0.00  0.00    -0.392 OA
ATOM     59  H   UNL     1       4.305  -7.340  24.284  0.00  0.00    +0.210 HD
ENDBRANCH  57  58
ENDBRANCH  46  57
ENDBRANCH  44  45
ENDBRANCH  34  44
ENDBRANCH   1  31
TORSDOF 24
ENDMDL
MODEL 2
REMARK VINA RESULT:      -6.6      1.720      2.860
REMARK  Name = 
REMARK  24 active torsions:
REMARK  status: ('A' for Active; 'I' for Inactive)
REMARK    1  A    between atoms: O_1  and  C_2
REMARK    2  A    between atoms: C_2  and  C_3
REMARK    3  A    between atoms: C_6  and  O_8
REMARK    4  A    between atoms: O_8  and  C_9
REMARK    5  A    between atoms: C_11  and  O_13
REMARK    6  A    between atoms: C_14  and  O_16
REMARK    7  A    between atoms: C_17  and  O_19
REMARK    8  A    between atoms: O_19  and  C_20
REMARK    9  A    between atoms: C_22  and  O_24
REMARK   10  A    between atoms: C_25  and  O_27
REMARK   11  A    between atoms: C_28  and  O_30
REMARK   12  A    between atoms: O_30  and  C_31
REMARK   13  A    between atoms: C_33  and  O_35
REMARK   14  A    between atoms: C_36  and  O_38
REMARK   15  A    between atoms: C_39  and  O_41
REMARK   16  A    between atoms: C_43  and  C_45
REMARK   17  A    between atoms: C_45  and  O_46
REMARK   18  A    between atoms: C_48  and  C_50
REMARK   19  A    between atoms: C_50  and  O_51
REMARK   20  A    between atoms: C_53  and  C_55
REMARK   21  A    between atoms: C_55  and  O_56
REMARK   22  A    between atoms: C_57  and  O_59
REMARK   23  A    between atoms: C_60  and  O_62
REMARK   24  A    between atoms: C_63  and  O_65
REMARK                            x       y       z     vdW  Elec       q    Type
REMARK                         _______ _______ _______ _____ _____    ______ ____
ROOT
ATOM      1  O   UNL     1       7.567  -3.405  24.376  0.00  0.00    -0.340 OA
ENDROOT
BRANCH   1   5
ATOM      2  C   UNL     1       8.194  -0.070  23.216  0.00  0.00    +0.183 C 
ATOM      3  C   UNL     1       7.966  -0.513  24.683  0.00  0.00    +0.178 C 
ATOM      4  O   UNL     1       8.882  -1.554  25.077  0.00  0.00    -0.341 OA
ATOM      5  C   UNL     1       8.835  -2.741  24.250  0.00  0.00    +0.282 C 
ATOM      6  C   UNL     1       9.144  -2.367  22.787  0.00  0.00    +0.201 C 
ATOM      7  C   UNL     1       8.123  -1.318  22.318  0.00  0.00    +0.179 C 
BRANCH   6   8
ATOM      8  O   UNL     1      10.489  -1.906  22.648  0.00  0.00    -0.384 OA
ATOM      9  H   UNL     1      10.766  -1.522  23.505  0.00  0.00    +0.210 HD
ENDBRANCH   6   8
BRANCH   7  10
ATOM     10  O   UNL     1       6.786  -1.824  22.286  0.00  0.00    -0.386 OA
ATOM     11  H   UNL     1       6.592  -2.114  21.366  0.00  0.00    +0.210 HD
ENDBRANCH   7  10
BRANCH   3  12
ATOM     12  C   UNL     1       8.112   0.672  25.648  0.00  0.00    +0.190 C 
BRANCH  12  13
ATOM     13  O   UNL     1       8.268   0.202  26.987  0.00  0.00    -0.392 OA
ATOM     14  H   UNL     1       7.373   0.206  27.374  0.00  0.00    +0.210 HD
ENDBRANCH  12  13
ENDBRANCH   3  12
BRANCH   2  15
ATOM     15  O   UNL     1       9.455   0.624  23.107  0.00  0.00    -0.340 OA
BRANCH  15  20
ATOM     16  C   UNL     1      10.673   3.221  23.437  0.00  0.00    +0.178 C 
ATOM     17  C   UNL     1       9.387   4.063  23.547  0.00  0.00    +0.177 C 
ATOM     18  C   UNL     1       8.121   3.267  23.190  0.00  0.00    +0.179 C 
ATOM     19  C   UNL     1       8.331   2.504  21.884  0.00  0.00    +0.201 C 
ATOM     20  C   UNL     1       9.560   1.596  22.054  0.00  0.00    +0.282 C 
ATOM     21  O   UNL     1      10.710   2.417  22.249  0.00  0.00    -0.341 OA
BRANCH  19  22
ATOM     22  O   UNL     1       7.125   1.807  21.544  0.00  0.00    -0.384 OA
ATOM     23  H   UNL     1       6.600   1.701  22.358  0.00  0.00    +0.210 HD
ENDBRANCH  19  22
BRANCH  18  24
ATOM     24  O   UNL     1       7.004   4.154  23.036  0.00  0.00    -0.386 OA
ATOM     25  H   UNL     1       6.312   3.629  22.588  0.00  0.00    +0.210 HD
ENDBRANCH  18  24
BRANCH  17  26
ATOM     26  O   UNL     1       9.289   4.613  24.867  0.00  0.00    -0.386 OA
ATOM     27  H   UNL     1       8.905   3.936  25.451  0.00  0.00    +0.210 HD
ENDBRANCH  17  26
BRANCH  16  28
ATOM     28  C   UNL     1      11.890   4.165  23.389  0.00  0.00    +0.190 C 
BRANCH  28  29
ATOM     29  O   UNL     1      11.511   5.463  22.929  0.00  0.00    -0.392 OA
ATOM     30  H   UNL     1      11.502   5.425  21.958  0.00  0.00    +0.210 HD
ENDBRANCH  28  29
ENDBRANCH  16  28
ENDBRANCH  15  20
ENDBRANCH   2  15
ENDBRANCH   1   5
BRANCH   1  31
ATOM     31  C   UNL     1       7.559  -4.588  25.216  0.00  0.00    +0.183 C 
ATOM     32  C   UNL     1       6.250  -5.367  24.988  0.00  0.00    +0.178 C 
ATOM     33  O   UNL     1       5.130  -4.614  25.463  0.00  0.00    -0.341 OA
ATOM     34  C   UNL     1       5.196  -4.272  26.849  0.00  0.00    +0.282 C 
ATOM     35  C   UNL     1       6.494  -3.548  27.267  0.00  0.00    +0.201 C 
ATOM     36  C   UNL     1       7.710  -4.304  26.724  0.00  0.00    +0.179 C 
BRANCH  35  37
ATOM     37  O   UNL     1       6.516  -2.193  26.804  0.00  0.00    -0.384 OA
ATOM     38  H   UNL     1       6.249  -2.177  25.868  0.00  0.00    +0.210 HD
ENDBRANCH  35  37
BRANCH  36  39
ATOM     39  O   UNL     1       7.931  -5.536  27.424  0.00  0.00    -0.386 OA
ATOM     40  H   UNL     1       8.733  -5.456  27.978  0.00  0.00    +0.210 HD
ENDBRANCH  36  39
BRANCH  32  41
ATOM     41  C   UNL     1       6.005  -5.670  23.504  0.00  0.00    +0.190 C 
BRANCH  41  42
ATOM     42  O   UNL     1       5.493  -4.513  22.843  0.00  0.00    -0.392 OA
ATOM     43  H   UNL     1       6.128  -4.317  22.129  0.00  0.00    +0.210 HD
ENDBRANCH  41  42
ENDBRANCH  32  41
BRANCH  34  44
ATOM     44  O   UNL     1       4.949  -5.439  27.651  0.00  0.00    -0.340 OA
BRANCH  44  45
ATOM     45  C   UNL     1       4.270  -5.182  28.908  0.00  0.00    +0.183 C 
ATOM     46  C   UNL     1       4.567  -6.340  29.902  0.00  0.00    +0.178 C 
ATOM     47  O   UNL     1       4.018  -7.582  29.427  0.00  0.00    -0.341 OA
ATOM     48  C   UNL     1       2.602  -7.543  29.244  0.00  0.00    +0.279 C 
ATOM     49  C   UNL     1       2.191  -6.455  28.243  0.00  0.00    +0.201 C 
ATOM     50  C   UNL     1       2.736  -5.096  28.732  0.00  0.00    +0.179 C 
BRANCH  48  51
ATOM     51  O   UNL     1       1.942  -7.317  30.485  0.00  0.00    -0.365 OA
ATOM     52  H   UNL     1       2.247  -8.025  31.083  0.00  0.00    +0.213 HD
ENDBRANCH  48  51
BRANCH  49  53
ATOM     53  O   UNL     1       2.670  -6.778  26.934  0.00  0.00    -0.384 OA
ATOM     54  H   UNL     1       2.070  -7.453  26.557  0.00  0.00    +0.210 HD
ENDBRANCH  49  53
BRANCH  50  55
ATOM     55  O   UNL     1       2.105  -4.642  29.932  0.00  0.00    -0.386 OA
ATOM     56  H   UNL     1       2.766  -4.655  30.653  0.00  0.00    +0.210 HD
ENDBRANCH  50  55
BRANCH  46  57
ATOM     57  C   UNL     1       6.056  -6.552  30.190  0.00  0.00    +0.190 C 
BRANCH  57  58
ATOM     58  O   UNL     1       6.625  -7.452  29.247  0.00  0.00    -0.392 OA
ATOM     59  H   UNL     1       6.787  -8.292  29.714  0.00  0.00    +0.210 HD
ENDBRANCH  57  58
ENDBRANCH  46  57
ENDBRANCH  44  45
ENDBRANCH  34  44
ENDBRANCH   1  31
TORSDOF 24
ENDMDL
MODEL 3
REMARK VINA RESULT:      -6.5      1.171      2.154
REMARK  Name = 
REMARK  24 active torsions:
REMARK  status: ('A' for Active; 'I' for Inactive)
REMARK    1  A    between atoms: O_1  and  C_2
REMARK    2  A    between atoms: C_2  and  C_3
REMARK    3  A    between atoms: C_6  and  O_8
REMARK    4  A    between atoms: O_8  and  C_9
REMARK    5  A    between atoms: C_11  and  O_13
REMARK    6  A    between atoms: C_14  and  O_16
REMARK    7  A    between atoms: C_17  and  O_19
REMARK    8  A    between atoms: O_19  and  C_20
REMARK    9  A    between atoms: C_22  and  O_24
REMARK   10  A    between atoms: C_25  and  O_27
REMARK   11  A    between atoms: C_28  and  O_30
REMARK   12  A    between atoms: O_30  and  C_31
REMARK   13  A    between atoms: C_33  and  O_35
REMARK   14  A    between atoms: C_36  and  O_38
REMARK   15  A    between atoms: C_39  and  O_41
REMARK   16  A    between atoms: C_43  and  C_45
REMARK   17  A    between atoms: C_45  and  O_46
REMARK   18  A    between atoms: C_48  and  C_50
REMARK   19  A    between atoms: C_50  and  O_51
REMARK   20  A    between atoms: C_53  and  C_55
REMARK   21  A    between atoms: C_55  and  O_56
REMARK   22  A    between atoms: C_57  and  O_59
REMARK   23  A    between atoms: C_60  and  O_62
REMARK   24  A    between atoms: C_63  and  O_65
REMARK                            x       y       z     vdW  Elec       q    Type
REMARK                         _______ _______ _______ _____ _____    ______ ____
ROOT
ATOM      1  O   UNL     1       8.621  -2.525  25.146  0.00  0.00    -0.340 OA
ENDROOT
BRANCH   1   5
ATOM      2  C   UNL     1       7.800   0.463  23.340  0.00  0.00    +0.183 C 
ATOM      3  C   UNL     1       7.041  -0.121  24.558  0.00  0.00    +0.178 C 
ATOM      4  O   UNL     1       7.914  -0.322  25.688  0.00  0.00    -0.341 OA
ATOM      5  C   UNL     1       9.048  -1.182  25.426  0.00  0.00    +0.282 C 
ATOM      6  C   UNL     1       9.890  -0.596  24.275  0.00  0.00    +0.201 C 
ATOM      7  C   UNL     1       8.997  -0.454  23.032  0.00  0.00    +0.179 C 
BRANCH   6   8
ATOM      8  O   UNL     1      10.483   0.647  24.654  0.00  0.00    -0.384 OA
ATOM      9  H   UNL     1      10.217   1.321  23.995  0.00  0.00    +0.210 HD
ENDBRANCH   6   8
BRANCH   7  10
ATOM     10  O   UNL     1       8.536  -1.713  22.536  0.00  0.00    -0.386 OA
ATOM     11  H   UNL     1       8.498  -2.344  23.291  0.00  0.00    +0.210 HD
ENDBRANCH   7  10
BRANCH   3  12
ATOM     12  C   UNL     1       5.882   0.793  24.978  0.00  0.00    +0.190 C 
BRANCH  12  13
ATOM     13  O   UNL     1       5.287   1.395  23.830  0.00  0.00    -0.392 OA
ATOM     14  H   UNL     1       4.709   2.103  24.172  0.00  0.00    +0.210 HD
ENDBRANCH  12  13
ENDBRANCH   3  12
BRANCH   2  15
ATOM     15  O   UNL     1       8.197   1.821  23.619  0.00  0.00    -0.340 OA
BRANCH  15  20
ATOM     16  C   UNL     1      10.221   3.880  23.657  0.00  0.00    +0.178 C 
ATOM     17  C   UNL     1       9.295   5.108  23.769  0.00  0.00    +0.177 C 
ATOM     18  C   UNL     1       7.814   4.758  23.555  0.00  0.00    +0.179 C 
ATOM     19  C   UNL     1       7.654   3.890  22.308  0.00  0.00    +0.201 C 
ATOM     20  C   UNL     1       8.528   2.638  22.483  0.00  0.00    +0.282 C 
ATOM     21  O   UNL     1       9.895   3.040  22.541  0.00  0.00    -0.341 OA
BRANCH  19  22
ATOM     22  O   UNL     1       6.263   3.615  22.098  0.00  0.00    -0.384 OA
ATOM     23  H   UNL     1       5.747   4.277  22.596  0.00  0.00    +0.210 HD
ENDBRANCH  19  22
BRANCH  18  24
ATOM     24  O   UNL     1       7.040   5.955  23.391  0.00  0.00    -0.386 OA
ATOM     25  H   UNL     1       6.139   5.655  23.161  0.00  0.00    +0.210 HD
ENDBRANCH  18  24
BRANCH  17  26
ATOM     26  O   UNL     1       9.492   5.738  25.041  0.00  0.00    -0.386 OA
ATOM     27  H   UNL     1       8.977   6.564  25.056  0.00  0.00    +0.210 HD
ENDBRANCH  17  26
BRANCH  16  28
ATOM     28  C   UNL     1      11.672   4.362  23.459  0.00  0.00    +0.190 C 
BRANCH  28  29
ATOM     29  O   UNL     1      11.705   5.606  22.759  0.00  0.00    -0.392 OA
ATOM     30  H   UNL     1      10.814   5.988  22.823  0.00  0.00    +0.210 HD
ENDBRANCH  28  29
ENDBRANCH  16  28
ENDBRANCH  15  20
ENDBRANCH   2  15
ENDBRANCH   1   5
BRANCH   1  31
ATOM     31  C   UNL     1       7.883  -3.183  26.208  0.00  0.00    +0.183 C 
ATOM     32  C   UNL     1       8.146  -4.700  26.149  0.00  0.00    +0.178 C 
ATOM     33  O   UNL     1       7.586  -5.260  24.958  0.00  0.00    -0.341 OA
ATOM     34  C   UNL     1       6.178  -5.058  24.818  0.00  0.00    +0.282 C 
ATOM     35  C   UNL     1       5.730  -3.585  24.933  0.00  0.00    +0.201 C 
ATOM     36  C   UNL     1       6.359  -2.944  26.172  0.00  0.00    +0.179 C 
BRANCH  35  37
ATOM     37  O   UNL     1       6.078  -2.835  23.764  0.00  0.00    -0.384 OA
ATOM     38  H   UNL     1       6.895  -2.336  23.943  0.00  0.00    +0.210 HD
ENDBRANCH  35  37
BRANCH  36  39
ATOM     39  O   UNL     1       5.769  -3.430  27.386  0.00  0.00    -0.386 OA
ATOM     40  H   UNL     1       6.201  -4.267  27.645  0.00  0.00    +0.210 HD
ENDBRANCH  36  39
BRANCH  32  41
ATOM     41  C   UNL     1       9.644  -5.029  26.153  0.00  0.00    +0.190 C 
BRANCH  41  42
ATOM     42  O   UNL     1      10.123  -5.163  24.815  0.00  0.00    -0.392 OA
ATOM     43  H   UNL     1      11.091  -5.057  24.871  0.00  0.00    +0.210 HD
ENDBRANCH  41  42
ENDBRANCH  32  41
BRANCH  34  44
ATOM     44  O   UNL     1       5.471  -5.909  25.736  0.00  0.00    -0.340 OA
BRANCH  44  45
ATOM     45  C   UNL     1       4.089  -5.534  25.972  0.00  0.00    +0.183 C 
ATOM     46  C   UNL     1       3.449  -6.529  26.981  0.00  0.00    +0.178 C 
ATOM     47  O   UNL     1       3.388  -7.857  26.429  0.00  0.00    -0.341 OA
ATOM     48  C   UNL     1       2.625  -7.936  25.224  0.00  0.00    +0.279 C 
ATOM     49  C   UNL     1       3.194  -7.018  24.133  0.00  0.00    +0.201 C 
ATOM     50  C   UNL     1       3.248  -5.574  24.675  0.00  0.00    +0.179 C 
BRANCH  48  51
ATOM     51  O   UNL     1       1.265  -7.593  25.468  0.00  0.00    -0.365 OA
ATOM     52  H   UNL     1       0.852  -8.392  25.847  0.00  0.00    +0.213 HD
ENDBRANCH  48  51
BRANCH  49  53
ATOM     53  O   UNL     1       4.483  -7.478  23.720  0.00  0.00    -0.384 OA
ATOM     54  H   UNL     1       4.934  -6.735  23.271  0.00  0.00    +0.210 HD
ENDBRANCH  49  53
BRANCH  50  55
ATOM     55  O   UNL     1       1.952  -5.009  24.886  0.00  0.00    -0.386 OA
ATOM     56  H   UNL     1       1.898  -4.692  25.810  0.00  0.00    +0.210 HD
ENDBRANCH  50  55
BRANCH  46  57
ATOM     57  C   UNL     1       4.168  -6.603  28.331  0.00  0.00    +0.190 C 
BRANCH  57  58
ATOM     58  O   UNL     1       5.267  -7.505  28.264  0.00  0.00    -0.392 OA
ATOM     59  H   UNL     1       6.077  -6.965  28.226  0.00  0.00    +0.210 HD
ENDBRANCH  57  58
ENDBRANCH  46  57
ENDBRANCH  44  45
ENDBRANCH  34  44
ENDBRANCH   1  31
TORSDOF 24
ENDMDL
MODEL 4
REMARK VINA RESULT:      -6.5      1.861      3.310
REMARK  Name = 
REMARK  24 active torsions:
REMARK  status: ('A' for Active; 'I' for Inactive)
REMARK    1  A    between atoms: O_1  and  C_2
REMARK    2  A    between atoms: C_2  and  C_3
REMARK    3  A    between atoms: C_6  and  O_8
REMARK    4  A    between atoms: O_8  and  C_9
REMARK    5  A    between atoms: C_11  and  O_13
REMARK    6  A    between atoms: C_14  and  O_16
REMARK    7  A    between atoms: C_17  and  O_19
REMARK    8  A    between atoms: O_19  and  C_20
REMARK    9  A    between atoms: C_22  and  O_24
REMARK   10  A    between atoms: C_25  and  O_27
REMARK   11  A    between atoms: C_28  and  O_30
REMARK   12  A    between atoms: O_30  and  C_31
REMARK   13  A    between atoms: C_33  and  O_35
REMARK   14  A    between atoms: C_36  and  O_38
REMARK   15  A    between atoms: C_39  and  O_41
REMARK   16  A    between atoms: C_43  and  C_45
REMARK   17  A    between atoms: C_45  and  O_46
REMARK   18  A    between atoms: C_48  and  C_50
REMARK   19  A    between atoms: C_50  and  O_51
REMARK   20  A    between atoms: C_53  and  C_55
REMARK   21  A    between atoms: C_55  and  O_56
REMARK   22  A    between atoms: C_57  and  O_59
REMARK   23  A    between atoms: C_60  and  O_62
REMARK   24  A    between atoms: C_63  and  O_65
REMARK                            x       y       z     vdW  Elec       q    Type
REMARK                         _______ _______ _______ _____ _____    ______ ____
ROOT
ATOM      1  O   UNL     1       8.286  -0.800  24.141  0.00  0.00    -0.340 OA
ENDROOT
BRANCH   1   5
ATOM      2  C   UNL     1       8.238   2.757  23.682  0.00  0.00    +0.183 C 
ATOM      3  C   UNL     1       7.570   1.962  24.831  0.00  0.00    +0.178 C 
ATOM      4  O   UNL     1       8.515   1.121  25.521  0.00  0.00    -0.341 OA
ATOM      5  C   UNL     1       9.203   0.169  24.675  0.00  0.00    +0.282 C 
ATOM      6  C   UNL     1       9.961   0.918  23.561  0.00  0.00    +0.201 C 
ATOM      7  C   UNL     1       8.955   1.757  22.757  0.00  0.00    +0.179 C 
BRANCH   6   8
ATOM      8  O   UNL     1      11.014   1.717  24.103  0.00  0.00    -0.384 OA
ATOM      9  H   UNL     1      10.980   2.594  23.669  0.00  0.00    +0.210 HD
ENDBRANCH   6   8
BRANCH   7  10
ATOM     10  O   UNL     1       7.995   0.955  22.063  0.00  0.00    -0.386 OA
ATOM     11  H   UNL     1       7.964   0.072  22.497  0.00  0.00    +0.210 HD
ENDBRANCH   7  10
BRANCH   3  12
ATOM     12  C   UNL     1       6.909   2.907  25.845  0.00  0.00    +0.190 C 
BRANCH  12  13
ATOM     13  O   UNL     1       7.761   3.091  26.976  0.00  0.00    -0.392 OA
ATOM     14  H   UNL     1       7.207   2.903  27.757  0.00  0.00    +0.210 HD
ENDBRANCH  12  13
ENDBRANCH   3  12
BRANCH   2  15
ATOM     15  O   UNL     1       9.133   3.748  24.229  0.00  0.00    -0.340 OA
BRANCH  15  20
ATOM     16  C   UNL     1      10.605   6.031  25.207  0.00  0.00    +0.178 C 
ATOM     17  C   UNL     1       9.433   6.799  25.850  0.00  0.00    +0.177 C 
ATOM     18  C   UNL     1       8.063   6.206  25.487  0.00  0.00    +0.179 C 
ATOM     19  C   UNL     1       7.978   5.961  23.982  0.00  0.00    +0.201 C 
ATOM     20  C   UNL     1       9.136   5.033  23.584  0.00  0.00    +0.282 C 
ATOM     21  O   UNL     1      10.368   5.709  23.830  0.00  0.00    -0.341 OA
BRANCH  19  22
ATOM     22  O   UNL     1       6.676   5.454  23.657  0.00  0.00    -0.384 OA
ATOM     23  H   UNL     1       6.151   6.189  23.289  0.00  0.00    +0.210 HD
ENDBRANCH  19  22
BRANCH  18  24
ATOM     24  O   UNL     1       7.014   7.108  25.871  0.00  0.00    -0.386 OA
ATOM     25  H   UNL     1       6.299   6.971  25.220  0.00  0.00    +0.210 HD
ENDBRANCH  18  24
BRANCH  17  26
ATOM     26  O   UNL     1       9.612   6.839  27.272  0.00  0.00    -0.386 OA
ATOM     27  H   UNL     1       8.734   6.863  27.689  0.00  0.00    +0.210 HD
ENDBRANCH  17  26
BRANCH  16  28
ATOM     28  C   UNL     1      11.871   6.909  25.261  0.00  0.00    +0.190 C 
BRANCH  28  29
ATOM     29  O   UNL     1      12.920   6.339  24.479  0.00  0.00    -0.392 OA
ATOM     30  H   UNL     1      13.484   5.834  25.089  0.00  0.00    +0.210 HD
ENDBRANCH  28  29
ENDBRANCH  16  28
ENDBRANCH  15  20
ENDBRANCH   2  15
ENDBRANCH   1   5
BRANCH   1  31
ATOM     31  C   UNL     1       8.486  -2.165  24.587  0.00  0.00    +0.183 C 
ATOM     32  C   UNL     1       7.449  -3.081  23.909  0.00  0.00    +0.178 C 
ATOM     33  O   UNL     1       6.130  -2.771  24.367  0.00  0.00    -0.341 OA
ATOM     34  C   UNL     1       5.955  -2.890  25.780  0.00  0.00    +0.282 C 
ATOM     35  C   UNL     1       6.974  -2.089  26.619  0.00  0.00    +0.201 C 
ATOM     36  C   UNL     1       8.393  -2.360  26.114  0.00  0.00    +0.179 C 
BRANCH  35  37
ATOM     37  O   UNL     1       6.702  -0.684  26.580  0.00  0.00    -0.384 OA
ATOM     38  H   UNL     1       5.738  -0.550  26.581  0.00  0.00    +0.210 HD
ENDBRANCH  35  37
BRANCH  36  39
ATOM     39  O   UNL     1       8.842  -3.679  26.457  0.00  0.00    -0.386 OA
ATOM     40  H   UNL     1       9.363  -4.048  25.717  0.00  0.00    +0.210 HD
ENDBRANCH  36  39
BRANCH  32  41
ATOM     41  C   UNL     1       7.454  -2.931  22.382  0.00  0.00    +0.190 C 
BRANCH  41  42
ATOM     42  O   UNL     1       8.642  -2.265  21.956  0.00  0.00    -0.392 OA
ATOM     43  H   UNL     1       8.350  -1.598  21.307  0.00  0.00    +0.210 HD
ENDBRANCH  41  42
ENDBRANCH  32  41
BRANCH  34  44
ATOM     44  O   UNL     1       5.925  -4.278  26.152  0.00  0.00    -0.340 OA
BRANCH  44  45
ATOM     45  C   UNL     1       4.741  -4.687  26.885  0.00  0.00    +0.183 C 
ATOM     46  C   UNL     1       5.003  -6.060  27.565  0.00  0.00    +0.178 C 
ATOM     47  O   UNL     1       5.210  -7.092  26.583  0.00  0.00    -0.341 OA
ATOM     48  C   UNL     1       4.099  -7.268  25.702  0.00  0.00    +0.279 C 
ATOM     49  C   UNL     1       3.772  -5.976  24.940  0.00  0.00    +0.201 C 
ATOM     50  C   UNL     1       3.512  -4.847  25.960  0.00  0.00    +0.179 C 
BRANCH  48  51
ATOM     51  O   UNL     1       2.949  -7.694  26.424  0.00  0.00    -0.365 OA
ATOM     52  H   UNL     1       3.245  -8.436  26.985  0.00  0.00    +0.213 HD
ENDBRANCH  48  51
BRANCH  49  53
ATOM     53  O   UNL     1       4.837  -5.646  24.043  0.00  0.00    -0.384 OA
ATOM     54  H   UNL     1       4.548  -4.879  23.509  0.00  0.00    +0.210 HD
ENDBRANCH  49  53
BRANCH  50  55
ATOM     55  O   UNL     1       2.319  -5.048  26.720  0.00  0.00    -0.386 OA
ATOM     56  H   UNL     1       2.344  -5.947  27.106  0.00  0.00    +0.210 HD
ENDBRANCH  50  55
BRANCH  46  57
ATOM     57  C   UNL     1       6.194  -6.067  28.527  0.00  0.00    +0.190 C 
BRANCH  57  58
ATOM     58  O   UNL     1       7.420  -6.009  27.806  0.00  0.00    -0.392 OA
ATOM     59  H   UNL     1       7.193  -5.887  26.866  0.00  0.00    +0.210 HD
ENDBRANCH  57  58
ENDBRANCH  46  57
ENDBRANCH  44  45
ENDBRANCH  34  44
ENDBRANCH   1  31
TORSDOF 24
ENDMDL
MODEL 5
REMARK VINA RESULT:      -6.4      2.054     10.517
REMARK  Name = 
REMARK  24 active torsions:
REMARK  status: ('A' for Active; 'I' for Inactive)
REMARK    1  A    between atoms: O_1  and  C_2
REMARK    2  A    between atoms: C_2  and  C_3
REMARK    3  A    between atoms: C_6  and  O_8
REMARK    4  A    between atoms: O_8  and  C_9
REMARK    5  A    between atoms: C_11  and  O_13
REMARK    6  A    between atoms: C_14  and  O_16
REMARK    7  A    between atoms: C_17  and  O_19
REMARK    8  A    between atoms: O_19  and  C_20
REMARK    9  A    between atoms: C_22  and  O_24
REMARK   10  A    between atoms: C_25  and  O_27
REMARK   11  A    between atoms: C_28  and  O_30
REMARK   12  A    between atoms: O_30  and  C_31
REMARK   13  A    between atoms: C_33  and  O_35
REMARK   14  A    between atoms: C_36  and  O_38
REMARK   15  A    between atoms: C_39  and  O_41
REMARK   16  A    between atoms: C_43  and  C_45
REMARK   17  A    between atoms: C_45  and  O_46
REMARK   18  A    between atoms: C_48  and  C_50
REMARK   19  A    between atoms: C_50  and  O_51
REMARK   20  A    between atoms: C_53  and  C_55
REMARK   21  A    between atoms: C_55  and  O_56
REMARK   22  A    between atoms: C_57  and  O_59
REMARK   23  A    between atoms: C_60  and  O_62
REMARK   24  A    between atoms: C_63  and  O_65
REMARK                            x       y       z     vdW  Elec       q    Type
REMARK                         _______ _______ _______ _____ _____    ______ ____
ROOT
ATOM      1  O   UNL     1       6.720  -4.655  25.924  0.00  0.00    -0.340 OA
ENDROOT
BRANCH   1   5
ATOM      2  C   UNL     1       3.292  -5.531  25.338  0.00  0.00    +0.183 C 
ATOM      3  C   UNL     1       4.424  -5.461  24.283  0.00  0.00    +0.178 C 
ATOM      4  O   UNL     1       5.550  -6.283  24.649  0.00  0.00    -0.341 OA
ATOM      5  C   UNL     1       6.132  -5.966  25.935  0.00  0.00    +0.282 C 
ATOM      6  C   UNL     1       5.064  -6.107  27.038  0.00  0.00    +0.201 C 
ATOM      7  C   UNL     1       3.889  -5.172  26.710  0.00  0.00    +0.179 C 
BRANCH   6   8
ATOM      8  O   UNL     1       4.646  -7.466  27.177  0.00  0.00    -0.384 OA
ATOM      9  H   UNL     1       3.763  -7.467  27.601  0.00  0.00    +0.210 HD
ENDBRANCH   6   8
BRANCH   7  10
ATOM     10  O   UNL     1       4.256  -3.791  26.740  0.00  0.00    -0.386 OA
ATOM     11  H   UNL     1       5.118  -3.694  26.275  0.00  0.00    +0.210 HD
ENDBRANCH   7  10
BRANCH   3  12
ATOM     12  C   UNL     1       3.918  -5.895  22.900  0.00  0.00    +0.190 C 
BRANCH  12  13
ATOM     13  O   UNL     1       2.594  -5.408  22.683  0.00  0.00    -0.392 OA
ATOM     14  H   UNL     1       2.033  -6.201  22.592  0.00  0.00    +0.210 HD
ENDBRANCH  12  13
ENDBRANCH   3  12
BRANCH   2  15
ATOM     15  O   UNL     1       2.688  -6.841  25.319  0.00  0.00    -0.340 OA
BRANCH  15  20
ATOM     16  C   UNL     1       1.223  -8.581  27.097  0.00  0.00    +0.178 C 
ATOM     17  C   UNL     1       0.808  -9.657  26.073  0.00  0.00    +0.177 C 
ATOM     18  C   UNL     1       1.094  -9.238  24.622  0.00  0.00    +0.179 C 
ATOM     19  C   UNL     1       0.580  -7.821  24.374  0.00  0.00    +0.201 C 
ATOM     20  C   UNL     1       1.253  -6.885  25.391  0.00  0.00    +0.282 C 
ATOM     21  O   UNL     1       0.833  -7.259  26.702  0.00  0.00    -0.341 OA
BRANCH  19  22
ATOM     22  O   UNL     1       0.812  -7.467  23.004  0.00  0.00    -0.384 OA
ATOM     23  H   UNL     1      -0.046  -7.487  22.539  0.00  0.00    +0.210 HD
ENDBRANCH  19  22
BRANCH  18  24
ATOM     24  O   UNL     1       0.443 -10.135  23.710  0.00  0.00    -0.386 OA
ATOM     25  H   UNL     1       0.345 -10.977  24.195  0.00  0.00    +0.210 HD
ENDBRANCH  18  24
BRANCH  17  26
ATOM     26  O   UNL     1       1.466 -10.892  26.387  0.00  0.00    -0.386 OA
ATOM     27  H   UNL     1       0.986 -11.613  25.945  0.00  0.00    +0.210 HD
ENDBRANCH  17  26
BRANCH  16  28
ATOM     28  C   UNL     1       0.535  -8.879  28.445  0.00  0.00    +0.190 C 
BRANCH  28  29
ATOM     29  O   UNL     1       1.265  -9.857  29.184  0.00  0.00    -0.392 OA
ATOM     30  H   UNL     1       1.797 -10.356  28.542  0.00  0.00    +0.210 HD
ENDBRANCH  28  29
ENDBRANCH  16  28
ENDBRANCH  15  20
ENDBRANCH   2  15
ENDBRANCH   1   5
BRANCH   1  31
ATOM     31  C   UNL     1       7.188  -4.188  24.633  0.00  0.00    +0.183 C 
ATOM     32  C   UNL     1       8.695  -3.878  24.718  0.00  0.00    +0.178 C 
ATOM     33  O   UNL     1       8.930  -2.762  25.581  0.00  0.00    -0.341 OA
ATOM     34  C   UNL     1       8.262  -1.562  25.186  0.00  0.00    +0.282 C 
ATOM     35  C   UNL     1       6.740  -1.717  24.978  0.00  0.00    +0.201 C 
ATOM     36  C   UNL     1       6.456  -2.939  24.101  0.00  0.00    +0.179 C 
BRANCH  35  37
ATOM     37  O   UNL     1       6.047  -1.840  26.225  0.00  0.00    -0.384 OA
ATOM     38  H   UNL     1       6.377  -1.158  26.836  0.00  0.00    +0.210 HD
ENDBRANCH  35  37
BRANCH  36  39
ATOM     39  O   UNL     1       6.825  -2.714  22.733  0.00  0.00    -0.386 OA
ATOM     40  H   UNL     1       7.627  -3.232  22.523  0.00  0.00    +0.210 HD
ENDBRANCH  36  39
BRANCH  32  41
ATOM     41  C   UNL     1       9.501  -5.063  25.267  0.00  0.00    +0.190 C 
BRANCH  41  42
ATOM     42  O   UNL     1       9.420  -5.095  26.691  0.00  0.00    -0.392 OA
ATOM     43  H   UNL     1      10.304  -5.376  26.997  0.00  0.00    +0.210 HD
ENDBRANCH  41  42
ENDBRANCH  32  41
BRANCH  34  44
ATOM     44  O   UNL     1       8.909  -1.002  24.031  0.00  0.00    -0.340 OA
BRANCH  44  45
ATOM     45  C   UNL     1       8.250   0.162  23.468  0.00  0.00    +0.183 C 
ATOM     46  C   UNL     1       8.939   0.549  22.129  0.00  0.00    +0.178 C 
ATOM     47  O   UNL     1      10.302   0.958  22.348  0.00  0.00    -0.341 OA
ATOM     48  C   UNL     1      10.423   2.084  23.219  0.00  0.00    +0.279 C 
ATOM     49  C   UNL     1       9.808   1.801  24.597  0.00  0.00    +0.201 C 
ATOM     50  C   UNL     1       8.333   1.387  24.410  0.00  0.00    +0.179 C 
BRANCH  48  51
ATOM     51  O   UNL     1       9.798   3.229  22.649  0.00  0.00    -0.365 OA
ATOM     52  H   UNL     1       9.699   3.870  23.378  0.00  0.00    +0.213 HD
ENDBRANCH  48  51
BRANCH  49  53
ATOM     53  O   UNL     1      10.560   0.792  25.278  0.00  0.00    -0.384 OA
ATOM     54  H   UNL     1       9.938   0.289  25.842  0.00  0.00    +0.210 HD
ENDBRANCH  49  53
BRANCH  50  55
ATOM     55  O   UNL     1       7.510   2.455  23.937  0.00  0.00    -0.386 OA
ATOM     56  H   UNL     1       8.078   3.236  23.776  0.00  0.00    +0.210 HD
ENDBRANCH  50  55
BRANCH  46  57
ATOM     57  C   UNL     1       8.935  -0.565  21.078  0.00  0.00    +0.190 C 
BRANCH  57  58
ATOM     58  O   UNL     1       9.564  -1.735  21.586  0.00  0.00    -0.392 OA
ATOM     59  H   UNL     1      10.257  -1.441  22.206  0.00  0.00    +0.210 HD
ENDBRANCH  57  58
ENDBRANCH  46  57
ENDBRANCH  44  45
ENDBRANCH  34  44
ENDBRANCH   1  31
TORSDOF 24
ENDMDL
MODEL 6
REMARK VINA RESULT:      -6.3      1.703      2.938
REMARK  Name = 
REMARK  24 active torsions:
REMARK  status: ('A' for Active; 'I' for Inactive)
REMARK    1  A    between atoms: O_1  and  C_2
REMARK    2  A    between atoms: C_2  and  C_3
REMARK    3  A    between atoms: C_6  and  O_8
REMARK    4  A    between atoms: O_8  and  C_9
REMARK    5  A    between atoms: C_11  and  O_13
REMARK    6  A    between atoms: C_14  and  O_16
REMARK    7  A    between atoms: C_17  and  O_19
REMARK    8  A    between atoms: O_19  and  C_20
REMARK    9  A    between atoms: C_22  and  O_24
REMARK   10  A    between atoms: C_25  and  O_27
REMARK   11  A    between atoms: C_28  and  O_30
REMARK   12  A    between atoms: O_30  and  C_31
REMARK   13  A    between atoms: C_33  and  O_35
REMARK   14  A    between atoms: C_36  and  O_38
REMARK   15  A    between atoms: C_39  and  O_41
REMARK   16  A    between atoms: C_43  and  C_45
REMARK   17  A    between atoms: C_45  and  O_46
REMARK   18  A    between atoms: C_48  and  C_50
REMARK   19  A    between atoms: C_50  and  O_51
REMARK   20  A    between atoms: C_53  and  C_55
REMARK   21  A    between atoms: C_55  and  O_56
REMARK   22  A    between atoms: C_57  and  O_59
REMARK   23  A    between atoms: C_60  and  O_62
REMARK   24  A    between atoms: C_63  and  O_65
REMARK                            x       y       z     vdW  Elec       q    Type
REMARK                         _______ _______ _______ _____ _____    ______ ____
ROOT
ATOM      1  O   UNL     1       7.412  -1.435  24.240  0.00  0.00    -0.340 OA
ENDROOT
BRANCH   1   5
ATOM      2  C   UNL     1       7.639   1.990  23.200  0.00  0.00    +0.183 C 
ATOM      3  C   UNL     1       6.446   1.319  23.925  0.00  0.00    +0.178 C 
ATOM      4  O   UNL     1       6.852   0.685  25.154  0.00  0.00    -0.341 OA
ATOM      5  C   UNL     1       7.888  -0.314  25.002  0.00  0.00    +0.282 C 
ATOM      6  C   UNL     1       9.137   0.325  24.363  0.00  0.00    +0.201 C 
ATOM      7  C   UNL     1       8.742   0.933  23.007  0.00  0.00    +0.179 C 
BRANCH   6   8
ATOM      8  O   UNL     1       9.722   1.293  25.235  0.00  0.00    -0.384 OA
ATOM      9  H   UNL     1      10.421   0.847  25.755  0.00  0.00    +0.210 HD
ENDBRANCH   6   8
BRANCH   7  10
ATOM     10  O   UNL     1       8.318  -0.052  22.062  0.00  0.00    -0.386 OA
ATOM     11  H   UNL     1       8.597  -0.935  22.395  0.00  0.00    +0.210 HD
ENDBRANCH   7  10
BRANCH   3  12
ATOM     12  C   UNL     1       5.340   2.339  24.231  0.00  0.00    +0.190 C 
BRANCH  12  13
ATOM     13  O   UNL     1       4.578   2.608  23.055  0.00  0.00    -0.392 OA
ATOM     14  H   UNL     1       4.768   1.872  22.443  0.00  0.00    +0.210 HD
ENDBRANCH  12  13
ENDBRANCH   3  12
BRANCH   2  15
ATOM     15  O   UNL     1       8.089   3.132  23.957  0.00  0.00    -0.340 OA
BRANCH  15  20
ATOM     16  C   UNL     1       8.961   5.616  25.144  0.00  0.00    +0.178 C 
ATOM     17  C   UNL     1       7.681   6.443  24.906  0.00  0.00    +0.177 C 
ATOM     18  C   UNL     1       6.681   5.738  23.978  0.00  0.00    +0.179 C 
ATOM     19  C   UNL     1       7.397   5.212  22.735  0.00  0.00    +0.201 C 
ATOM     20  C   UNL     1       8.524   4.272  23.197  0.00  0.00    +0.282 C 
ATOM     21  O   UNL     1       9.475   5.032  23.940  0.00  0.00    -0.341 OA
BRANCH  19  22
ATOM     22  O   UNL     1       6.440   4.600  21.860  0.00  0.00    -0.384 OA
ATOM     23  H   UNL     1       5.874   4.015  22.397  0.00  0.00    +0.210 HD
ENDBRANCH  19  22
BRANCH  18  24
ATOM     24  O   UNL     1       5.653   6.652  23.569  0.00  0.00    -0.386 OA
ATOM     25  H   UNL     1       6.055   7.204  22.870  0.00  0.00    +0.210 HD
ENDBRANCH  18  24
BRANCH  17  26
ATOM     26  O   UNL     1       7.075   6.756  26.167  0.00  0.00    -0.386 OA
ATOM     27  H   UNL     1       7.612   6.354  26.872  0.00  0.00    +0.210 HD
ENDBRANCH  17  26
BRANCH  16  28
ATOM     28  C   UNL     1      10.058   6.539  25.711  0.00  0.00    +0.190 C 
BRANCH  28  29
ATOM     29  O   UNL     1       9.885   6.733  27.115  0.00  0.00    -0.392 OA
ATOM     30  H   UNL     1      10.732   6.509  27.536  0.00  0.00    +0.210 HD
ENDBRANCH  28  29
ENDBRANCH  16  28
ENDBRANCH  15  20
ENDBRANCH   2  15
ENDBRANCH   1   5
BRANCH   1  31
ATOM     31  C   UNL     1       7.394  -2.707  24.938  0.00  0.00    +0.183 C 
ATOM     32  C   UNL     1       7.034  -3.829  23.947  0.00  0.00    +0.178 C 
ATOM     33  O   UNL     1       5.687  -3.682  23.490  0.00  0.00    -0.341 OA
ATOM     34  C   UNL     1       4.708  -3.693  24.531  0.00  0.00    +0.282 C 
ATOM     35  C   UNL     1       4.965  -2.671  25.659  0.00  0.00    +0.201 C 
ATOM     36  C   UNL     1       6.417  -2.769  26.131  0.00  0.00    +0.179 C 
BRANCH  35  37
ATOM     37  O   UNL     1       4.679  -1.333  25.235  0.00  0.00    -0.384 OA
ATOM     38  H   UNL     1       3.815  -1.324  24.786  0.00  0.00    +0.210 HD
ENDBRANCH  35  37
BRANCH  36  39
ATOM     39  O   UNL     1       6.657  -3.966  26.884  0.00  0.00    -0.386 OA
ATOM     40  H   UNL     1       5.813  -4.443  27.013  0.00  0.00    +0.210 HD
ENDBRANCH  36  39
BRANCH  32  41
ATOM     41  C   UNL     1       7.943  -3.825  22.710  0.00  0.00    +0.190 C 
BRANCH  41  42
ATOM     42  O   UNL     1       7.612  -2.727  21.860  0.00  0.00    -0.392 OA
ATOM     43  H   UNL     1       6.640  -2.647  21.902  0.00  0.00    +0.210 HD
ENDBRANCH  41  42
ENDBRANCH  32  41
BRANCH  34  44
ATOM     44  O   UNL     1       4.553  -5.029  25.040  0.00  0.00    -0.340 OA
BRANCH  44  45
ATOM     45  C   UNL     1       3.209  -5.362  25.475  0.00  0.00    +0.183 C 
ATOM     46  C   UNL     1       3.221  -6.755  26.166  0.00  0.00    +0.178 C 
ATOM     47  O   UNL     1       3.582  -7.791  25.236  0.00  0.00    -0.341 OA
ATOM     48  C   UNL     1       2.693  -7.887  24.121  0.00  0.00    +0.279 C 
ATOM     49  C   UNL     1       2.632  -6.571  23.333  0.00  0.00    +0.201 C 
ATOM     50  C   UNL     1       2.217  -5.434  24.291  0.00  0.00    +0.179 C 
BRANCH  48  51
ATOM     51  O   UNL     1       1.384  -8.240  24.553  0.00  0.00    -0.365 OA
ATOM     52  H   UNL     1       0.994  -7.426  24.921  0.00  0.00    +0.213 HD
ENDBRANCH  48  51
BRANCH  49  53
ATOM     53  O   UNL     1       3.892  -6.306  22.710  0.00  0.00    -0.384 OA
ATOM     54  H   UNL     1       4.195  -5.427  23.014  0.00  0.00    +0.210 HD
ENDBRANCH  49  53
BRANCH  50  55
ATOM     55  O   UNL     1       0.871  -5.560  24.755  0.00  0.00    -0.386 OA
ATOM     56  H   UNL     1       0.783  -6.414  25.224  0.00  0.00    +0.210 HD
ENDBRANCH  50  55
BRANCH  46  57
ATOM     57  C   UNL     1       4.158  -6.847  27.374  0.00  0.00    +0.190 C 
BRANCH  57  58
ATOM     58  O   UNL     1       5.517  -6.767  26.960  0.00  0.00    -0.392 OA
ATOM     59  H   UNL     1       5.520  -6.784  25.986  0.00  0.00    +0.210 HD
ENDBRANCH  57  58
ENDBRANCH  46  57
ENDBRANCH  44  45
ENDBRANCH  34  44
ENDBRANCH   1  31
TORSDOF 24
ENDMDL
MODEL 7
REMARK VINA RESULT:      -6.2      1.766      2.210
REMARK  Name = 
REMARK  24 active torsions:
REMARK  status: ('A' for Active; 'I' for Inactive)
REMARK    1  A    between atoms: O_1  and  C_2
REMARK    2  A    between atoms: C_2  and  C_3
REMARK    3  A    between atoms: C_6  and  O_8
REMARK    4  A    between atoms: O_8  and  C_9
REMARK    5  A    between atoms: C_11  and  O_13
REMARK    6  A    between atoms: C_14  and  O_16
REMARK    7  A    between atoms: C_17  and  O_19
REMARK    8  A    between atoms: O_19  and  C_20
REMARK    9  A    between atoms: C_22  and  O_24
REMARK   10  A    between atoms: C_25  and  O_27
REMARK   11  A    between atoms: C_28  and  O_30
REMARK   12  A    between atoms: O_30  and  C_31
REMARK   13  A    between atoms: C_33  and  O_35
REMARK   14  A    between atoms: C_36  and  O_38
REMARK   15  A    between atoms: C_39  and  O_41
REMARK   16  A    between atoms: C_43  and  C_45
REMARK   17  A    between atoms: C_45  and  O_46
REMARK   18  A    between atoms: C_48  and  C_50
REMARK   19  A    between atoms: C_50  and  O_51
REMARK   20  A    between atoms: C_53  and  C_55
REMARK   21  A    between atoms: C_55  and  O_56
REMARK   22  A    between atoms: C_57  and  O_59
REMARK   23  A    between atoms: C_60  and  O_62
REMARK   24  A    between atoms: C_63  and  O_65
REMARK                            x       y       z     vdW  Elec       q    Type
REMARK                         _______ _______ _______ _____ _____    ______ ____
ROOT
ATOM      1  O   UNL     1       8.702  -1.330  24.670  0.00  0.00    -0.340 OA
ENDROOT
BRANCH   1   5
ATOM      2  C   UNL     1       8.319   2.164  23.957  0.00  0.00    +0.183 C 
ATOM      3  C   UNL     1       7.865   1.426  25.240  0.00  0.00    +0.178 C 
ATOM      4  O   UNL     1       8.952   0.712  25.861  0.00  0.00    -0.341 OA
ATOM      5  C   UNL     1       9.600  -0.259  25.005  0.00  0.00    +0.282 C 
ATOM      6  C   UNL     1      10.151   0.442  23.748  0.00  0.00    +0.201 C 
ATOM      7  C   UNL     1       8.990   1.141  23.023  0.00  0.00    +0.179 C 
BRANCH   6   8
ATOM      8  O   UNL     1      11.198   1.354  24.085  0.00  0.00    -0.384 OA
ATOM      9  H   UNL     1      12.033   0.846  24.140  0.00  0.00    +0.210 HD
ENDBRANCH   6   8
BRANCH   7  10
ATOM     10  O   UNL     1       8.016   0.220  22.523  0.00  0.00    -0.386 OA
ATOM     11  H   UNL     1       7.235   0.737  22.218  0.00  0.00    +0.210 HD
ENDBRANCH   7  10
BRANCH   3  12
ATOM     12  C   UNL     1       7.265   2.405  26.259  0.00  0.00    +0.190 C 
BRANCH  12  13
ATOM     13  O   UNL     1       7.535   1.961  27.588  0.00  0.00    -0.392 OA
ATOM     14  H   UNL     1       6.784   2.272  28.128  0.00  0.00    +0.210 HD
ENDBRANCH  12  13
ENDBRANCH   3  12
BRANCH   2  15
ATOM     15  O   UNL     1       9.195   3.256  24.306  0.00  0.00    -0.340 OA
BRANCH  15  20
ATOM     16  C   UNL     1      10.844   5.597  24.678  0.00  0.00    +0.178 C 
ATOM     17  C   UNL     1       9.818   6.485  25.410  0.00  0.00    +0.177 C 
ATOM     18  C   UNL     1       8.398   5.896  25.386  0.00  0.00    +0.179 C 
ATOM     19  C   UNL     1       8.035   5.455  23.969  0.00  0.00    +0.201 C 
ATOM     20  C   UNL     1       9.092   4.442  23.500  0.00  0.00    +0.282 C 
ATOM     21  O   UNL     1      10.355   5.102  23.424  0.00  0.00    -0.341 OA
BRANCH  19  22
ATOM     22  O   UNL     1       6.692   4.955  23.958  0.00  0.00    -0.384 OA
ATOM     23  H   UNL     1       6.149   5.565  23.426  0.00  0.00    +0.210 HD
ENDBRANCH  19  22
BRANCH  18  24
ATOM     24  O   UNL     1       7.447   6.877  25.825  0.00  0.00    -0.386 OA
ATOM     25  H   UNL     1       7.224   7.401  25.031  0.00  0.00    +0.210 HD
ENDBRANCH  18  24
BRANCH  17  26
ATOM     26  O   UNL     1      10.255   6.707  26.757  0.00  0.00    -0.386 OA
ATOM     27  H   UNL     1       9.660   6.223  27.355  0.00  0.00    +0.210 HD
ENDBRANCH  17  26
BRANCH  16  28
ATOM     28  C   UNL     1      12.107   6.430  24.381  0.00  0.00    +0.190 C 
BRANCH  28  29
ATOM     29  O   UNL     1      12.780   6.783  25.589  0.00  0.00    -0.392 OA
ATOM     30  H   UNL     1      13.605   7.228  25.331  0.00  0.00    +0.210 HD
ENDBRANCH  28  29
ENDBRANCH  16  28
ENDBRANCH  15  20
ENDBRANCH   2  15
ENDBRANCH   1   5
BRANCH   1  31
ATOM     31  C   UNL     1       8.011  -1.942  25.788  0.00  0.00    +0.183 C 
ATOM     32  C   UNL     1       8.055  -3.475  25.639  0.00  0.00    +0.178 C 
ATOM     33  O   UNL     1       7.288  -3.891  24.506  0.00  0.00    -0.341 OA
ATOM     34  C   UNL     1       5.915  -3.499  24.549  0.00  0.00    +0.282 C 
ATOM     35  C   UNL     1       5.689  -1.988  24.774  0.00  0.00    +0.201 C 
ATOM     36  C   UNL     1       6.540  -1.503  25.950  0.00  0.00    +0.179 C 
BRANCH  35  37
ATOM     37  O   UNL     1       5.997  -1.227  23.601  0.00  0.00    -0.384 OA
ATOM     38  H   UNL     1       6.905  -0.885  23.679  0.00  0.00    +0.210 HD
ENDBRANCH  35  37
BRANCH  36  39
ATOM     39  O   UNL     1       6.035  -1.973  27.207  0.00  0.00    -0.386 OA
ATOM     40  H   UNL     1       5.369  -2.671  27.050  0.00  0.00    +0.210 HD
ENDBRANCH  36  39
BRANCH  32  41
ATOM     41  C   UNL     1       9.484  -3.997  25.446  0.00  0.00    +0.190 C 
BRANCH  41  42
ATOM     42  O   UNL     1       9.698  -5.156  26.251  0.00  0.00    -0.392 OA
ATOM     43  H   UNL     1       9.781  -5.899  25.624  0.00  0.00    +0.210 HD
ENDBRANCH  41  42
ENDBRANCH  32  41
BRANCH  34  44
ATOM     44  O   UNL     1       5.210  -4.299  25.513  0.00  0.00    -0.340 OA
BRANCH  44  45
ATOM     45  C   UNL     1       5.948  -5.446  26.008  0.00  0.00    +0.183 C 
ATOM     46  C   UNL     1       5.071  -6.723  25.871  0.00  0.00    +0.178 C 
ATOM     47  O   UNL     1       3.902  -6.639  26.707  0.00  0.00    -0.341 OA
ATOM     48  C   UNL     1       4.207  -6.490  28.094  0.00  0.00    +0.279 C 
ATOM     49  C   UNL     1       5.042  -5.229  28.358  0.00  0.00    +0.201 C 
ATOM     50  C   UNL     1       6.324  -5.293  27.501  0.00  0.00    +0.179 C 
BRANCH  48  51
ATOM     51  O   UNL     1       4.906  -7.630  28.580  0.00  0.00    -0.365 OA
ATOM     52  H   UNL     1       4.225  -8.234  28.930  0.00  0.00    +0.213 HD
ENDBRANCH  48  51
BRANCH  49  53
ATOM     53  O   UNL     1       4.273  -4.057  28.075  0.00  0.00    -0.384 OA
ATOM     54  H   UNL     1       3.371  -4.202  28.424  0.00  0.00    +0.210 HD
ENDBRANCH  49  53
BRANCH  50  55
ATOM     55  O   UNL     1       7.219  -6.328  27.914  0.00  0.00    -0.386 OA
ATOM     56  H   UNL     1       6.823  -7.192  27.681  0.00  0.00    +0.210 HD
ENDBRANCH  50  55
BRANCH  46  57
ATOM     57  C   UNL     1       4.618  -7.020  24.439  0.00  0.00    +0.190 C 
BRANCH  57  58
ATOM     58  O   UNL     1       3.560  -7.972  24.437  0.00  0.00    -0.392 OA
ATOM     59  H   UNL     1       3.116  -7.907  25.302  0.00  0.00    +0.210 HD
ENDBRANCH  57  58
ENDBRANCH  46  57
ENDBRANCH  44  45
ENDBRANCH  34  44
ENDBRANCH   1  31
TORSDOF 24
ENDMDL
MODEL 8
REMARK VINA RESULT:      -5.9      1.623     10.551
REMARK  Name = 
REMARK  24 active torsions:
REMARK  status: ('A' for Active; 'I' for Inactive)
REMARK    1  A    between atoms: O_1  and  C_2
REMARK    2  A    between atoms: C_2  and  C_3
REMARK    3  A    between atoms: C_6  and  O_8
REMARK    4  A    between atoms: O_8  and  C_9
REMARK    5  A    between atoms: C_11  and  O_13
REMARK    6  A    between atoms: C_14  and  O_16
REMARK    7  A    between atoms: C_17  and  O_19
REMARK    8  A    between atoms: O_19  and  C_20
REMARK    9  A    between atoms: C_22  and  O_24
REMARK   10  A    between atoms: C_25  and  O_27
REMARK   11  A    between atoms: C_28  and  O_30
REMARK   12  A    between atoms: O_30  and  C_31
REMARK   13  A    between atoms: C_33  and  O_35
REMARK   14  A    between atoms: C_36  and  O_38
REMARK   15  A    between atoms: C_39  and  O_41
REMARK   16  A    between atoms: C_43  and  C_45
REMARK   17  A    between atoms: C_45  and  O_46
REMARK   18  A    between atoms: C_48  and  C_50
REMARK   19  A    between atoms: C_50  and  O_51
REMARK   20  A    between atoms: C_53  and  C_55
REMARK   21  A    between atoms: C_55  and  O_56
REMARK   22  A    between atoms: C_57  and  O_59
REMARK   23  A    between atoms: C_60  and  O_62
REMARK   24  A    between atoms: C_63  and  O_65
REMARK                            x       y       z     vdW  Elec       q    Type
REMARK                         _______ _______ _______ _____ _____    ______ ____
ROOT
ATOM      1  O   UNL     1       7.952  -1.475  24.191  0.00  0.00    -0.340 OA
ENDROOT
BRANCH   1   5
ATOM      2  C   UNL     1       6.648  -4.784  24.656  0.00  0.00    +0.183 C 
ATOM      3  C   UNL     1       7.431  -3.942  25.694  0.00  0.00    +0.178 C 
ATOM      4  O   UNL     1       6.819  -2.656  25.914  0.00  0.00    -0.341 OA
ATOM      5  C   UNL     1       6.671  -1.849  24.721  0.00  0.00    +0.282 C 
ATOM      6  C   UNL     1       5.820  -2.608  23.684  0.00  0.00    +0.201 C 
ATOM      7  C   UNL     1       6.502  -3.950  23.371  0.00  0.00    +0.179 C 
BRANCH   6   8
ATOM      8  O   UNL     1       4.480  -2.784  24.147  0.00  0.00    -0.384 OA
ATOM      9  H   UNL     1       4.328  -3.743  24.274  0.00  0.00    +0.210 HD
ENDBRANCH   6   8
BRANCH   7  10
ATOM     10  O   UNL     1       7.777  -3.789  22.743  0.00  0.00    -0.386 OA
ATOM     11  H   UNL     1       7.633  -3.375  21.861  0.00  0.00    +0.210 HD
ENDBRANCH   7  10
BRANCH   3  12
ATOM     12  C   UNL     1       7.538  -4.680  27.037  0.00  0.00    +0.190 C 
BRANCH  12  13
ATOM     13  O   UNL     1       7.928  -6.036  26.825  0.00  0.00    -0.392 OA
ATOM     14  H   UNL     1       7.749  -6.497  27.666  0.00  0.00    +0.210 HD
ENDBRANCH  12  13
ENDBRANCH   3  12
BRANCH   2  15
ATOM     15  O   UNL     1       5.376  -5.181  25.209  0.00  0.00    -0.340 OA
BRANCH  15  20
ATOM     16  C   UNL     1       2.828  -5.911  24.064  0.00  0.00    +0.178 C 
ATOM     17  C   UNL     1       2.113  -6.346  25.359  0.00  0.00    +0.177 C 
ATOM     18  C   UNL     1       3.068  -6.455  26.558  0.00  0.00    +0.179 C 
ATOM     19  C   UNL     1       4.316  -7.244  26.167  0.00  0.00    +0.201 C 
ATOM     20  C   UNL     1       4.969  -6.538  24.966  0.00  0.00    +0.282 C 
ATOM     21  O   UNL     1       4.071  -6.596  23.859  0.00  0.00    -0.341 OA
BRANCH  19  22
ATOM     22  O   UNL     1       5.171  -7.376  27.310  0.00  0.00    -0.384 OA
ATOM     23  H   UNL     1       4.698  -7.903  27.979  0.00  0.00    +0.210 HD
ENDBRANCH  19  22
BRANCH  18  24
ATOM     24  O   UNL     1       2.420  -7.124  27.650  0.00  0.00    -0.386 OA
ATOM     25  H   UNL     1       1.554  -6.682  27.752  0.00  0.00    +0.210 HD
ENDBRANCH  18  24
BRANCH  17  26
ATOM     26  O   UNL     1       1.042  -5.436  25.641  0.00  0.00    -0.386 OA
ATOM     27  H   UNL     1       0.306  -5.942  26.029  0.00  0.00    +0.210 HD
ENDBRANCH  17  26
BRANCH  16  28
ATOM     28  C   UNL     1       1.923  -6.232  22.858  0.00  0.00    +0.190 C 
BRANCH  28  29
ATOM     29  O   UNL     1       0.781  -5.376  22.836  0.00  0.00    -0.392 OA
ATOM     30  H   UNL     1       0.918  -4.743  22.112  0.00  0.00    +0.210 HD
ENDBRANCH  28  29
ENDBRANCH  16  28
ENDBRANCH  15  20
ENDBRANCH   2  15
ENDBRANCH   1   5
BRANCH   1  31
ATOM     31  C   UNL     1       8.686  -0.488  24.961  0.00  0.00    +0.183 C 
ATOM     32  C   UNL     1       7.944   0.861  24.901  0.00  0.00    +0.178 C 
ATOM     33  O   UNL     1       7.969   1.389  23.572  0.00  0.00    -0.341 OA
ATOM     34  C   UNL     1       9.282   1.592  23.045  0.00  0.00    +0.282 C 
ATOM     35  C   UNL     1      10.193   0.347  23.103  0.00  0.00    +0.201 C 
ATOM     36  C   UNL     1      10.142  -0.271  24.502  0.00  0.00    +0.179 C 
BRANCH  35  37
ATOM     37  O   UNL     1       9.817  -0.628  22.124  0.00  0.00    -0.384 OA
ATOM     38  H   UNL     1      10.122  -0.329  21.249  0.00  0.00    +0.210 HD
ENDBRANCH  35  37
BRANCH  36  39
ATOM     39  O   UNL     1      10.835   0.531  25.468  0.00  0.00    -0.386 OA
ATOM     40  H   UNL     1      10.227   1.208  25.825  0.00  0.00    +0.210 HD
ENDBRANCH  36  39
BRANCH  32  41
ATOM     41  C   UNL     1       6.472   0.732  25.318  0.00  0.00    +0.190 C 
BRANCH  41  42
ATOM     42  O   UNL     1       6.248   1.415  26.551  0.00  0.00    -0.392 OA
ATOM     43  H   UNL     1       5.541   2.063  26.366  0.00  0.00    +0.210 HD
ENDBRANCH  41  42
ENDBRANCH  32  41
BRANCH  34  44
ATOM     44  O   UNL     1       9.888   2.733  23.676  0.00  0.00    -0.340 OA
BRANCH  44  45
ATOM     45  C   UNL     1       9.676   3.993  22.988  0.00  0.00    +0.183 C 
ATOM     46  C   UNL     1      10.708   5.039  23.496  0.00  0.00    +0.178 C 
ATOM     47  O   UNL     1      10.503   5.333  24.890  0.00  0.00    -0.341 OA
ATOM     48  C   UNL     1       9.205   5.857  25.174  0.00  0.00    +0.279 C 
ATOM     49  C   UNL     1       8.097   4.883  24.749  0.00  0.00    +0.201 C 
ATOM     50  C   UNL     1       8.262   4.564  23.248  0.00  0.00    +0.179 C 
BRANCH  48  51
ATOM     51  O   UNL     1       9.013   7.106  24.519  0.00  0.00    -0.365 OA
ATOM     52  H   UNL     1       8.777   6.891  23.597  0.00  0.00    +0.213 HD
ENDBRANCH  48  51
BRANCH  49  53
ATOM     53  O   UNL     1       8.142   3.700  25.551  0.00  0.00    -0.384 OA
ATOM     54  H   UNL     1       9.049   3.338  25.496  0.00  0.00    +0.210 HD
ENDBRANCH  49  53
BRANCH  50  55
ATOM     55  O   UNL     1       8.000   5.690  22.408  0.00  0.00    -0.386 OA
ATOM     56  H   UNL     1       8.516   6.452  22.740  0.00  0.00    +0.210 HD
ENDBRANCH  50  55
BRANCH  46  57
ATOM     57  C   UNL     1      12.169   4.623  23.303  0.00  0.00    +0.190 C 
BRANCH  57  58
ATOM     58  O   UNL     1      13.043   5.562  23.918  0.00  0.00    -0.392 OA
ATOM     59  H   UNL     1      12.692   6.450  23.720  0.00  0.00    +0.210 HD
ENDBRANCH  57  58
ENDBRANCH  46  57
ENDBRANCH  44  45
ENDBRANCH  34  44
ENDBRANCH   1  31
TORSDOF 24
ENDMDL
MODEL 9
REMARK VINA RESULT:      -5.9      1.825      3.519
REMARK  Name = 
REMARK  24 active torsions:
REMARK  status: ('A' for Active; 'I' for Inactive)
REMARK    1  A    between atoms: O_1  and  C_2
REMARK    2  A    between atoms: C_2  and  C_3
REMARK    3  A    between atoms: C_6  and  O_8
REMARK    4  A    between atoms: O_8  and  C_9
REMARK    5  A    between atoms: C_11  and  O_13
REMARK    6  A    between atoms: C_14  and  O_16
REMARK    7  A    between atoms: C_17  and  O_19
REMARK    8  A    between atoms: O_19  and  C_20
REMARK    9  A    between atoms: C_22  and  O_24
REMARK   10  A    between atoms: C_25  and  O_27
REMARK   11  A    between atoms: C_28  and  O_30
REMARK   12  A    between atoms: O_30  and  C_31
REMARK   13  A    between atoms: C_33  and  O_35
REMARK   14  A    between atoms: C_36  and  O_38
REMARK   15  A    between atoms: C_39  and  O_41
REMARK   16  A    between atoms: C_43  and  C_45
REMARK   17  A    between atoms: C_45  and  O_46
REMARK   18  A    between atoms: C_48  and  C_50
REMARK   19  A    between atoms: C_50  and  O_51
REMARK   20  A    between atoms: C_53  and  C_55
REMARK   21  A    between atoms: C_55  and  O_56
REMARK   22  A    between atoms: C_57  and  O_59
REMARK   23  A    between atoms: C_60  and  O_62
REMARK   24  A    between atoms: C_63  and  O_65
REMARK                            x       y       z     vdW  Elec       q    Type
REMARK                         _______ _______ _______ _____ _____    ______ ____
ROOT
ATOM      1  O   UNL     1       6.967  -0.727  24.599  0.00  0.00    -0.340 OA
ENDROOT
BRANCH   1   5
ATOM      2  C   UNL     1       6.511   2.797  25.085  0.00  0.00    +0.183 C 
ATOM      3  C   UNL     1       6.474   1.698  26.177  0.00  0.00    +0.178 C 
ATOM      4  O   UNL     1       7.675   0.902  26.177  0.00  0.00    -0.341 OA
ATOM      5  C   UNL     1       7.967   0.254  24.916  0.00  0.00    +0.282 C 
ATOM      6  C   UNL     1       8.103   1.315  23.806  0.00  0.00    +0.201 C 
ATOM      7  C   UNL     1       6.797   2.122  23.731  0.00  0.00    +0.179 C 
BRANCH   6   8
ATOM      8  O   UNL     1       9.238   2.153  24.032  0.00  0.00    -0.384 OA
ATOM      9  H   UNL     1       9.720   2.241  23.184  0.00  0.00    +0.210 HD
ENDBRANCH   6   8
BRANCH   7  10
ATOM     10  O   UNL     1       5.677   1.326  23.333  0.00  0.00    -0.386 OA
ATOM     11  H   UNL     1       5.088   1.215  24.114  0.00  0.00    +0.210 HD
ENDBRANCH   7  10
BRANCH   3  12
ATOM     12  C   UNL     1       6.281   2.310  27.571  0.00  0.00    +0.190 C 
BRANCH  12  13
ATOM     13  O   UNL     1       7.484   2.944  28.003  0.00  0.00    -0.392 OA
ATOM     14  H   UNL     1       7.218   3.563  28.709  0.00  0.00    +0.210 HD
ENDBRANCH  12  13
ENDBRANCH   3  12
BRANCH   2  15
ATOM     15  O   UNL     1       7.496   3.793  25.429  0.00  0.00    -0.340 OA
BRANCH  15  20
ATOM     16  C   UNL     1       7.904   5.595  23.210  0.00  0.00    +0.178 C 
ATOM     17  C   UNL     1       9.088   6.398  23.784  0.00  0.00    +0.177 C 
ATOM     18  C   UNL     1       9.343   6.103  25.271  0.00  0.00    +0.179 C 
ATOM     19  C   UNL     1       8.031   6.164  26.051  0.00  0.00    +0.201 C 
ATOM     20  C   UNL     1       7.053   5.161  25.418  0.00  0.00    +0.282 C 
ATOM     21  O   UNL     1       6.768   5.580  24.085  0.00  0.00    -0.341 OA
BRANCH  19  22
ATOM     22  O   UNL     1       8.296   5.934  27.441  0.00  0.00    -0.384 OA
ATOM     23  H   UNL     1       7.544   6.288  27.952  0.00  0.00    +0.210 HD
ENDBRANCH  19  22
BRANCH  18  24
ATOM     24  O   UNL     1      10.255   7.065  25.819  0.00  0.00    -0.386 OA
ATOM     25  H   UNL     1      11.141   6.796  25.507  0.00  0.00    +0.210 HD
ENDBRANCH  18  24
BRANCH  17  26
ATOM     26  O   UNL     1      10.263   6.138  23.004  0.00  0.00    -0.386 OA
ATOM     27  H   UNL     1      11.022   6.073  23.608  0.00  0.00    +0.210 HD
ENDBRANCH  17  26
BRANCH  16  28
ATOM     28  C   UNL     1       7.454   6.241  21.885  0.00  0.00    +0.190 C 
BRANCH  28  29
ATOM     29  O   UNL     1       6.036   6.400  21.851  0.00  0.00    -0.392 OA
ATOM     30  H   UNL     1       5.761   6.662  22.746  0.00  0.00    +0.210 HD
ENDBRANCH  28  29
ENDBRANCH  16  28
ENDBRANCH  15  20
ENDBRANCH   2  15
ENDBRANCH   1   5
BRANCH   1  31
ATOM     31  C   UNL     1       7.164  -2.037  25.190  0.00  0.00    +0.183 C 
ATOM     32  C   UNL     1       6.840  -3.123  24.145  0.00  0.00    +0.178 C 
ATOM     33  O   UNL     1       5.446  -3.109  23.822  0.00  0.00    -0.341 OA
ATOM     34  C   UNL     1       4.581  -3.312  24.942  0.00  0.00    +0.282 C 
ATOM     35  C   UNL     1       4.828  -2.348  26.122  0.00  0.00    +0.201 C 
ATOM     36  C   UNL     1       6.321  -2.302  26.455  0.00  0.00    +0.179 C 
BRANCH  35  37
ATOM     37  O   UNL     1       4.350  -1.029  25.836  0.00  0.00    -0.384 OA
ATOM     38  H   UNL     1       3.411  -1.082  25.587  0.00  0.00    +0.210 HD
ENDBRANCH  35  37
BRANCH  36  39
ATOM     39  O   UNL     1       6.768  -3.511  27.084  0.00  0.00    -0.386 OA
ATOM     40  H   UNL     1       7.707  -3.417  27.339  0.00  0.00    +0.210 HD
ENDBRANCH  36  39
BRANCH  32  41
ATOM     41  C   UNL     1       7.617  -2.920  22.838  0.00  0.00    +0.190 C 
BRANCH  41  42
ATOM     42  O   UNL     1       7.265  -3.931  21.894  0.00  0.00    -0.392 OA
ATOM     43  H   UNL     1       6.612  -3.517  21.299  0.00  0.00    +0.210 HD
ENDBRANCH  41  42
ENDBRANCH  32  41
BRANCH  34  44
ATOM     44  O   UNL     1       4.630  -4.689  25.351  0.00  0.00    -0.340 OA
BRANCH  44  45
ATOM     45  C   UNL     1       3.421  -5.179  25.987  0.00  0.00    +0.183 C 
ATOM     46  C   UNL     1       3.747  -6.465  26.797  0.00  0.00    +0.178 C 
ATOM     47  O   UNL     1       4.172  -7.530  25.927  0.00  0.00    -0.341 OA
ATOM     48  C   UNL     1       3.193  -7.890  24.951  0.00  0.00    +0.279 C 
ATOM     49  C   UNL     1       2.820  -6.698  24.059  0.00  0.00    +0.201 C 
ATOM     50  C   UNL     1       2.328  -5.540  24.953  0.00  0.00    +0.179 C 
BRANCH  48  51
ATOM     51  O   UNL     1       2.020  -8.395  25.580  0.00  0.00    -0.365 OA
ATOM     52  H   UNL     1       1.685  -9.099  24.994  0.00  0.00    +0.213 HD
ENDBRANCH  48  51
BRANCH  49  53
ATOM     53  O   UNL     1       3.938  -6.310  23.256  0.00  0.00    -0.384 OA
ATOM     54  H   UNL     1       4.058  -6.991  22.564  0.00  0.00    +0.210 HD
ENDBRANCH  49  53
BRANCH  50  55
ATOM     55  O   UNL     1       1.085  -5.823  25.597  0.00  0.00    -0.386 OA
ATOM     56  H   UNL     1       0.361  -5.675  24.955  0.00  0.00    +0.210 HD
ENDBRANCH  50  55
BRANCH  46  57
ATOM     57  C   UNL     1       4.816  -6.271  27.876  0.00  0.00    +0.190 C 
BRANCH  57  58
ATOM     58  O   UNL     1       5.382  -7.522  28.251  0.00  0.00    -0.392 OA
ATOM     59  H   UNL     1       5.518  -7.496  29.216  0.00  0.00    +0.210 HD
ENDBRANCH  57  58
ENDBRANCH  46  57
ENDBRANCH  44  45
ENDBRANCH  34  44
ENDBRANCH   1  31
TORSDOF 24
ENDMDL
