MODEL 1
REMARK VINA RESULT:      -6.1      0.000      0.000
REMARK  Name = 
REMARK  10 active torsions:
REMARK  status: ('A' for Active; 'I' for Inactive)
REMARK    1  A    between atoms: O_1  and  C_2
REMARK    2  A    between atoms: C_3  and  N_20
REMARK    3  A    between atoms: C_5  and  C_6
REMARK    4  A    between atoms: C_6  and  C_7
REMARK    5  A    between atoms: N_9  and  C_10
REMARK    6  A    between atoms: C_10  and  C_11
REMARK    7  A    between atoms: C_11  and  C_12
REMARK    8  A    between atoms: C_12  and  C_13
REMARK    9  A    between atoms: C_13  and  C_14
REMARK   10  A    between atoms: C_14  and  C_15
REMARK                            x       y       z     vdW  Elec       q    Type
REMARK                         _______ _______ _______ _____ _____    ______ ____
ROOT
ATOM      1  C   UNL     1       8.048  -2.787  22.436  0.00  0.00    +0.131 C 
ENDROOT
BRANCH   1   5
ATOM      2  C   UNL     1       5.568  -6.197  23.450  0.00  0.00    +0.195 A 
ATOM      3  C   UNL     1       5.838  -5.882  22.121  0.00  0.00    +0.053 A 
ATOM      4  C   UNL     1       6.661  -4.798  21.800  0.00  0.00    +0.008 A 
ATOM      5  C   UNL     1       7.239  -4.014  22.809  0.00  0.00    -0.032 A 
ATOM      6  C   UNL     1       6.983  -4.345  24.150  0.00  0.00    +0.092 A 
ATOM      7  C   UNL     1       6.150  -5.433  24.470  0.00  0.00    +0.314 A 
BRANCH   7   8
ATOM      8  N   UNL     1       5.879  -5.731  25.880  0.00  0.00    +0.083 N 
ATOM      9  O   UNL     1       6.834  -5.978  26.628  0.00  0.00    +0.042 OA
ATOM     10  O   UNL     1       4.692  -5.703  26.252  0.00  0.00    -0.576 OA
ENDBRANCH   7   8
BRANCH   2  11
ATOM     11  O   UNL     1       4.719  -7.255  23.638  0.00  0.00    -0.501 OA
ATOM     12  H   UNL     1       5.149  -7.922  24.212  0.00  0.00    +0.292 HD
ENDBRANCH   2  11
ENDBRANCH   1   5
BRANCH   1  13
ATOM     13  C   UNL     1       9.028  -2.320  23.497  0.00  0.00    +0.217 C 
ATOM     14  N   UNL     1       8.670  -1.170  24.160  0.00  0.00    -0.315 N 
ATOM     15  H   UNL     1       7.882  -0.599  23.848  0.00  0.00    +0.149 HD
ATOM     16  O   UNL     1      10.047  -2.955  23.773  0.00  0.00    -0.275 OA
BRANCH  14  17
ATOM     17  C   UNL     1       9.494  -0.660  25.232  0.00  0.00    +0.104 C 
BRANCH  17  18
ATOM     18  C   UNL     1      10.488   0.400  24.783  0.00  0.00    +0.019 C 
BRANCH  18  19
ATOM     19  C   UNL     1       9.815   1.632  24.172  0.00  0.00    +0.002 C 
BRANCH  19  20
ATOM     20  C   UNL     1      10.191   1.847  22.701  0.00  0.00    +0.006 C 
BRANCH  20  21
ATOM     21  C   UNL     1       9.206   1.258  21.691  0.00  0.00    +0.052 C 
BRANCH  21  22
ATOM     22  C   UNL     1       7.769   1.653  22.039  0.00  0.00    +0.042 C 
ATOM     23  O   UNL     1       7.497   2.875  21.879  0.00  0.00    -0.550 OA
ATOM     24  O   UNL     1       7.035   0.710  22.453  0.00  0.00    -0.550 OA
ENDBRANCH  21  22
ENDBRANCH  20  21
ENDBRANCH  19  20
ENDBRANCH  18  19
ENDBRANCH  17  18
ENDBRANCH  14  17
ENDBRANCH   1  13
TORSDOF 10
ENDMDL
MODEL 2
REMARK VINA RESULT:      -6.0      2.321      6.715
REMARK  Name = 
REMARK  10 active torsions:
REMARK  status: ('A' for Active; 'I' for Inactive)
REMARK    1  A    between atoms: O_1  and  C_2
REMARK    2  A    between atoms: C_3  and  N_20
REMARK    3  A    between atoms: C_5  and  C_6
REMARK    4  A    between atoms: C_6  and  C_7
REMARK    5  A    between atoms: N_9  and  C_10
REMARK    6  A    between atoms: C_10  and  C_11
REMARK    7  A    between atoms: C_11  and  C_12
REMARK    8  A    between atoms: C_12  and  C_13
REMARK    9  A    between atoms: C_13  and  C_14
REMARK   10  A    between atoms: C_14  and  C_15
REMARK                            x       y       z     vdW  Elec       q    Type
REMARK                         _______ _______ _______ _____ _____    ______ ____
ROOT
ATOM      1  C   UNL     1       9.804  -2.964  24.284  0.00  0.00    +0.131 C 
ENDROOT
BRANCH   1   5
ATOM      2  C   UNL     1       9.517   0.740  22.046  0.00  0.00    +0.195 A 
ATOM      3  C   UNL     1       9.320  -0.488  21.420  0.00  0.00    +0.053 A 
ATOM      4  C   UNL     1       9.386  -1.678  22.153  0.00  0.00    +0.008 A 
ATOM      5  C   UNL     1       9.641  -1.658  23.531  0.00  0.00    -0.032 A 
ATOM      6  C   UNL     1       9.819  -0.417  24.166  0.00  0.00    +0.092 A 
ATOM      7  C   UNL     1       9.758   0.778  23.426  0.00  0.00    +0.314 A 
BRANCH   7   8
ATOM      8  N   UNL     1       9.979   2.053  24.116  0.00  0.00    +0.083 N 
ATOM      9  O   UNL     1      10.978   2.721  23.820  0.00  0.00    +0.042 OA
ATOM     10  O   UNL     1       9.133   2.402  24.958  0.00  0.00    -0.576 OA
ENDBRANCH   7   8
BRANCH   2  11
ATOM     11  O   UNL     1       9.467   1.831  21.220  0.00  0.00    -0.501 OA
ATOM     12  H   UNL     1       8.682   2.374  21.442  0.00  0.00    +0.292 HD
ENDBRANCH   2  11
ENDBRANCH   1   5
BRANCH   1  13
ATOM     13  C   UNL     1       8.659  -3.311  25.219  0.00  0.00    +0.217 C 
ATOM     14  N   UNL     1       7.860  -4.350  24.807  0.00  0.00    -0.315 N 
ATOM     15  H   UNL     1       7.945  -4.748  23.869  0.00  0.00    +0.149 HD
ATOM     16  O   UNL     1       8.491  -2.730  26.292  0.00  0.00    -0.275 OA
BRANCH  14  17
ATOM     17  C   UNL     1       6.773  -4.810  25.642  0.00  0.00    +0.104 C 
BRANCH  17  18
ATOM     18  C   UNL     1       5.408  -4.313  25.191  0.00  0.00    +0.019 C 
BRANCH  18  19
ATOM     19  C   UNL     1       5.491  -3.170  24.175  0.00  0.00    +0.002 C 
BRANCH  19  20
ATOM     20  C   UNL     1       5.059  -3.592  22.767  0.00  0.00    +0.006 C 
BRANCH  20  21
ATOM     21  C   UNL     1       6.190  -3.675  21.743  0.00  0.00    +0.052 C 
BRANCH  21  22
ATOM     22  C   UNL     1       6.553  -5.133  21.450  0.00  0.00    +0.042 C 
ATOM     23  O   UNL     1       5.966  -5.640  20.455  0.00  0.00    -0.550 OA
ATOM     24  O   UNL     1       7.388  -5.651  22.246  0.00  0.00    -0.550 OA
ENDBRANCH  21  22
ENDBRANCH  20  21
ENDBRANCH  19  20
ENDBRANCH  18  19
ENDBRANCH  17  18
ENDBRANCH  14  17
ENDBRANCH   1  13
TORSDOF 10
ENDMDL
MODEL 3
REMARK VINA RESULT:      -5.9      2.145      3.323
REMARK  Name = 
REMARK  10 active torsions:
REMARK  status: ('A' for Active; 'I' for Inactive)
REMARK    1  A    between atoms: O_1  and  C_2
REMARK    2  A    between atoms: C_3  and  N_20
REMARK    3  A    between atoms: C_5  and  C_6
REMARK    4  A    between atoms: C_6  and  C_7
REMARK    5  A    between atoms: N_9  and  C_10
REMARK    6  A    between atoms: C_10  and  C_11
REMARK    7  A    between atoms: C_11  and  C_12
REMARK    8  A    between atoms: C_12  and  C_13
REMARK    9  A    between atoms: C_13  and  C_14
REMARK   10  A    between atoms: C_14  and  C_15
REMARK                            x       y       z     vdW  Elec       q    Type
REMARK                         _______ _______ _______ _____ _____    ______ ____
ROOT
ATOM      1  C   UNL     1       5.763  -1.037  24.611  0.00  0.00    +0.131 C 
ENDROOT
BRANCH   1   5
ATOM      2  C   UNL     1       7.167  -4.785  22.940  0.00  0.00    +0.195 A 
ATOM      3  C   UNL     1       6.386  -3.916  22.183  0.00  0.00    +0.053 A 
ATOM      4  C   UNL     1       5.959  -2.695  22.718  0.00  0.00    +0.008 A 
ATOM      5  C   UNL     1       6.318  -2.319  24.020  0.00  0.00    -0.032 A 
ATOM      6  C   UNL     1       7.123  -3.188  24.776  0.00  0.00    +0.092 A 
ATOM      7  C   UNL     1       7.546  -4.417  24.238  0.00  0.00    +0.314 A 
BRANCH   7   8
ATOM      8  N   UNL     1       8.359  -5.313  25.066  0.00  0.00    +0.083 N 
ATOM      9  O   UNL     1       9.498  -5.606  24.679  0.00  0.00    +0.042 OA
ATOM     10  O   UNL     1       7.858  -5.721  26.129  0.00  0.00    -0.576 OA
ENDBRANCH   7   8
BRANCH   2  11
ATOM     11  O   UNL     1       7.490  -5.965  22.325  0.00  0.00    -0.501 OA
ATOM     12  H   UNL     1       7.765  -6.621  22.999  0.00  0.00    +0.292 HD
ENDBRANCH   2  11
ENDBRANCH   1   5
BRANCH   1  13
ATOM     13  C   UNL     1       6.576   0.209  24.311  0.00  0.00    +0.217 C 
ATOM     14  N   UNL     1       6.080   1.006  23.307  0.00  0.00    -0.315 N 
ATOM     15  H   UNL     1       5.310   0.694  22.712  0.00  0.00    +0.149 HD
ATOM     16  O   UNL     1       7.583   0.505  24.956  0.00  0.00    -0.275 OA
BRANCH  14  17
ATOM     17  C   UNL     1       6.735   2.250  22.971  0.00  0.00    +0.104 C 
BRANCH  17  18
ATOM     18  C   UNL     1       7.590   2.166  21.716  0.00  0.00    +0.019 C 
BRANCH  18  19
ATOM     19  C   UNL     1       9.079   1.970  22.017  0.00  0.00    +0.002 C 
BRANCH  19  20
ATOM     20  C   UNL     1       9.569   0.554  21.694  0.00  0.00    +0.006 C 
BRANCH  20  21
ATOM     21  C   UNL     1      10.175  -0.203  22.876  0.00  0.00    +0.052 C 
BRANCH  21  22
ATOM     22  C   UNL     1       9.931  -1.707  22.741  0.00  0.00    +0.042 C 
ATOM     23  O   UNL     1       9.343  -2.060  21.682  0.00  0.00    -0.550 OA
ATOM     24  O   UNL     1      10.339  -2.409  23.711  0.00  0.00    -0.550 OA
ENDBRANCH  21  22
ENDBRANCH  20  21
ENDBRANCH  19  20
ENDBRANCH  18  19
ENDBRANCH  17  18
ENDBRANCH  14  17
ENDBRANCH   1  13
TORSDOF 10
ENDMDL
MODEL 4
REMARK VINA RESULT:      -5.9      2.365      3.404
REMARK  Name = 
REMARK  10 active torsions:
REMARK  status: ('A' for Active; 'I' for Inactive)
REMARK    1  A    between atoms: O_1  and  C_2
REMARK    2  A    between atoms: C_3  and  N_20
REMARK    3  A    between atoms: C_5  and  C_6
REMARK    4  A    between atoms: C_6  and  C_7
REMARK    5  A    between atoms: N_9  and  C_10
REMARK    6  A    between atoms: C_10  and  C_11
REMARK    7  A    between atoms: C_11  and  C_12
REMARK    8  A    between atoms: C_12  and  C_13
REMARK    9  A    between atoms: C_13  and  C_14
REMARK   10  A    between atoms: C_14  and  C_15
REMARK                            x       y       z     vdW  Elec       q    Type
REMARK                         _______ _______ _______ _____ _____    ______ ____
ROOT
ATOM      1  C   UNL     1       6.099  -1.414  24.104  0.00  0.00    +0.131 C 
ENDROOT
BRANCH   1   5
ATOM      2  C   UNL     1       8.795  -4.594  25.298  0.00  0.00    +0.195 A 
ATOM      3  C   UNL     1       9.223  -3.580  24.446  0.00  0.00    +0.053 A 
ATOM      4  C   UNL     1       8.357  -2.541  24.086  0.00  0.00    +0.008 A 
ATOM      5  C   UNL     1       7.047  -2.495  24.584  0.00  0.00    -0.032 A 
ATOM      6  C   UNL     1       6.623  -3.509  25.460  0.00  0.00    +0.092 A 
ATOM      7  C   UNL     1       7.493  -4.555  25.816  0.00  0.00    +0.314 A 
BRANCH   7   8
ATOM      8  N   UNL     1       7.006  -5.612  26.707  0.00  0.00    +0.083 N 
ATOM      9  O   UNL     1       7.559  -5.763  27.805  0.00  0.00    +0.042 OA
ATOM     10  O   UNL     1       6.046  -6.297  26.311  0.00  0.00    -0.576 OA
ENDBRANCH   7   8
BRANCH   2  11
ATOM     11  O   UNL     1       9.717  -5.576  25.546  0.00  0.00    -0.501 OA
ATOM     12  H   UNL     1      10.563  -5.349  25.107  0.00  0.00    +0.292 HD
ENDBRANCH   2  11
ENDBRANCH   1   5
BRANCH   1  13
ATOM     13  C   UNL     1       6.624   0.004  24.238  0.00  0.00    +0.217 C 
ATOM     14  N   UNL     1       6.468   0.795  23.125  0.00  0.00    -0.315 N 
ATOM     15  H   UNL     1       6.163   0.403  22.232  0.00  0.00    +0.149 HD
ATOM     16  O   UNL     1       7.113   0.425  25.287  0.00  0.00    -0.275 OA
BRANCH  14  17
ATOM     17  C   UNL     1       6.877   2.182  23.152  0.00  0.00    +0.104 C 
BRANCH  17  18
ATOM     18  C   UNL     1       7.670   2.605  21.925  0.00  0.00    +0.019 C 
BRANCH  18  19
ATOM     19  C   UNL     1       8.509   1.470  21.332  0.00  0.00    +0.002 C 
BRANCH  19  20
ATOM     20  C   UNL     1       9.945   1.447  21.870  0.00  0.00    +0.006 C 
BRANCH  20  21
ATOM     21  C   UNL     1      10.234   0.345  22.888  0.00  0.00    +0.052 C 
BRANCH  21  22
ATOM     22  C   UNL     1      10.333   0.923  24.302  0.00  0.00    +0.042 C 
ATOM     23  O   UNL     1      10.215   2.177  24.376  0.00  0.00    -0.550 OA
ATOM     24  O   UNL     1      10.531   0.074  25.218  0.00  0.00    -0.550 OA
ENDBRANCH  21  22
ENDBRANCH  20  21
ENDBRANCH  19  20
ENDBRANCH  18  19
ENDBRANCH  17  18
ENDBRANCH  14  17
ENDBRANCH   1  13
TORSDOF 10
ENDMDL
MODEL 5
REMARK VINA RESULT:      -5.8      2.453      6.695
REMARK  Name = 
REMARK  10 active torsions:
REMARK  status: ('A' for Active; 'I' for Inactive)
REMARK    1  A    between atoms: O_1  and  C_2
REMARK    2  A    between atoms: C_3  and  N_20
REMARK    3  A    between atoms: C_5  and  C_6
REMARK    4  A    between atoms: C_6  and  C_7
REMARK    5  A    between atoms: N_9  and  C_10
REMARK    6  A    between atoms: C_10  and  C_11
REMARK    7  A    between atoms: C_11  and  C_12
REMARK    8  A    between atoms: C_12  and  C_13
REMARK    9  A    between atoms: C_13  and  C_14
REMARK   10  A    between atoms: C_14  and  C_15
REMARK                            x       y       z     vdW  Elec       q    Type
REMARK                         _______ _______ _______ _____ _____    ______ ____
ROOT
ATOM      1  C   UNL     1       8.884  -0.489  26.612  0.00  0.00    +0.131 C 
ENDROOT
BRANCH   1   5
ATOM      2  C   UNL     1       9.872   1.580  22.930  0.00  0.00    +0.195 A 
ATOM      3  C   UNL     1      10.864   0.973  23.695  0.00  0.00    +0.053 A 
ATOM      4  C   UNL     1      10.536   0.283  24.867  0.00  0.00    +0.008 A 
ATOM      5  C   UNL     1       9.204   0.180  25.289  0.00  0.00    -0.032 A 
ATOM      6  C   UNL     1       8.200   0.776  24.506  0.00  0.00    +0.092 A 
ATOM      7  C   UNL     1       8.533   1.474  23.331  0.00  0.00    +0.314 A 
BRANCH   7   8
ATOM      8  N   UNL     1       7.463   2.110  22.555  0.00  0.00    +0.083 N 
ATOM      9  O   UNL     1       7.614   3.283  22.188  0.00  0.00    +0.042 OA
ATOM     10  O   UNL     1       6.460   1.422  22.294  0.00  0.00    -0.576 OA
ENDBRANCH   7   8
BRANCH   2  11
ATOM     11  O   UNL     1      10.317   2.259  21.828  0.00  0.00    -0.501 OA
ATOM     12  H   UNL     1       9.659   2.938  21.573  0.00  0.00    +0.292 HD
ENDBRANCH   2  11
ENDBRANCH   1   5
BRANCH   1  13
ATOM     13  C   UNL     1       7.957  -1.687  26.516  0.00  0.00    +0.217 C 
ATOM     14  N   UNL     1       8.583  -2.904  26.395  0.00  0.00    -0.315 N 
ATOM     15  H   UNL     1       9.589  -2.971  26.226  0.00  0.00    +0.149 HD
ATOM     16  O   UNL     1       6.733  -1.575  26.588  0.00  0.00    -0.275 OA
BRANCH  14  17
ATOM     17  C   UNL     1       7.806  -4.123  26.353  0.00  0.00    +0.104 C 
BRANCH  17  18
ATOM     18  C   UNL     1       8.043  -4.952  25.100  0.00  0.00    +0.019 C 
BRANCH  18  19
ATOM     19  C   UNL     1       6.934  -4.794  24.057  0.00  0.00    +0.002 C 
BRANCH  19  20
ATOM     20  C   UNL     1       7.417  -4.105  22.775  0.00  0.00    +0.006 C 
BRANCH  20  21
ATOM     21  C   UNL     1       7.699  -2.610  22.914  0.00  0.00    +0.052 C 
BRANCH  21  22
ATOM     22  C   UNL     1       9.179  -2.310  22.663  0.00  0.00    +0.042 C 
ATOM     23  O   UNL     1       9.972  -2.784  23.522  0.00  0.00    -0.550 OA
ATOM     24  O   UNL     1       9.422  -1.617  21.634  0.00  0.00    -0.550 OA
ENDBRANCH  21  22
ENDBRANCH  20  21
ENDBRANCH  19  20
ENDBRANCH  18  19
ENDBRANCH  17  18
ENDBRANCH  14  17
ENDBRANCH   1  13
TORSDOF 10
ENDMDL
MODEL 6
REMARK VINA RESULT:      -5.8      2.085      2.925
REMARK  Name = 
REMARK  10 active torsions:
REMARK  status: ('A' for Active; 'I' for Inactive)
REMARK    1  A    between atoms: O_1  and  C_2
REMARK    2  A    between atoms: C_3  and  N_20
REMARK    3  A    between atoms: C_5  and  C_6
REMARK    4  A    between atoms: C_6  and  C_7
REMARK    5  A    between atoms: N_9  and  C_10
REMARK    6  A    between atoms: C_10  and  C_11
REMARK    7  A    between atoms: C_11  and  C_12
REMARK    8  A    between atoms: C_12  and  C_13
REMARK    9  A    between atoms: C_13  and  C_14
REMARK   10  A    between atoms: C_14  and  C_15
REMARK                            x       y       z     vdW  Elec       q    Type
REMARK                         _______ _______ _______ _____ _____    ______ ____
ROOT
ATOM      1  C   UNL     1       8.228  -2.866  25.593  0.00  0.00    +0.131 C 
ENDROOT
BRANCH   1   5
ATOM      2  C   UNL     1       5.535  -6.180  26.344  0.00  0.00    +0.195 A 
ATOM      3  C   UNL     1       5.647  -5.628  25.071  0.00  0.00    +0.053 A 
ATOM      4  C   UNL     1       6.538  -4.577  24.828  0.00  0.00    +0.008 A 
ATOM      5  C   UNL     1       7.342  -4.067  25.857  0.00  0.00    -0.032 A 
ATOM      6  C   UNL     1       7.243  -4.639  27.137  0.00  0.00    +0.092 A 
ATOM      7  C   UNL     1       6.342  -5.692  27.380  0.00  0.00    +0.314 A 
BRANCH   7   8
ATOM      8  N   UNL     1       6.242  -6.244  28.735  0.00  0.00    +0.083 N 
ATOM      9  O   UNL     1       6.214  -5.460  29.693  0.00  0.00    +0.042 OA
ATOM     10  O   UNL     1       6.176  -7.481  28.844  0.00  0.00    -0.576 OA
ENDBRANCH   7   8
BRANCH   2  11
ATOM     11  O   UNL     1       4.602  -7.176  26.468  0.00  0.00    -0.501 OA
ATOM     12  H   UNL     1       4.168  -7.110  27.344  0.00  0.00    +0.292 HD
ENDBRANCH   2  11
ENDBRANCH   1   5
BRANCH   1  13
ATOM     13  C   UNL     1       8.894  -2.850  24.228  0.00  0.00    +0.217 C 
ATOM     14  N   UNL     1       8.308  -2.025  23.299  0.00  0.00    -0.315 N 
ATOM     15  H   UNL     1       7.404  -1.582  23.476  0.00  0.00    +0.149 HD
ATOM     16  O   UNL     1       9.915  -3.497  23.991  0.00  0.00    -0.275 OA
BRANCH  14  17
ATOM     17  C   UNL     1       8.887  -1.882  21.982  0.00  0.00    +0.104 C 
BRANCH  17  18
ATOM     18  C   UNL     1       9.921  -0.770  21.890  0.00  0.00    +0.019 C 
BRANCH  18  19
ATOM     19  C   UNL     1       9.300   0.608  21.646  0.00  0.00    +0.002 C 
BRANCH  19  20
ATOM     20  C   UNL     1      10.116   1.747  22.268  0.00  0.00    +0.006 C 
BRANCH  20  21
ATOM     21  C   UNL     1       9.636   2.207  23.644  0.00  0.00    +0.052 C 
BRANCH  21  22
ATOM     22  C   UNL     1       9.695   1.058  24.652  0.00  0.00    +0.042 C 
ATOM     23  O   UNL     1       8.573   0.643  25.056  0.00  0.00    -0.550 OA
ATOM     24  O   UNL     1      10.858   0.672  24.964  0.00  0.00    -0.550 OA
ENDBRANCH  21  22
ENDBRANCH  20  21
ENDBRANCH  19  20
ENDBRANCH  18  19
ENDBRANCH  17  18
ENDBRANCH  14  17
ENDBRANCH   1  13
TORSDOF 10
ENDMDL
MODEL 7
REMARK VINA RESULT:      -5.8      2.459      6.592
REMARK  Name = 
REMARK  10 active torsions:
REMARK  status: ('A' for Active; 'I' for Inactive)
REMARK    1  A    between atoms: O_1  and  C_2
REMARK    2  A    between atoms: C_3  and  N_20
REMARK    3  A    between atoms: C_5  and  C_6
REMARK    4  A    between atoms: C_6  and  C_7
REMARK    5  A    between atoms: N_9  and  C_10
REMARK    6  A    between atoms: C_10  and  C_11
REMARK    7  A    between atoms: C_11  and  C_12
REMARK    8  A    between atoms: C_12  and  C_13
REMARK    9  A    between atoms: C_13  and  C_14
REMARK   10  A    between atoms: C_14  and  C_15
REMARK                            x       y       z     vdW  Elec       q    Type
REMARK                         _______ _______ _______ _____ _____    ______ ____
ROOT
ATOM      1  C   UNL     1       5.784  -4.086  21.921  0.00  0.00    +0.131 C 
ENDROOT
BRANCH   1   5
ATOM      2  C   UNL     1       7.835  -0.713  23.715  0.00  0.00    +0.195 A 
ATOM      3  C   UNL     1       6.584  -1.113  24.176  0.00  0.00    +0.053 A 
ATOM      4  C   UNL     1       5.940  -2.220  23.612  0.00  0.00    +0.008 A 
ATOM      5  C   UNL     1       6.543  -2.952  22.581  0.00  0.00    -0.032 A 
ATOM      6  C   UNL     1       7.815  -2.559  22.130  0.00  0.00    +0.092 A 
ATOM      7  C   UNL     1       8.459  -1.443  22.694  0.00  0.00    +0.314 A 
BRANCH   7   8
ATOM      8  N   UNL     1       9.772  -1.044  22.178  0.00  0.00    +0.083 N 
ATOM      9  O   UNL     1       9.874   0.046  21.599  0.00  0.00    +0.042 OA
ATOM     10  O   UNL     1      10.722  -1.824  22.366  0.00  0.00    -0.576 OA
ENDBRANCH   7   8
BRANCH   2  11
ATOM     11  O   UNL     1       8.348   0.405  24.317  0.00  0.00    -0.501 OA
ATOM     12  H   UNL     1       9.018   0.815  23.730  0.00  0.00    +0.292 HD
ENDBRANCH   2  11
ENDBRANCH   1   5
BRANCH   1  13
ATOM     13  C   UNL     1       4.922  -4.911  22.860  0.00  0.00    +0.217 C 
ATOM     14  N   UNL     1       5.611  -5.746  23.706  0.00  0.00    -0.315 N 
ATOM     15  H   UNL     1       6.615  -5.906  23.596  0.00  0.00    +0.149 HD
ATOM     16  O   UNL     1       3.696  -4.803  22.889  0.00  0.00    -0.275 OA
BRANCH  14  17
ATOM     17  C   UNL     1       4.902  -6.539  24.686  0.00  0.00    +0.104 C 
BRANCH  17  18
ATOM     18  C   UNL     1       5.342  -6.271  26.117  0.00  0.00    +0.019 C 
BRANCH  18  19
ATOM     19  C   UNL     1       5.438  -4.779  26.446  0.00  0.00    +0.002 C 
BRANCH  19  20
ATOM     20  C   UNL     1       6.859  -4.343  26.823  0.00  0.00    +0.006 C 
BRANCH  20  21
ATOM     21  C   UNL     1       7.969  -5.272  26.335  0.00  0.00    +0.052 C 
BRANCH  21  22
ATOM     22  C   UNL     1       8.690  -4.670  25.127  0.00  0.00    +0.042 C 
ATOM     23  O   UNL     1       8.696  -5.394  24.093  0.00  0.00    -0.550 OA
ATOM     24  O   UNL     1       9.198  -3.527  25.316  0.00  0.00    -0.550 OA
ENDBRANCH  21  22
ENDBRANCH  20  21
ENDBRANCH  19  20
ENDBRANCH  18  19
ENDBRANCH  17  18
ENDBRANCH  14  17
ENDBRANCH   1  13
TORSDOF 10
ENDMDL
MODEL 8
REMARK VINA RESULT:      -5.8      2.408      6.271
REMARK  Name = 
REMARK  10 active torsions:
REMARK  status: ('A' for Active; 'I' for Inactive)
REMARK    1  A    between atoms: O_1  and  C_2
REMARK    2  A    between atoms: C_3  and  N_20
REMARK    3  A    between atoms: C_5  and  C_6
REMARK    4  A    between atoms: C_6  and  C_7
REMARK    5  A    between atoms: N_9  and  C_10
REMARK    6  A    between atoms: C_10  and  C_11
REMARK    7  A    between atoms: C_11  and  C_12
REMARK    8  A    between atoms: C_12  and  C_13
REMARK    9  A    between atoms: C_13  and  C_14
REMARK   10  A    between atoms: C_14  and  C_15
REMARK                            x       y       z     vdW  Elec       q    Type
REMARK                         _______ _______ _______ _____ _____    ______ ____
ROOT
ATOM      1  C   UNL     1       8.897  -4.679  26.523  0.00  0.00    +0.131 C 
ENDROOT
BRANCH   1   5
ATOM      2  C   UNL     1       8.335  -0.898  24.474  0.00  0.00    +0.195 A 
ATOM      3  C   UNL     1       7.837  -1.093  25.759  0.00  0.00    +0.053 A 
ATOM      4  C   UNL     1       8.046  -2.305  26.426  0.00  0.00    +0.008 A 
ATOM      5  C   UNL     1       8.768  -3.342  25.820  0.00  0.00    -0.032 A 
ATOM      6  C   UNL     1       9.288  -3.137  24.530  0.00  0.00    +0.092 A 
ATOM      7  C   UNL     1       9.072  -1.920  23.859  0.00  0.00    +0.314 A 
BRANCH   7   8
ATOM      8  N   UNL     1       9.602  -1.752  22.503  0.00  0.00    +0.083 N 
ATOM      9  O   UNL     1       8.812  -1.493  21.585  0.00  0.00    +0.042 OA
ATOM     10  O   UNL     1      10.832  -1.867  22.352  0.00  0.00    -0.576 OA
ENDBRANCH   7   8
BRANCH   2  11
ATOM     11  O   UNL     1       8.035   0.312  23.909  0.00  0.00    -0.501 OA
ATOM     12  H   UNL     1       8.860   0.820  23.764  0.00  0.00    +0.292 HD
ENDBRANCH   2  11
ENDBRANCH   1   5
BRANCH   1  13
ATOM     13  C   UNL     1       7.584  -5.399  26.775  0.00  0.00    +0.217 C 
ATOM     14  N   UNL     1       6.729  -5.452  25.701  0.00  0.00    -0.315 N 
ATOM     15  H   UNL     1       6.907  -4.912  24.852  0.00  0.00    +0.149 HD
ATOM     16  O   UNL     1       7.328  -5.935  27.855  0.00  0.00    -0.275 OA
BRANCH  14  17
ATOM     17  C   UNL     1       5.473  -6.161  25.803  0.00  0.00    +0.104 C 
BRANCH  17  18
ATOM     18  C   UNL     1       4.303  -5.273  26.197  0.00  0.00    +0.019 C 
BRANCH  18  19
ATOM     19  C   UNL     1       4.455  -3.830  25.708  0.00  0.00    +0.002 C 
BRANCH  19  20
ATOM     20  C   UNL     1       4.307  -3.698  24.187  0.00  0.00    +0.006 C 
BRANCH  20  21
ATOM     21  C   UNL     1       5.462  -2.985  23.486  0.00  0.00    +0.052 C 
BRANCH  21  22
ATOM     22  C   UNL     1       6.012  -3.838  22.341  0.00  0.00    +0.042 C 
ATOM     23  O   UNL     1       5.568  -3.546  21.196  0.00  0.00    -0.550 OA
ATOM     24  O   UNL     1       6.835  -4.736  22.683  0.00  0.00    -0.550 OA
ENDBRANCH  21  22
ENDBRANCH  20  21
ENDBRANCH  19  20
ENDBRANCH  18  19
ENDBRANCH  17  18
ENDBRANCH  14  17
ENDBRANCH   1  13
TORSDOF 10
ENDMDL
MODEL 9
REMARK VINA RESULT:      -5.8      1.938      7.608
REMARK  Name = 
REMARK  10 active torsions:
REMARK  status: ('A' for Active; 'I' for Inactive)
REMARK    1  A    between atoms: O_1  and  C_2
REMARK    2  A    between atoms: C_3  and  N_20
REMARK    3  A    between atoms: C_5  and  C_6
REMARK    4  A    between atoms: C_6  and  C_7
REMARK    5  A    between atoms: N_9  and  C_10
REMARK    6  A    between atoms: C_10  and  C_11
REMARK    7  A    between atoms: C_11  and  C_12
REMARK    8  A    between atoms: C_12  and  C_13
REMARK    9  A    between atoms: C_13  and  C_14
REMARK   10  A    between atoms: C_14  and  C_15
REMARK                            x       y       z     vdW  Elec       q    Type
REMARK                         _______ _______ _______ _____ _____    ______ ____
ROOT
ATOM      1  C   UNL     1       8.971  -1.993  25.124  0.00  0.00    +0.131 C 
ENDROOT
BRANCH   1   5
ATOM      2  C   UNL     1       9.813   1.240  22.359  0.00  0.00    +0.195 A 
ATOM      3  C   UNL     1       9.809  -0.084  21.928  0.00  0.00    +0.053 A 
ATOM      4  C   UNL     1       9.509  -1.120  22.818  0.00  0.00    +0.008 A 
ATOM      5  C   UNL     1       9.196  -0.847  24.157  0.00  0.00    -0.032 A 
ATOM      6  C   UNL     1       9.181   0.491  24.586  0.00  0.00    +0.092 A 
ATOM      7  C   UNL     1       9.488   1.532  23.691  0.00  0.00    +0.314 A 
BRANCH   7   8
ATOM      8  N   UNL     1       9.493   2.913  24.181  0.00  0.00    +0.083 N 
ATOM      9  O   UNL     1       8.642   3.249  25.015  0.00  0.00    +0.042 OA
ATOM     10  O   UNL     1      10.370   3.675  23.735  0.00  0.00    -0.576 OA
ENDBRANCH   7   8
BRANCH   2  11
ATOM     11  O   UNL     1      10.159   2.163  21.408  0.00  0.00    -0.501 OA
ATOM     12  H   UNL     1      11.093   2.026  21.144  0.00  0.00    +0.292 HD
ENDBRANCH   2  11
ENDBRANCH   1   5
BRANCH   1  13
ATOM     13  C   UNL     1       9.065  -3.377  24.509  0.00  0.00    +0.217 C 
ATOM     14  N   UNL     1       7.884  -3.885  24.024  0.00  0.00    -0.315 N 
ATOM     15  H   UNL     1       6.990  -3.424  24.209  0.00  0.00    +0.149 HD
ATOM     16  O   UNL     1      10.135  -3.979  24.413  0.00  0.00    -0.275 OA
BRANCH  14  17
ATOM     17  C   UNL     1       7.859  -5.171  23.364  0.00  0.00    +0.104 C 
BRANCH  17  18
ATOM     18  C   UNL     1       7.015  -5.188  22.098  0.00  0.00    +0.019 C 
BRANCH  18  19
ATOM     19  C   UNL     1       5.854  -6.183  22.165  0.00  0.00    +0.002 C 
BRANCH  19  20
ATOM     20  C   UNL     1       4.760  -5.757  23.152  0.00  0.00    +0.006 C 
BRANCH  20  21
ATOM     21  C   UNL     1       4.574  -6.688  24.349  0.00  0.00    +0.052 C 
BRANCH  21  22
ATOM     22  C   UNL     1       5.137  -6.054  25.623  0.00  0.00    +0.042 C 
ATOM     23  O   UNL     1       5.272  -4.800  25.581  0.00  0.00    -0.550 OA
ATOM     24  O   UNL     1       5.405  -6.865  26.556  0.00  0.00    -0.550 OA
ENDBRANCH  21  22
ENDBRANCH  20  21
ENDBRANCH  19  20
ENDBRANCH  18  19
ENDBRANCH  17  18
ENDBRANCH  14  17
ENDBRANCH   1  13
TORSDOF 10
ENDMDL
