MODEL 1
REMARK VINA RESULT:      -7.5      0.000      0.000
REMARK  Name = 
REMARK  6 active torsions:
REMARK  status: ('A' for Active; 'I' for Inactive)
REMARK    1  A    between atoms: C_4  and  C_27
REMARK    2  A    between atoms: C_6  and  O_7
REMARK    3  A    between atoms: O_7  and  C_8
REMARK    4  A    between atoms: C_13  and  O_14
REMARK    5  A    between atoms: O_14  and  C_15
REMARK    6  A    between atoms: C_15  and  C_16
REMARK                            x       y       z     vdW  Elec       q    Type
REMARK                         _______ _______ _______ _____ _____    ______ ____
ROOT
ATOM      1  C   UNL     1       8.237  -0.353  23.617  0.00  0.00    +0.150 A 
ATOM      2  C   UNL     1       8.044  -0.906  24.888  0.00  0.00    +0.093 A 
ATOM      3  C   UNL     1       8.684  -2.095  25.249  0.00  0.00    +0.125 A 
ATOM      4  C   UNL     1       9.533  -2.729  24.340  0.00  0.00    +0.047 A 
ATOM      5  C   UNL     1       9.764  -2.166  23.084  0.00  0.00    +0.027 A 
ATOM      6  C   UNL     1       9.119  -0.981  22.726  0.00  0.00    +0.083 A 
ATOM      7 CL   UNL     1       9.452  -0.310  21.168  0.00  0.00    -0.080 Cl
ENDROOT
BRANCH   1   8
ATOM      8  O   UNL     1       7.693   0.850  23.223  0.00  0.00    -0.454 OA
BRANCH   8  12
ATOM      9 CL   UNL     1       6.741   5.151  25.905  0.00  0.00    -0.083 Cl
ATOM     10  C   UNL     1       7.745   4.119  24.963  0.00  0.00    +0.046 A 
ATOM     11  C   UNL     1       7.259   2.883  24.534  0.00  0.00    +0.066 A 
ATOM     12  C   UNL     1       8.084   2.044  23.782  0.00  0.00    +0.131 A 
ATOM     13  C   UNL     1       9.377   2.460  23.443  0.00  0.00    +0.065 A 
ATOM     14  C   UNL     1       9.858   3.705  23.867  0.00  0.00    +0.057 A 
ATOM     15  C   UNL     1       9.033   4.540  24.628  0.00  0.00    +0.039 A 
BRANCH  14  16
ATOM     16  C   UNL     1      11.179   4.126  23.510  0.00  0.00    +0.099 C 
ATOM     17  N   UNL     1      12.246   4.476  23.213  0.00  0.00    -0.191 NA
ENDBRANCH  14  16
ENDBRANCH   8  12
ENDBRANCH   1   8
BRANCH   3  18
ATOM     18  O   UNL     1       8.533  -2.733  26.450  0.00  0.00    -0.486 OA
BRANCH  18  19
ATOM     19  C   UNL     1       8.820  -4.144  26.470  0.00  0.00    +0.286 C 
BRANCH  19  20
ATOM     20  C   UNL     1       7.608  -5.025  26.542  0.00  0.00    +0.108 A 
ATOM     21  C   UNL     1       6.662  -5.323  25.520  0.00  0.00    +0.026 A 
ATOM     22  C   UNL     1       6.470  -4.964  24.174  0.00  0.00    +0.012 A 
ATOM     23  C   UNL     1       5.366  -5.481  23.484  0.00  0.00    +0.001 A 
ATOM     24  C   UNL     1       4.469  -6.343  24.115  0.00  0.00    +0.002 A 
ATOM     25  C   UNL     1       4.642  -6.714  25.452  0.00  0.00    +0.028 A 
ATOM     26  C   UNL     1       5.747  -6.180  26.122  0.00  0.00    +0.066 A 
ATOM     27  N   UNL     1       6.188  -6.335  27.407  0.00  0.00    -0.277 N 
ATOM     28  H   UNL     1       5.770  -6.900  28.136  0.00  0.00    +0.189 HD
ATOM     29  N   UNL     1       7.300  -5.638  27.697  0.00  0.00    -0.174 NA
ENDBRANCH  19  20
ENDBRANCH  18  19
ENDBRANCH   3  18
TORSDOF 6
ENDMDL
MODEL 2
REMARK VINA RESULT:      -7.2      1.678      2.094
REMARK  Name = 
REMARK  6 active torsions:
REMARK  status: ('A' for Active; 'I' for Inactive)
REMARK    1  A    between atoms: C_4  and  C_27
REMARK    2  A    between atoms: C_6  and  O_7
REMARK    3  A    between atoms: O_7  and  C_8
REMARK    4  A    between atoms: C_13  and  O_14
REMARK    5  A    between atoms: O_14  and  C_15
REMARK    6  A    between atoms: C_15  and  C_16
REMARK                            x       y       z     vdW  Elec       q    Type
REMARK                         _______ _______ _______ _____ _____    ______ ____
ROOT
ATOM      1  C   UNL     1       8.188  -0.426  23.550  0.00  0.00    +0.150 A 
ATOM      2  C   UNL     1       7.976  -0.946  24.832  0.00  0.00    +0.093 A 
ATOM      3  C   UNL     1       8.604  -2.128  25.232  0.00  0.00    +0.125 A 
ATOM      4  C   UNL     1       9.461  -2.790  24.351  0.00  0.00    +0.047 A 
ATOM      5  C   UNL     1       9.711  -2.260  23.084  0.00  0.00    +0.027 A 
ATOM      6  C   UNL     1       9.078  -1.082  22.687  0.00  0.00    +0.083 A 
ATOM      7 CL   UNL     1       9.434  -0.453  21.117  0.00  0.00    -0.080 Cl
ENDROOT
BRANCH   1   8
ATOM      8  O   UNL     1       7.656   0.769  23.119  0.00  0.00    -0.454 OA
BRANCH   8  12
ATOM      9 CL   UNL     1      11.581   4.105  23.365  0.00  0.00    -0.083 Cl
ATOM     10  C   UNL     1       9.974   3.596  23.711  0.00  0.00    +0.046 A 
ATOM     11  C   UNL     1       9.509   2.381  23.206  0.00  0.00    +0.066 A 
ATOM     12  C   UNL     1       8.199   1.980  23.477  0.00  0.00    +0.131 A 
ATOM     13  C   UNL     1       7.377   2.785  24.274  0.00  0.00    +0.065 A 
ATOM     14  C   UNL     1       7.849   3.999  24.787  0.00  0.00    +0.057 A 
ATOM     15  C   UNL     1       9.159   4.403  24.506  0.00  0.00    +0.039 A 
BRANCH  14  16
ATOM     16  C   UNL     1       7.004   4.813  25.606  0.00  0.00    +0.099 C 
ATOM     17  N   UNL     1       6.326   5.475  26.279  0.00  0.00    -0.191 NA
ENDBRANCH  14  16
ENDBRANCH   8  12
ENDBRANCH   1   8
BRANCH   3  18
ATOM     18  O   UNL     1       8.434  -2.734  26.447  0.00  0.00    -0.486 OA
BRANCH  18  19
ATOM     19  C   UNL     1       8.742  -4.139  26.514  0.00  0.00    +0.286 C 
BRANCH  19  20
ATOM     20  C   UNL     1       7.543  -5.038  26.590  0.00  0.00    +0.108 A 
ATOM     21  C   UNL     1       6.601  -5.352  25.570  0.00  0.00    +0.026 A 
ATOM     22  C   UNL     1       6.404  -5.002  24.222  0.00  0.00    +0.012 A 
ATOM     23  C   UNL     1       5.307  -5.537  23.535  0.00  0.00    +0.001 A 
ATOM     24  C   UNL     1       4.423  -6.409  24.169  0.00  0.00    +0.002 A 
ATOM     25  C   UNL     1       4.601  -6.772  25.508  0.00  0.00    +0.028 A 
ATOM     26  C   UNL     1       5.699  -6.221  26.175  0.00  0.00    +0.066 A 
ATOM     27  N   UNL     1       6.142  -6.363  27.460  0.00  0.00    -0.277 N 
ATOM     28  H   UNL     1       5.732  -6.932  28.192  0.00  0.00    +0.189 HD
ATOM     29  N   UNL     1       7.244  -5.650  27.747  0.00  0.00    -0.174 NA
ENDBRANCH  19  20
ENDBRANCH  18  19
ENDBRANCH   3  18
TORSDOF 6
ENDMDL
MODEL 3
REMARK VINA RESULT:      -7.2      3.300      5.869
REMARK  Name = 
REMARK  6 active torsions:
REMARK  status: ('A' for Active; 'I' for Inactive)
REMARK    1  A    between atoms: C_4  and  C_27
REMARK    2  A    between atoms: C_6  and  O_7
REMARK    3  A    between atoms: O_7  and  C_8
REMARK    4  A    between atoms: C_13  and  O_14
REMARK    5  A    between atoms: O_14  and  C_15
REMARK    6  A    between atoms: C_15  and  C_16
REMARK                            x       y       z     vdW  Elec       q    Type
REMARK                         _______ _______ _______ _____ _____    ______ ____
ROOT
ATOM      1  C   UNL     1       5.800  -1.351  25.530  0.00  0.00    +0.150 A 
ATOM      2  C   UNL     1       6.773  -1.841  24.650  0.00  0.00    +0.093 A 
ATOM      3  C   UNL     1       7.473  -3.013  24.947  0.00  0.00    +0.125 A 
ATOM      4  C   UNL     1       7.192  -3.710  26.124  0.00  0.00    +0.047 A 
ATOM      5  C   UNL     1       6.196  -3.253  26.989  0.00  0.00    +0.027 A 
ATOM      6  C   UNL     1       5.503  -2.079  26.692  0.00  0.00    +0.083 A 
ATOM      7 CL   UNL     1       4.265  -1.564  27.782  0.00  0.00    -0.080 Cl
ENDROOT
BRANCH   1   8
ATOM      8  O   UNL     1       5.027  -0.243  25.265  0.00  0.00    -0.454 OA
BRANCH   8  12
ATOM      9 CL   UNL     1       6.898   3.537  22.298  0.00  0.00    -0.083 Cl
ATOM     10  C   UNL     1       6.534   2.814  23.816  0.00  0.00    +0.046 A 
ATOM     11  C   UNL     1       5.883   1.580  23.857  0.00  0.00    +0.066 A 
ATOM     12  C   UNL     1       5.578   1.005  25.092  0.00  0.00    +0.131 A 
ATOM     13  C   UNL     1       5.950   1.657  26.274  0.00  0.00    +0.065 A 
ATOM     14  C   UNL     1       6.611   2.890  26.230  0.00  0.00    +0.057 A 
ATOM     15  C   UNL     1       6.908   3.468  24.991  0.00  0.00    +0.039 A 
BRANCH  14  16
ATOM     16  C   UNL     1       6.994   3.546  27.443  0.00  0.00    +0.099 C 
ATOM     17  N   UNL     1       7.312   4.069  28.430  0.00  0.00    -0.191 NA
ENDBRANCH  14  16
ENDBRANCH   8  12
ENDBRANCH   1   8
BRANCH   3  18
ATOM     18  O   UNL     1       8.464  -3.552  24.173  0.00  0.00    -0.486 OA
BRANCH  18  19
ATOM     19  C   UNL     1       9.715  -2.840  24.139  0.00  0.00    +0.286 C 
BRANCH  19  20
ATOM     20  C   UNL     1       9.763  -1.709  23.154  0.00  0.00    +0.108 A 
ATOM     21  C   UNL     1       9.930  -0.318  23.405  0.00  0.00    +0.026 A 
ATOM     22  C   UNL     1      10.096   0.501  24.537  0.00  0.00    +0.012 A 
ATOM     23  C   UNL     1      10.221   1.884  24.361  0.00  0.00    +0.001 A 
ATOM     24  C   UNL     1      10.187   2.449  23.086  0.00  0.00    +0.002 A 
ATOM     25  C   UNL     1      10.024   1.654  21.948  0.00  0.00    +0.028 A 
ATOM     26  C   UNL     1       9.895   0.276  22.148  0.00  0.00    +0.066 A 
ATOM     27  N   UNL     1       9.719  -0.754  21.266  0.00  0.00    -0.277 N 
ATOM     28  H   UNL     1       9.655  -0.694  20.257  0.00  0.00    +0.189 HD
ATOM     29  N   UNL     1       9.620  -1.964  21.843  0.00  0.00    -0.174 NA
ENDBRANCH  19  20
ENDBRANCH  18  19
ENDBRANCH   3  18
TORSDOF 6
ENDMDL
MODEL 4
REMARK VINA RESULT:      -7.1      2.746      7.567
REMARK  Name = 
REMARK  6 active torsions:
REMARK  status: ('A' for Active; 'I' for Inactive)
REMARK    1  A    between atoms: C_4  and  C_27
REMARK    2  A    between atoms: C_6  and  O_7
REMARK    3  A    between atoms: O_7  and  C_8
REMARK    4  A    between atoms: C_13  and  O_14
REMARK    5  A    between atoms: O_14  and  C_15
REMARK    6  A    between atoms: C_15  and  C_16
REMARK                            x       y       z     vdW  Elec       q    Type
REMARK                         _______ _______ _______ _____ _____    ______ ____
ROOT
ATOM      1  C   UNL     1       5.372   0.234  25.990  0.00  0.00    +0.150 A 
ATOM      2  C   UNL     1       6.062   1.075  25.108  0.00  0.00    +0.093 A 
ATOM      3  C   UNL     1       6.693   2.230  25.576  0.00  0.00    +0.125 A 
ATOM      4  C   UNL     1       6.647   2.543  26.936  0.00  0.00    +0.047 A 
ATOM      5  C   UNL     1       5.996   1.692  27.831  0.00  0.00    +0.027 A 
ATOM      6  C   UNL     1       5.362   0.542  27.358  0.00  0.00    +0.083 A 
ATOM      7 CL   UNL     1       4.587  -0.492  28.506  0.00  0.00    -0.080 Cl
ENDROOT
BRANCH   1   8
ATOM      8  O   UNL     1       4.789  -0.953  25.606  0.00  0.00    -0.454 OA
BRANCH   8  12
ATOM      9 CL   UNL     1       6.817  -3.871  21.868  0.00  0.00    -0.083 Cl
ATOM     10  C   UNL     1       6.480  -3.499  23.514  0.00  0.00    +0.046 A 
ATOM     11  C   UNL     1       5.792  -2.327  23.833  0.00  0.00    +0.066 A 
ATOM     12  C   UNL     1       5.535  -2.023  25.171  0.00  0.00    +0.131 A 
ATOM     13  C   UNL     1       5.943  -2.908  26.176  0.00  0.00    +0.065 A 
ATOM     14  C   UNL     1       6.624  -4.088  25.853  0.00  0.00    +0.057 A 
ATOM     15  C   UNL     1       6.889  -4.385  24.512  0.00  0.00    +0.039 A 
BRANCH  14  16
ATOM     16  C   UNL     1       7.032  -4.990  26.887  0.00  0.00    +0.099 C 
ATOM     17  N   UNL     1       7.351  -5.726  27.727  0.00  0.00    -0.191 NA
ENDBRANCH  14  16
ENDBRANCH   8  12
ENDBRANCH   1   8
BRANCH   3  18
ATOM     18  O   UNL     1       7.360   3.132  24.793  0.00  0.00    -0.486 OA
BRANCH  18  19
ATOM     19  C   UNL     1       8.777   2.931  24.642  0.00  0.00    +0.286 C 
BRANCH  19  20
ATOM     20  C   UNL     1       9.158   1.952  23.570  0.00  0.00    +0.108 A 
ATOM     21  C   UNL     1       9.372   0.549  23.682  0.00  0.00    +0.026 A 
ATOM     22  C   UNL     1       9.332  -0.409  24.711  0.00  0.00    +0.012 A 
ATOM     23  C   UNL     1       9.628  -1.744  24.407  0.00  0.00    +0.001 A 
ATOM     24  C   UNL     1       9.954  -2.125  23.106  0.00  0.00    +0.002 A 
ATOM     25  C   UNL     1       9.999  -1.190  22.068  0.00  0.00    +0.028 A 
ATOM     26  C   UNL     1       9.706   0.137  22.396  0.00  0.00    +0.066 A 
ATOM     27  N   UNL     1       9.669   1.271  21.633  0.00  0.00    -0.277 N 
ATOM     28  H   UNL     1       9.851   1.349  20.639  0.00  0.00    +0.189 HD
ATOM     29  N   UNL     1       9.357   2.386  22.315  0.00  0.00    -0.174 NA
ENDBRANCH  19  20
ENDBRANCH  18  19
ENDBRANCH   3  18
TORSDOF 6
ENDMDL
MODEL 5
REMARK VINA RESULT:      -7.0      2.638      8.460
REMARK  Name = 
REMARK  6 active torsions:
REMARK  status: ('A' for Active; 'I' for Inactive)
REMARK    1  A    between atoms: C_4  and  C_27
REMARK    2  A    between atoms: C_6  and  O_7
REMARK    3  A    between atoms: O_7  and  C_8
REMARK    4  A    between atoms: C_13  and  O_14
REMARK    5  A    between atoms: O_14  and  C_15
REMARK    6  A    between atoms: C_15  and  C_16
REMARK                            x       y       z     vdW  Elec       q    Type
REMARK                         _______ _______ _______ _____ _____    ______ ____
ROOT
ATOM      1  C   UNL     1       6.884  -1.335  24.745  0.00  0.00    +0.150 A 
ATOM      2  C   UNL     1       8.173  -1.207  24.217  0.00  0.00    +0.093 A 
ATOM      3  C   UNL     1       9.203  -0.656  24.984  0.00  0.00    +0.125 A 
ATOM      4  C   UNL     1       8.948  -0.242  26.292  0.00  0.00    +0.047 A 
ATOM      5  C   UNL     1       7.676  -0.402  26.844  0.00  0.00    +0.027 A 
ATOM      6  C   UNL     1       6.648  -0.948  26.072  0.00  0.00    +0.083 A 
ATOM      7 CL   UNL     1       5.095  -1.145  26.803  0.00  0.00    -0.080 Cl
ENDROOT
BRANCH   1   8
ATOM      8  O   UNL     1       5.843  -1.932  24.068  0.00  0.00    -0.454 OA
BRANCH   8  12
ATOM      9 CL   UNL     1       6.106  -5.805  20.673  0.00  0.00    -0.083 Cl
ATOM     10  C   UNL     1       5.898  -5.161  22.255  0.00  0.00    +0.046 A 
ATOM     11  C   UNL     1       6.007  -3.785  22.463  0.00  0.00    +0.066 A 
ATOM     12  C   UNL     1       5.852  -3.270  23.751  0.00  0.00    +0.131 A 
ATOM     13  C   UNL     1       5.563  -4.132  24.815  0.00  0.00    +0.065 A 
ATOM     14  C   UNL     1       5.445  -5.511  24.602  0.00  0.00    +0.057 A 
ATOM     15  C   UNL     1       5.610  -6.026  23.312  0.00  0.00    +0.039 A 
BRANCH  14  16
ATOM     16  C   UNL     1       5.142  -6.385  25.695  0.00  0.00    +0.099 C 
ATOM     17  N   UNL     1       4.905  -7.102  26.578  0.00  0.00    -0.191 NA
ENDBRANCH  14  16
ENDBRANCH   8  12
ENDBRANCH   1   8
BRANCH   3  18
ATOM     18  O   UNL     1      10.485  -0.456  24.548  0.00  0.00    -0.486 OA
BRANCH  18  19
ATOM     19  C   UNL     1      10.877   0.908  24.308  0.00  0.00    +0.286 C 
BRANCH  19  20
ATOM     20  C   UNL     1       9.973   1.664  23.380  0.00  0.00    +0.108 A 
ATOM     21  C   UNL     1       8.971   2.625  23.699  0.00  0.00    +0.026 A 
ATOM     22  C   UNL     1       8.455   3.207  24.871  0.00  0.00    +0.012 A 
ATOM     23  C   UNL     1       7.421   4.145  24.764  0.00  0.00    +0.001 A 
ATOM     24  C   UNL     1       6.910   4.505  23.518  0.00  0.00    +0.002 A 
ATOM     25  C   UNL     1       7.409   3.940  22.341  0.00  0.00    +0.028 A 
ATOM     26  C   UNL     1       8.437   3.002  22.472  0.00  0.00    +0.066 A 
ATOM     27  N   UNL     1       9.124   2.275  21.540  0.00  0.00    -0.277 N 
ATOM     28  H   UNL     1       9.006   2.298  20.534  0.00  0.00    +0.189 HD
ATOM     29  N   UNL     1      10.047   1.446  22.056  0.00  0.00    -0.174 NA
ENDBRANCH  19  20
ENDBRANCH  18  19
ENDBRANCH   3  18
TORSDOF 6
ENDMDL
MODEL 6
REMARK VINA RESULT:      -6.9      2.226      2.762
REMARK  Name = 
REMARK  6 active torsions:
REMARK  status: ('A' for Active; 'I' for Inactive)
REMARK    1  A    between atoms: C_4  and  C_27
REMARK    2  A    between atoms: C_6  and  O_7
REMARK    3  A    between atoms: O_7  and  C_8
REMARK    4  A    between atoms: C_13  and  O_14
REMARK    5  A    between atoms: O_14  and  C_15
REMARK    6  A    between atoms: C_15  and  C_16
REMARK                            x       y       z     vdW  Elec       q    Type
REMARK                         _______ _______ _______ _____ _____    ______ ____
ROOT
ATOM      1  C   UNL     1       8.310  -0.039  24.194  0.00  0.00    +0.150 A 
ATOM      2  C   UNL     1       7.292  -0.777  23.579  0.00  0.00    +0.093 A 
ATOM      3  C   UNL     1       7.596  -1.906  22.816  0.00  0.00    +0.125 A 
ATOM      4  C   UNL     1       8.925  -2.311  22.675  0.00  0.00    +0.047 A 
ATOM      5  C   UNL     1       9.945  -1.607  23.315  0.00  0.00    +0.027 A 
ATOM      6  C   UNL     1       9.638  -0.476  24.073  0.00  0.00    +0.083 A 
ATOM      7 CL   UNL     1      10.932   0.353  24.864  0.00  0.00    -0.080 Cl
ENDROOT
BRANCH   1   8
ATOM      8  O   UNL     1       8.075   1.041  25.015  0.00  0.00    -0.454 OA
BRANCH   8  12
ATOM      9 CL   UNL     1       5.092   4.583  22.744  0.00  0.00    -0.083 Cl
ATOM     10  C   UNL     1       6.580   4.021  23.401  0.00  0.00    +0.046 A 
ATOM     11  C   UNL     1       6.649   2.748  23.969  0.00  0.00    +0.066 A 
ATOM     12  C   UNL     1       7.855   2.303  24.514  0.00  0.00    +0.131 A 
ATOM     13  C   UNL     1       8.987   3.124  24.460  0.00  0.00    +0.065 A 
ATOM     14  C   UNL     1       8.917   4.397  23.881  0.00  0.00    +0.057 A 
ATOM     15  C   UNL     1       7.706   4.844  23.344  0.00  0.00    +0.039 A 
BRANCH  14  16
ATOM     16  C   UNL     1      10.082   5.227  23.824  0.00  0.00    +0.099 C 
ATOM     17  N   UNL     1      11.029   5.898  23.767  0.00  0.00    -0.191 NA
ENDBRANCH  14  16
ENDBRANCH   8  12
ENDBRANCH   1   8
BRANCH   3  18
ATOM     18  O   UNL     1       6.679  -2.672  22.148  0.00  0.00    -0.486 OA
BRANCH  18  19
ATOM     19  C   UNL     1       6.993  -4.069  21.998  0.00  0.00    +0.286 C 
BRANCH  19  20
ATOM     20  C   UNL     1       6.054  -4.999  22.709  0.00  0.00    +0.108 A 
ATOM     21  C   UNL     1       6.002  -5.322  24.095  0.00  0.00    +0.026 A 
ATOM     22  C   UNL     1       6.715  -4.963  25.252  0.00  0.00    +0.012 A 
ATOM     23  C   UNL     1       6.348  -5.530  26.479  0.00  0.00    +0.001 A 
ATOM     24  C   UNL     1       5.290  -6.434  26.560  0.00  0.00    +0.002 A 
ATOM     25  C   UNL     1       4.566  -6.804  25.422  0.00  0.00    +0.028 A 
ATOM     26  C   UNL     1       4.954  -6.230  24.208  0.00  0.00    +0.066 A 
ATOM     27  N   UNL     1       4.469  -6.382  22.939  0.00  0.00    -0.277 N 
ATOM     28  H   UNL     1       3.696  -6.966  22.643  0.00  0.00    +0.189 HD
ATOM     29  N   UNL     1       5.122  -5.665  22.008  0.00  0.00    -0.174 NA
ENDBRANCH  19  20
ENDBRANCH  18  19
ENDBRANCH   3  18
TORSDOF 6
ENDMDL
MODEL 7
REMARK VINA RESULT:      -6.9      2.135      3.793
REMARK  Name = 
REMARK  6 active torsions:
REMARK  status: ('A' for Active; 'I' for Inactive)
REMARK    1  A    between atoms: C_4  and  C_27
REMARK    2  A    between atoms: C_6  and  O_7
REMARK    3  A    between atoms: O_7  and  C_8
REMARK    4  A    between atoms: C_13  and  O_14
REMARK    5  A    between atoms: O_14  and  C_15
REMARK    6  A    between atoms: C_15  and  C_16
REMARK                            x       y       z     vdW  Elec       q    Type
REMARK                         _______ _______ _______ _____ _____    ______ ____
ROOT
ATOM      1  C   UNL     1       8.205  -1.225  26.516  0.00  0.00    +0.150 A 
ATOM      2  C   UNL     1       8.245  -2.624  26.495  0.00  0.00    +0.093 A 
ATOM      3  C   UNL     1       7.102  -3.372  26.789  0.00  0.00    +0.125 A 
ATOM      4  C   UNL     1       5.906  -2.719  27.093  0.00  0.00    +0.047 A 
ATOM      5  C   UNL     1       5.843  -1.325  27.078  0.00  0.00    +0.027 A 
ATOM      6  C   UNL     1       6.989  -0.582  26.789  0.00  0.00    +0.083 A 
ATOM      7 CL   UNL     1       6.859   1.141  26.762  0.00  0.00    -0.080 Cl
ENDROOT
BRANCH   1   8
ATOM      8  O   UNL     1       9.275  -0.431  26.169  0.00  0.00    -0.454 OA
BRANCH   8  12
ATOM      9 CL   UNL     1       9.264  -1.108  21.056  0.00  0.00    -0.083 Cl
ATOM     10  C   UNL     1       9.555  -0.192  22.483  0.00  0.00    +0.046 A 
ATOM     11  C   UNL     1       9.235  -0.732  23.730  0.00  0.00    +0.066 A 
ATOM     12  C   UNL     1       9.459   0.022  24.884  0.00  0.00    +0.131 A 
ATOM     13  C   UNL     1      10.027   1.298  24.781  0.00  0.00    +0.065 A 
ATOM     14  C   UNL     1      10.355   1.833  23.530  0.00  0.00    +0.057 A 
ATOM     15  C   UNL     1      10.121   1.079  22.375  0.00  0.00    +0.039 A 
BRANCH  14  16
ATOM     16  C   UNL     1      10.941   3.135  23.435  0.00  0.00    +0.099 C 
ATOM     17  N   UNL     1      11.420   4.191  23.346  0.00  0.00    -0.191 NA
ENDBRANCH  14  16
ENDBRANCH   8  12
ENDBRANCH   1   8
BRANCH   3  18
ATOM     18  O   UNL     1       7.048  -4.738  26.830  0.00  0.00    -0.486 OA
BRANCH  18  19
ATOM     19  C   UNL     1       5.751  -5.337  26.646  0.00  0.00    +0.286 C 
BRANCH  19  20
ATOM     20  C   UNL     1       5.490  -5.844  25.259  0.00  0.00    +0.108 A 
ATOM     21  C   UNL     1       6.042  -5.391  24.027  0.00  0.00    +0.026 A 
ATOM     22  C   UNL     1       6.951  -4.396  23.623  0.00  0.00    +0.012 A 
ATOM     23  C   UNL     1       7.238  -4.252  22.260  0.00  0.00    +0.001 A 
ATOM     24  C   UNL     1       6.639  -5.082  21.312  0.00  0.00    +0.002 A 
ATOM     25  C   UNL     1       5.735  -6.078  21.692  0.00  0.00    +0.028 A 
ATOM     26  C   UNL     1       5.459  -6.199  23.057  0.00  0.00    +0.066 A 
ATOM     27  N   UNL     1       4.634  -7.047  23.742  0.00  0.00    -0.277 N 
ATOM     28  H   UNL     1       4.052  -7.782  23.358  0.00  0.00    +0.189 HD
ATOM     29  N   UNL     1       4.618  -6.849  25.071  0.00  0.00    -0.174 NA
ENDBRANCH  19  20
ENDBRANCH  18  19
ENDBRANCH   3  18
TORSDOF 6
ENDMDL
MODEL 8
REMARK VINA RESULT:      -6.9      2.773      3.405
REMARK  Name = 
REMARK  6 active torsions:
REMARK  status: ('A' for Active; 'I' for Inactive)
REMARK    1  A    between atoms: C_4  and  C_27
REMARK    2  A    between atoms: C_6  and  O_7
REMARK    3  A    between atoms: O_7  and  C_8
REMARK    4  A    between atoms: C_13  and  O_14
REMARK    5  A    between atoms: O_14  and  C_15
REMARK    6  A    between atoms: C_15  and  C_16
REMARK                            x       y       z     vdW  Elec       q    Type
REMARK                         _______ _______ _______ _____ _____    ______ ____
ROOT
ATOM      1  C   UNL     1       8.532   0.099  24.111  0.00  0.00    +0.150 A 
ATOM      2  C   UNL     1       7.497  -0.679  23.579  0.00  0.00    +0.093 A 
ATOM      3  C   UNL     1       7.781  -1.852  22.876  0.00  0.00    +0.125 A 
ATOM      4  C   UNL     1       9.106  -2.260  22.713  0.00  0.00    +0.047 A 
ATOM      5  C   UNL     1      10.144  -1.513  23.273  0.00  0.00    +0.027 A 
ATOM      6  C   UNL     1       9.857  -0.339  23.970  0.00  0.00    +0.083 A 
ATOM      7 CL   UNL     1      11.172   0.541  24.663  0.00  0.00    -0.080 Cl
ENDROOT
BRANCH   1   8
ATOM      8  O   UNL     1       8.318   1.227  24.873  0.00  0.00    -0.454 OA
BRANCH   8  12
ATOM      9 CL   UNL     1      10.300   5.821  23.623  0.00  0.00    -0.083 Cl
ATOM     10  C   UNL     1       9.016   4.681  23.733  0.00  0.00    +0.046 A 
ATOM     11  C   UNL     1       9.265   3.403  24.238  0.00  0.00    +0.066 A 
ATOM     12  C   UNL     1       8.222   2.478  24.310  0.00  0.00    +0.131 A 
ATOM     13  C   UNL     1       6.935   2.847  23.903  0.00  0.00    +0.065 A 
ATOM     14  C   UNL     1       6.686   4.132  23.405  0.00  0.00    +0.057 A 
ATOM     15  C   UNL     1       7.734   5.054  23.325  0.00  0.00    +0.039 A 
BRANCH  14  16
ATOM     16  C   UNL     1       5.365   4.503  22.997  0.00  0.00    +0.099 C 
ATOM     17  N   UNL     1       4.289   4.799  22.675  0.00  0.00    -0.191 NA
ENDBRANCH  14  16
ENDBRANCH   8  12
ENDBRANCH   1   8
BRANCH   3  18
ATOM     18  O   UNL     1       6.846  -2.660  22.288  0.00  0.00    -0.486 OA
BRANCH  18  19
ATOM     19  C   UNL     1       7.194  -4.050  22.147  0.00  0.00    +0.286 C 
BRANCH  19  20
ATOM     20  C   UNL     1       6.179  -5.006  22.701  0.00  0.00    +0.108 A 
ATOM     21  C   UNL     1       5.975  -5.402  24.054  0.00  0.00    +0.026 A 
ATOM     22  C   UNL     1       6.561  -5.113  25.299  0.00  0.00    +0.012 A 
ATOM     23  C   UNL     1       6.061  -5.741  26.446  0.00  0.00    +0.001 A 
ATOM     24  C   UNL     1       4.995  -6.636  26.364  0.00  0.00    +0.002 A 
ATOM     25  C   UNL     1       4.397  -6.936  25.137  0.00  0.00    +0.028 A 
ATOM     26  C   UNL     1       4.917  -6.303  24.004  0.00  0.00    +0.066 A 
ATOM     27  N   UNL     1       4.571  -6.382  22.684  0.00  0.00    -0.277 N 
ATOM     28  H   UNL     1       3.831  -6.940  22.275  0.00  0.00    +0.189 HD
ATOM     29  N   UNL     1       5.324  -5.624  21.869  0.00  0.00    -0.174 NA
ENDBRANCH  19  20
ENDBRANCH  18  19
ENDBRANCH   3  18
TORSDOF 6
ENDMDL
MODEL 9
REMARK VINA RESULT:      -6.8      3.306      7.555
REMARK  Name = 
REMARK  6 active torsions:
REMARK  status: ('A' for Active; 'I' for Inactive)
REMARK    1  A    between atoms: C_4  and  C_27
REMARK    2  A    between atoms: C_6  and  O_7
REMARK    3  A    between atoms: O_7  and  C_8
REMARK    4  A    between atoms: C_13  and  O_14
REMARK    5  A    between atoms: O_14  and  C_15
REMARK    6  A    between atoms: C_15  and  C_16
REMARK                            x       y       z     vdW  Elec       q    Type
REMARK                         _______ _______ _______ _____ _____    ______ ____
ROOT
ATOM      1  C   UNL     1       5.183  -0.114  25.975  0.00  0.00    +0.150 A 
ATOM      2  C   UNL     1       5.744   0.810  25.086  0.00  0.00    +0.093 A 
ATOM      3  C   UNL     1       6.268   2.017  25.554  0.00  0.00    +0.125 A 
ATOM      4  C   UNL     1       6.244   2.300  26.921  0.00  0.00    +0.047 A 
ATOM      5  C   UNL     1       5.724   1.369  27.822  0.00  0.00    +0.027 A 
ATOM      6  C   UNL     1       5.197   0.166  27.349  0.00  0.00    +0.083 A 
ATOM      7 CL   UNL     1       4.582  -0.964  28.503  0.00  0.00    -0.080 Cl
ENDROOT
BRANCH   1   8
ATOM      8  O   UNL     1       4.714  -1.350  25.588  0.00  0.00    -0.454 OA
BRANCH   8  12
ATOM      9 CL   UNL     1       8.759  -4.422  26.482  0.00  0.00    -0.083 Cl
ATOM     10  C   UNL     1       7.469  -3.823  25.512  0.00  0.00    +0.046 A 
ATOM     11  C   UNL     1       6.615  -2.844  26.023  0.00  0.00    +0.066 A 
ATOM     12  C   UNL     1       5.562  -2.374  25.237  0.00  0.00    +0.131 A 
ATOM     13  C   UNL     1       5.388  -2.866  23.938  0.00  0.00    +0.065 A 
ATOM     14  C   UNL     1       6.252  -3.842  23.425  0.00  0.00    +0.057 A 
ATOM     15  C   UNL     1       7.301  -4.318  24.218  0.00  0.00    +0.039 A 
BRANCH  14  16
ATOM     16  C   UNL     1       6.072  -4.335  22.093  0.00  0.00    +0.099 C 
ATOM     17  N   UNL     1       5.917  -4.728  21.011  0.00  0.00    -0.191 NA
ENDBRANCH  14  16
ENDBRANCH   8  12
ENDBRANCH   1   8
BRANCH   3  18
ATOM     18  O   UNL     1       6.804   2.999  24.765  0.00  0.00    -0.486 OA
BRANCH  18  19
ATOM     19  C   UNL     1       8.227   2.951  24.555  0.00  0.00    +0.286 C 
BRANCH  19  20
ATOM     20  C   UNL     1       8.661   2.070  23.421  0.00  0.00    +0.108 A 
ATOM     21  C   UNL     1       9.113   0.721  23.465  0.00  0.00    +0.026 A 
ATOM     22  C   UNL     1       9.329  -0.249  24.461  0.00  0.00    +0.012 A 
ATOM     23  C   UNL     1       9.812  -1.509  24.088  0.00  0.00    +0.001 A 
ATOM     24  C   UNL     1      10.072  -1.807  22.750  0.00  0.00    +0.002 A 
ATOM     25  C   UNL     1       9.862  -0.859  21.745  0.00  0.00    +0.028 A 
ATOM     26  C   UNL     1       9.387   0.394  22.142  0.00  0.00    +0.066 A 
ATOM     27  N   UNL     1       9.091   1.519  21.423  0.00  0.00    -0.277 N 
ATOM     28  H   UNL     1       9.163   1.644  20.421  0.00  0.00    +0.189 HD
ATOM     29  N   UNL     1       8.665   2.554  22.168  0.00  0.00    -0.174 NA
ENDBRANCH  19  20
ENDBRANCH  18  19
ENDBRANCH   3  18
TORSDOF 6
ENDMDL
