MODEL 1
REMARK VINA RESULT:      -6.8      0.000      0.000
REMARK  Name = 
REMARK  11 active torsions:
REMARK  status: ('A' for Active; 'I' for Inactive)
REMARK    1  A    between atoms: C_1  and  C_2
REMARK    2  A    between atoms: C_2  and  C_3
REMARK    3  A    between atoms: C_3  and  O_4
REMARK    4  A    between atoms: O_4  and  P_5
REMARK    5  A    between atoms: P_5  and  O_6
REMARK    6  A    between atoms: P_5  and  O_8
REMARK    7  A    between atoms: O_8  and  C_9
REMARK    8  A    between atoms: C_9  and  C_10
REMARK    9  A    between atoms: C_13  and  N_21
REMARK   10  A    between atoms: C_15  and  O_17
REMARK   11  A    between atoms: C_18  and  O_20
REMARK                            x       y       z     vdW  Elec       q    Type
REMARK                         _______ _______ _______ _____ _____    ______ ____
ROOT
ATOM      1  C   UNL     1       5.937  -3.524  22.070  0.00  0.00    +0.178 C 
ATOM      2  C   UNL     1       6.660  -4.814  21.677  0.00  0.00    +0.178 C 
ATOM      3  C   UNL     1       6.860  -5.576  22.990  0.00  0.00    +0.195 C 
ATOM      4  C   UNL     1       6.136  -4.719  24.039  0.00  0.00    +0.253 C 
ATOM      5  O   UNL     1       5.264  -3.833  23.309  0.00  0.00    -0.346 OA
ENDROOT
BRANCH   4   6
ATOM      6  N   UNL     1       5.375  -5.484  25.005  0.00  0.00    -0.286 N 
ATOM      7  C   UNL     1       5.811  -5.820  26.259  0.00  0.00    +0.167 A 
ATOM      8  N   UNL     1       7.017  -5.580  26.807  0.00  0.00    -0.216 NA
ATOM      9  C   UNL     1       7.064  -6.061  28.071  0.00  0.00    +0.225 A 
ATOM     10  N   UNL     1       6.104  -6.716  28.760  0.00  0.00    -0.219 NA
ATOM     11  C   UNL     1       4.909  -6.924  28.161  0.00  0.00    +0.147 A 
ATOM     12  N   UNL     1       3.919  -7.590  28.870  0.00  0.00    -0.341 N 
ATOM     13  H   UNL     1       3.203  -7.995  28.277  0.00  0.00    +0.144 HD
ATOM     14  H   UNL     1       4.297  -8.164  29.611  0.00  0.00    +0.144 HD
ATOM     15  C   UNL     1       4.735  -6.469  26.844  0.00  0.00    +0.147 A 
ATOM     16  N   UNL     1       3.672  -6.543  25.966  0.00  0.00    -0.231 NA
ATOM     17  C   UNL     1       4.086  -5.925  24.878  0.00  0.00    +0.203 A 
ENDBRANCH   4   6
BRANCH   2  18
ATOM     18  O   UNL     1       5.817  -5.604  20.819  0.00  0.00    -0.386 OA
ATOM     19  H   UNL     1       5.058  -5.932  21.334  0.00  0.00    +0.210 HD
ENDBRANCH   2  18
BRANCH   3  20
ATOM     20  O   UNL     1       8.250  -5.702  23.301  0.00  0.00    -0.385 OA
ATOM     21  H   UNL     1       8.694  -5.972  22.470  0.00  0.00    +0.210 HD
ENDBRANCH   3  20
BRANCH   1  22
ATOM     22  C   UNL     1       6.859  -2.320  22.292  0.00  0.00    +0.206 C 
BRANCH  22  23
ATOM     23  O   UNL     1       8.218  -2.652  22.061  0.00  0.00    -0.284 OA
BRANCH  23  24
ATOM     24  P   UNL     1       9.311  -1.743  23.046  0.00  0.00    +0.475 P 
ATOM     25  O   UNL     1       9.759  -3.031  23.734  0.00  0.00    -0.227 OA
BRANCH  24  26
ATOM     26  O   UNL     1      10.328  -1.598  21.776  0.00  0.00    -0.302 OA
ATOM     27  H   UNL     1      10.482  -0.636  21.680  0.00  0.00    +0.222 HD
ENDBRANCH  24  26
BRANCH  24  28
ATOM     28  O   UNL     1      10.405  -0.832  24.030  0.00  0.00    -0.287 OA
BRANCH  28  29
ATOM     29  C   UNL     1       9.834   0.350  24.568  0.00  0.00    +0.172 C 
BRANCH  29  31
ATOM     30  C   UNL     1      10.176   1.972  22.655  0.00  0.00    +0.006 C 
ATOM     31  C   UNL     1      10.595   1.570  24.062  0.00  0.00    +0.025 C 
ENDBRANCH  29  31
ENDBRANCH  28  29
ENDBRANCH  24  28
ENDBRANCH  23  24
ENDBRANCH  22  23
ENDBRANCH   1  22
TORSDOF 10
ENDMDL
MODEL 2
REMARK VINA RESULT:      -6.7      2.701      4.071
REMARK  Name = 
REMARK  11 active torsions:
REMARK  status: ('A' for Active; 'I' for Inactive)
REMARK    1  A    between atoms: C_1  and  C_2
REMARK    2  A    between atoms: C_2  and  C_3
REMARK    3  A    between atoms: C_3  and  O_4
REMARK    4  A    between atoms: O_4  and  P_5
REMARK    5  A    between atoms: P_5  and  O_6
REMARK    6  A    between atoms: P_5  and  O_8
REMARK    7  A    between atoms: O_8  and  C_9
REMARK    8  A    between atoms: C_9  and  C_10
REMARK    9  A    between atoms: C_13  and  N_21
REMARK   10  A    between atoms: C_15  and  O_17
REMARK   11  A    between atoms: C_18  and  O_20
REMARK                            x       y       z     vdW  Elec       q    Type
REMARK                         _______ _______ _______ _____ _____    ______ ____
ROOT
ATOM      1  C   UNL     1       8.433  -0.334  22.723  0.00  0.00    +0.178 C 
ATOM      2  C   UNL     1       9.523  -1.409  22.735  0.00  0.00    +0.178 C 
ATOM      3  C   UNL     1       8.879  -2.623  23.409  0.00  0.00    +0.195 C 
ATOM      4  C   UNL     1       7.421  -2.199  23.641  0.00  0.00    +0.253 C 
ATOM      5  O   UNL     1       7.188  -1.062  22.787  0.00  0.00    -0.346 OA
ENDROOT
BRANCH   4   6
ATOM      6  N   UNL     1       6.452  -3.238  23.363  0.00  0.00    -0.286 N 
ATOM      7  C   UNL     1       6.166  -4.288  24.195  0.00  0.00    +0.167 A 
ATOM      8  N   UNL     1       6.753  -4.599  25.366  0.00  0.00    -0.216 NA
ATOM      9  C   UNL     1       6.188  -5.707  25.897  0.00  0.00    +0.225 A 
ATOM     10  N   UNL     1       5.193  -6.470  25.394  0.00  0.00    -0.219 NA
ATOM     11  C   UNL     1       4.635  -6.106  24.217  0.00  0.00    +0.147 A 
ATOM     12  N   UNL     1       3.606  -6.883  23.702  0.00  0.00    -0.341 N 
ATOM     13  H   UNL     1       3.470  -6.761  22.705  0.00  0.00    +0.144 HD
ATOM     14  H   UNL     1       3.620  -7.827  24.063  0.00  0.00    +0.144 HD
ATOM     15  C   UNL     1       5.136  -4.968  23.564  0.00  0.00    +0.147 A 
ATOM     16  N   UNL     1       4.809  -4.360  22.369  0.00  0.00    -0.231 NA
ATOM     17  C   UNL     1       5.607  -3.315  22.289  0.00  0.00    +0.203 A 
ENDBRANCH   4   6
BRANCH   2  18
ATOM     18  O   UNL     1       9.867  -1.770  21.385  0.00  0.00    -0.386 OA
ATOM     19  H   UNL     1       9.622  -2.701  21.233  0.00  0.00    +0.210 HD
ENDBRANCH   2  18
BRANCH   3  20
ATOM     20  O   UNL     1       9.529  -2.924  24.647  0.00  0.00    -0.385 OA
ATOM     21  H   UNL     1      10.367  -3.376  24.415  0.00  0.00    +0.210 HD
ENDBRANCH   3  20
BRANCH   1  22
ATOM     22  C   UNL     1       8.496   0.649  23.898  0.00  0.00    +0.206 C 
BRANCH  22  23
ATOM     23  O   UNL     1       8.389   1.993  23.461  0.00  0.00    -0.284 OA
BRANCH  23  24
ATOM     24  P   UNL     1       9.910   2.816  23.431  0.00  0.00    +0.475 P 
ATOM     25  O   UNL     1      10.544   1.666  24.210  0.00  0.00    -0.227 OA
BRANCH  24  26
ATOM     26  O   UNL     1      10.106   2.390  21.867  0.00  0.00    -0.302 OA
ATOM     27  H   UNL     1       9.254   1.986  21.602  0.00  0.00    +0.222 HD
ENDBRANCH  24  26
BRANCH  24  28
ATOM     28  O   UNL     1      11.432   3.639  23.400  0.00  0.00    -0.287 OA
BRANCH  28  29
ATOM     29  C   UNL     1      11.320   5.044  23.568  0.00  0.00    +0.172 C 
BRANCH  29  31
ATOM     30  C   UNL     1      13.329   5.635  22.147  0.00  0.00    +0.006 C 
ATOM     31  C   UNL     1      12.703   5.682  23.533  0.00  0.00    +0.025 C 
ENDBRANCH  29  31
ENDBRANCH  28  29
ENDBRANCH  24  28
ENDBRANCH  23  24
ENDBRANCH  22  23
ENDBRANCH   1  22
TORSDOF 10
ENDMDL
MODEL 3
REMARK VINA RESULT:      -6.6      4.206      7.848
REMARK  Name = 
REMARK  11 active torsions:
REMARK  status: ('A' for Active; 'I' for Inactive)
REMARK    1  A    between atoms: C_1  and  C_2
REMARK    2  A    between atoms: C_2  and  C_3
REMARK    3  A    between atoms: C_3  and  O_4
REMARK    4  A    between atoms: O_4  and  P_5
REMARK    5  A    between atoms: P_5  and  O_6
REMARK    6  A    between atoms: P_5  and  O_8
REMARK    7  A    between atoms: O_8  and  C_9
REMARK    8  A    between atoms: C_9  and  C_10
REMARK    9  A    between atoms: C_13  and  N_21
REMARK   10  A    between atoms: C_15  and  O_17
REMARK   11  A    between atoms: C_18  and  O_20
REMARK                            x       y       z     vdW  Elec       q    Type
REMARK                         _______ _______ _______ _____ _____    ______ ____
ROOT
ATOM      1  C   UNL     1       8.446  -4.260  26.575  0.00  0.00    +0.178 C 
ATOM      2  C   UNL     1       8.828  -5.275  25.495  0.00  0.00    +0.178 C 
ATOM      3  C   UNL     1       8.609  -4.546  24.167  0.00  0.00    +0.195 C 
ATOM      4  C   UNL     1       8.220  -3.119  24.578  0.00  0.00    +0.253 C 
ATOM      5  O   UNL     1       8.619  -2.968  25.954  0.00  0.00    -0.346 OA
ENDROOT
BRANCH   4   6
ATOM      6  N   UNL     1       8.827  -2.084  23.767  0.00  0.00    -0.286 N 
ATOM      7  C   UNL     1       8.216  -0.914  23.400  0.00  0.00    +0.167 A 
ATOM      8  N   UNL     1       6.949  -0.530  23.647  0.00  0.00    -0.216 NA
ATOM      9  C   UNL     1       6.720   0.698  23.128  0.00  0.00    +0.225 A 
ATOM     10  N   UNL     1       7.564   1.490  22.432  0.00  0.00    -0.219 NA
ATOM     11  C   UNL     1       8.827   1.055  22.218  0.00  0.00    +0.147 A 
ATOM     12  N   UNL     1       9.698   1.872  21.509  0.00  0.00    -0.341 N 
ATOM     13  H   UNL     1      10.483   1.370  21.109  0.00  0.00    +0.144 HD
ATOM     14  H   UNL     1       9.212   2.533  20.920  0.00  0.00    +0.144 HD
ATOM     15  C   UNL     1       9.190  -0.208  22.710  0.00  0.00    +0.147 A 
ATOM     16  N   UNL     1      10.363  -0.933  22.643  0.00  0.00    -0.231 NA
ATOM     17  C   UNL     1      10.114  -2.046  23.303  0.00  0.00    +0.203 A 
ENDBRANCH   4   6
BRANCH   2  18
ATOM     18  O   UNL     1      10.224  -5.604  25.607  0.00  0.00    -0.386 OA
ATOM     19  H   UNL     1      10.377  -6.479  25.205  0.00  0.00    +0.210 HD
ENDBRANCH   2  18
BRANCH   3  20
ATOM     20  O   UNL     1       7.565  -5.165  23.411  0.00  0.00    -0.385 OA
ATOM     21  H   UNL     1       8.005  -5.669  22.694  0.00  0.00    +0.210 HD
ENDBRANCH   3  20
BRANCH   1  22
ATOM     22  C   UNL     1       7.003  -4.380  27.079  0.00  0.00    +0.206 C 
BRANCH  22  23
ATOM     23  O   UNL     1       6.578  -5.732  27.130  0.00  0.00    -0.284 OA
BRANCH  23  24
ATOM     24  P   UNL     1       4.998  -5.966  26.466  0.00  0.00    +0.475 P 
ATOM     25  O   UNL     1       5.616  -6.231  25.095  0.00  0.00    -0.227 OA
BRANCH  24  26
ATOM     26  O   UNL     1       4.929  -7.443  27.161  0.00  0.00    -0.302 OA
ATOM     27  H   UNL     1       5.765  -7.528  27.664  0.00  0.00    +0.222 HD
ENDBRANCH  24  26
BRANCH  24  28
ATOM     28  O   UNL     1       3.417  -6.202  25.803  0.00  0.00    -0.287 OA
BRANCH  28  29
ATOM     29  C   UNL     1       3.198  -7.515  25.312  0.00  0.00    +0.172 C 
BRANCH  29  31
ATOM     30  C   UNL     1       2.590  -6.106  23.300  0.00  0.00    +0.006 C 
ATOM     31  C   UNL     1       2.445  -7.455  23.989  0.00  0.00    +0.025 C 
ENDBRANCH  29  31
ENDBRANCH  28  29
ENDBRANCH  24  28
ENDBRANCH  23  24
ENDBRANCH  22  23
ENDBRANCH   1  22
TORSDOF 10
ENDMDL
MODEL 4
REMARK VINA RESULT:      -6.6      4.397      7.824
REMARK  Name = 
REMARK  11 active torsions:
REMARK  status: ('A' for Active; 'I' for Inactive)
REMARK    1  A    between atoms: C_1  and  C_2
REMARK    2  A    between atoms: C_2  and  C_3
REMARK    3  A    between atoms: C_3  and  O_4
REMARK    4  A    between atoms: O_4  and  P_5
REMARK    5  A    between atoms: P_5  and  O_6
REMARK    6  A    between atoms: P_5  and  O_8
REMARK    7  A    between atoms: O_8  and  C_9
REMARK    8  A    between atoms: C_9  and  C_10
REMARK    9  A    between atoms: C_13  and  N_21
REMARK   10  A    between atoms: C_15  and  O_17
REMARK   11  A    between atoms: C_18  and  O_20
REMARK                            x       y       z     vdW  Elec       q    Type
REMARK                         _______ _______ _______ _____ _____    ______ ____
ROOT
ATOM      1  C   UNL     1       8.511  -4.319  26.533  0.00  0.00    +0.178 C 
ATOM      2  C   UNL     1       8.776  -5.320  25.406  0.00  0.00    +0.178 C 
ATOM      3  C   UNL     1       8.504  -4.546  24.113  0.00  0.00    +0.195 C 
ATOM      4  C   UNL     1       8.207  -3.115  24.583  0.00  0.00    +0.253 C 
ATOM      5  O   UNL     1       8.701  -3.019  25.934  0.00  0.00    -0.346 OA
ENDROOT
BRANCH   4   6
ATOM      6  N   UNL     1       8.807  -2.085  23.760  0.00  0.00    -0.286 N 
ATOM      7  C   UNL     1       8.207  -0.901  23.424  0.00  0.00    +0.167 A 
ATOM      8  N   UNL     1       6.958  -0.493  23.719  0.00  0.00    -0.216 NA
ATOM      9  C   UNL     1       6.736   0.744  23.218  0.00  0.00    +0.225 A 
ATOM     10  N   UNL     1       7.571   1.525  22.498  0.00  0.00    -0.219 NA
ATOM     11  C   UNL     1       8.816   1.066  22.237  0.00  0.00    +0.147 A 
ATOM     12  N   UNL     1       9.679   1.871  21.504  0.00  0.00    -0.341 N 
ATOM     13  H   UNL     1      10.438   1.357  21.071  0.00  0.00    +0.144 HD
ATOM     14  H   UNL     1       9.186   2.547  20.938  0.00  0.00    +0.144 HD
ATOM     15  C   UNL     1       9.170  -0.209  22.706  0.00  0.00    +0.147 A 
ATOM     16  N   UNL     1      10.325  -0.956  22.591  0.00  0.00    -0.231 NA
ATOM     17  C   UNL     1      10.076  -2.070  23.251  0.00  0.00    +0.203 A 
ENDBRANCH   4   6
BRANCH   2  18
ATOM     18  O   UNL     1      10.160  -5.712  25.417  0.00  0.00    -0.386 OA
ATOM     19  H   UNL     1      10.671  -5.087  24.872  0.00  0.00    +0.210 HD
ENDBRANCH   2  18
BRANCH   3  20
ATOM     20  O   UNL     1       7.386  -5.098  23.413  0.00  0.00    -0.385 OA
ATOM     21  H   UNL     1       7.744  -5.806  22.838  0.00  0.00    +0.210 HD
ENDBRANCH   3  20
BRANCH   1  22
ATOM     22  C   UNL     1       7.100  -4.390  27.129  0.00  0.00    +0.206 C 
BRANCH  22  23
ATOM     23  O   UNL     1       6.904  -5.583  27.869  0.00  0.00    -0.284 OA
BRANCH  23  24
ATOM     24  P   UNL     1       5.306  -6.224  27.705  0.00  0.00    +0.475 P 
ATOM     25  O   UNL     1       5.603  -6.584  26.251  0.00  0.00    -0.227 OA
BRANCH  24  26
ATOM     26  O   UNL     1       5.756  -7.551  28.542  0.00  0.00    -0.302 OA
ATOM     27  H   UNL     1       5.046  -8.207  28.384  0.00  0.00    +0.222 HD
ENDBRANCH  24  26
BRANCH  24  28
ATOM     28  O   UNL     1       3.707  -6.865  27.542  0.00  0.00    -0.287 OA
BRANCH  28  29
ATOM     29  C   UNL     1       3.175  -6.735  26.233  0.00  0.00    +0.172 C 
BRANCH  29  31
ATOM     30  C   UNL     1       2.707  -4.446  25.259  0.00  0.00    +0.006 C 
ATOM     31  C   UNL     1       2.215  -5.553  26.180  0.00  0.00    +0.025 C 
ENDBRANCH  29  31
ENDBRANCH  28  29
ENDBRANCH  24  28
ENDBRANCH  23  24
ENDBRANCH  22  23
ENDBRANCH   1  22
TORSDOF 10
ENDMDL
MODEL 5
REMARK VINA RESULT:      -6.5      1.825      2.412
REMARK  Name = 
REMARK  11 active torsions:
REMARK  status: ('A' for Active; 'I' for Inactive)
REMARK    1  A    between atoms: C_1  and  C_2
REMARK    2  A    between atoms: C_2  and  C_3
REMARK    3  A    between atoms: C_3  and  O_4
REMARK    4  A    between atoms: O_4  and  P_5
REMARK    5  A    between atoms: P_5  and  O_6
REMARK    6  A    between atoms: P_5  and  O_8
REMARK    7  A    between atoms: O_8  and  C_9
REMARK    8  A    between atoms: C_9  and  C_10
REMARK    9  A    between atoms: C_13  and  N_21
REMARK   10  A    between atoms: C_15  and  O_17
REMARK   11  A    between atoms: C_18  and  O_20
REMARK                            x       y       z     vdW  Elec       q    Type
REMARK                         _______ _______ _______ _____ _____    ______ ____
ROOT
ATOM      1  C   UNL     1       8.122  -4.355  23.893  0.00  0.00    +0.178 C 
ATOM      2  C   UNL     1       9.139  -5.106  24.757  0.00  0.00    +0.178 C 
ATOM      3  C   UNL     1       8.416  -5.381  26.078  0.00  0.00    +0.195 C 
ATOM      4  C   UNL     1       6.989  -4.865  25.843  0.00  0.00    +0.253 C 
ATOM      5  O   UNL     1       6.832  -4.738  24.416  0.00  0.00    -0.346 OA
ENDROOT
BRANCH   4   6
ATOM      6  N   UNL     1       5.954  -5.722  26.383  0.00  0.00    -0.286 N 
ATOM      7  C   UNL     1       5.709  -5.911  27.718  0.00  0.00    +0.167 A 
ATOM      8  N   UNL     1       6.397  -5.415  28.763  0.00  0.00    -0.216 NA
ATOM      9  C   UNL     1       5.843  -5.821  29.928  0.00  0.00    +0.225 A 
ATOM     10  N   UNL     1       4.771  -6.622  30.118  0.00  0.00    -0.219 NA
ATOM     11  C   UNL     1       4.114  -7.086  29.030  0.00  0.00    +0.147 A 
ATOM     12  N   UNL     1       3.008  -7.903  29.223  0.00  0.00    -0.341 N 
ATOM     13  H   UNL     1       2.778  -8.467  28.412  0.00  0.00    +0.144 HD
ATOM     14  H   UNL     1       3.018  -8.359  30.125  0.00  0.00    +0.144 HD
ATOM     15  C   UNL     1       4.594  -6.733  27.759  0.00  0.00    +0.147 A 
ATOM     16  N   UNL     1       4.175  -7.053  26.483  0.00  0.00    -0.231 NA
ATOM     17  C   UNL     1       5.004  -6.414  25.683  0.00  0.00    +0.203 A 
ENDBRANCH   4   6
BRANCH   2  18
ATOM     18  O   UNL     1       9.462  -6.368  24.145  0.00  0.00    -0.386 OA
ATOM     19  H   UNL     1       9.713  -7.002  24.841  0.00  0.00    +0.210 HD
ENDBRANCH   2  18
BRANCH   3  20
ATOM     20  O   UNL     1       9.042  -4.683  27.158  0.00  0.00    -0.385 OA
ATOM     21  H   UNL     1       8.383  -4.038  27.488  0.00  0.00    +0.210 HD
ENDBRANCH   3  20
BRANCH   1  22
ATOM     22  C   UNL     1       8.247  -2.828  23.945  0.00  0.00    +0.206 C 
BRANCH  22  23
ATOM     23  O   UNL     1       8.325  -2.266  22.647  0.00  0.00    -0.284 OA
BRANCH  23  24
ATOM     24  P   UNL     1       9.340  -0.867  22.577  0.00  0.00    +0.475 P 
ATOM     25  O   UNL     1       9.933  -1.234  23.936  0.00  0.00    -0.227 OA
BRANCH  24  26
ATOM     26  O   UNL     1      10.308  -1.627  21.504  0.00  0.00    -0.302 OA
ATOM     27  H   UNL     1      10.340  -1.035  20.724  0.00  0.00    +0.222 HD
ENDBRANCH  24  26
BRANCH  24  28
ATOM     28  O   UNL     1      10.356   0.533  22.507  0.00  0.00    -0.287 OA
BRANCH  28  29
ATOM     29  C   UNL     1       9.684   1.698  22.057  0.00  0.00    +0.172 C 
BRANCH  29  31
ATOM     30  C   UNL     1       7.358   2.684  21.900  0.00  0.00    +0.006 C 
ATOM     31  C   UNL     1       8.194   1.413  21.908  0.00  0.00    +0.025 C 
ENDBRANCH  29  31
ENDBRANCH  28  29
ENDBRANCH  24  28
ENDBRANCH  23  24
ENDBRANCH  22  23
ENDBRANCH   1  22
TORSDOF 10
ENDMDL
MODEL 6
REMARK VINA RESULT:      -6.3      4.036      7.293
REMARK  Name = 
REMARK  11 active torsions:
REMARK  status: ('A' for Active; 'I' for Inactive)
REMARK    1  A    between atoms: C_1  and  C_2
REMARK    2  A    between atoms: C_2  and  C_3
REMARK    3  A    between atoms: C_3  and  O_4
REMARK    4  A    between atoms: O_4  and  P_5
REMARK    5  A    between atoms: P_5  and  O_6
REMARK    6  A    between atoms: P_5  and  O_8
REMARK    7  A    between atoms: O_8  and  C_9
REMARK    8  A    between atoms: C_9  and  C_10
REMARK    9  A    between atoms: C_13  and  N_21
REMARK   10  A    between atoms: C_15  and  O_17
REMARK   11  A    between atoms: C_18  and  O_20
REMARK                            x       y       z     vdW  Elec       q    Type
REMARK                         _______ _______ _______ _____ _____    ______ ____
ROOT
ATOM      1  C   UNL     1       6.856  -4.758  24.283  0.00  0.00    +0.178 C 
ATOM      2  C   UNL     1       7.813  -5.200  25.392  0.00  0.00    +0.178 C 
ATOM      3  C   UNL     1       9.059  -4.328  25.216  0.00  0.00    +0.195 C 
ATOM      4  C   UNL     1       8.688  -3.362  24.082  0.00  0.00    +0.253 C 
ATOM      5  O   UNL     1       7.252  -3.407  23.962  0.00  0.00    -0.346 OA
ENDROOT
BRANCH   4   6
ATOM      6  N   UNL     1       9.127  -1.999  24.298  0.00  0.00    -0.286 N 
ATOM      7  C   UNL     1       9.321  -1.071  23.310  0.00  0.00    +0.167 A 
ATOM      8  N   UNL     1       9.214  -1.245  21.979  0.00  0.00    -0.216 NA
ATOM      9  C   UNL     1       9.475  -0.087  21.329  0.00  0.00    +0.225 A 
ATOM     10  N   UNL     1       9.819   1.111  21.848  0.00  0.00    -0.219 NA
ATOM     11  C   UNL     1       9.904   1.230  23.193  0.00  0.00    +0.147 A 
ATOM     12  N   UNL     1      10.250   2.464  23.729  0.00  0.00    -0.341 N 
ATOM     13  H   UNL     1      10.613   2.404  24.675  0.00  0.00    +0.144 HD
ATOM     14  H   UNL     1      10.749   3.043  23.069  0.00  0.00    +0.144 HD
ATOM     15  C   UNL     1       9.655   0.095  23.981  0.00  0.00    +0.147 A 
ATOM     16  N   UNL     1       9.682  -0.117  25.344  0.00  0.00    -0.231 NA
ATOM     17  C   UNL     1       9.343  -1.381  25.499  0.00  0.00    +0.203 A 
ENDBRANCH   4   6
BRANCH   2  18
ATOM     18  O   UNL     1       7.236  -4.912  26.678  0.00  0.00    -0.386 OA
ATOM     19  H   UNL     1       6.271  -5.036  26.628  0.00  0.00    +0.210 HD
ENDBRANCH   2  18
BRANCH   3  20
ATOM     20  O   UNL     1      10.193  -5.123  24.863  0.00  0.00    -0.385 OA
ATOM     21  H   UNL     1      10.557  -4.735  24.040  0.00  0.00    +0.210 HD
ENDBRANCH   3  20
BRANCH   1  22
ATOM     22  C   UNL     1       6.919  -5.610  23.010  0.00  0.00    +0.206 C 
BRANCH  22  23
ATOM     23  O   UNL     1       5.625  -5.880  22.497  0.00  0.00    -0.284 OA
BRANCH  23  24
ATOM     24  P   UNL     1       4.395  -5.833  23.711  0.00  0.00    +0.475 P 
ATOM     25  O   UNL     1       3.329  -5.730  22.623  0.00  0.00    -0.227 OA
BRANCH  24  26
ATOM     26  O   UNL     1       4.569  -7.440  23.945  0.00  0.00    -0.302 OA
ATOM     27  H   UNL     1       4.364  -7.585  24.892  0.00  0.00    +0.222 HD
ENDBRANCH  24  26
BRANCH  24  28
ATOM     28  O   UNL     1       3.164  -5.787  24.927  0.00  0.00    -0.287 OA
BRANCH  28  29
ATOM     29  C   UNL     1       3.357  -4.763  25.890  0.00  0.00    +0.172 C 
BRANCH  29  31
ATOM     30  C   UNL     1       4.348  -2.439  26.043  0.00  0.00    +0.006 C 
ATOM     31  C   UNL     1       3.563  -3.425  25.190  0.00  0.00    +0.025 C 
ENDBRANCH  29  31
ENDBRANCH  28  29
ENDBRANCH  24  28
ENDBRANCH  23  24
ENDBRANCH  22  23
ENDBRANCH   1  22
TORSDOF 10
ENDMDL
MODEL 7
REMARK VINA RESULT:      -6.3      2.445      3.696
REMARK  Name = 
REMARK  11 active torsions:
REMARK  status: ('A' for Active; 'I' for Inactive)
REMARK    1  A    between atoms: C_1  and  C_2
REMARK    2  A    between atoms: C_2  and  C_3
REMARK    3  A    between atoms: C_3  and  O_4
REMARK    4  A    between atoms: O_4  and  P_5
REMARK    5  A    between atoms: P_5  and  O_6
REMARK    6  A    between atoms: P_5  and  O_8
REMARK    7  A    between atoms: O_8  and  C_9
REMARK    8  A    between atoms: C_9  and  C_10
REMARK    9  A    between atoms: C_13  and  N_21
REMARK   10  A    between atoms: C_15  and  O_17
REMARK   11  A    between atoms: C_18  and  O_20
REMARK                            x       y       z     vdW  Elec       q    Type
REMARK                         _______ _______ _______ _____ _____    ______ ____
ROOT
ATOM      1  C   UNL     1       8.887  -3.289  25.246  0.00  0.00    +0.178 C 
ATOM      2  C   UNL     1       9.367  -4.598  25.877  0.00  0.00    +0.178 C 
ATOM      3  C   UNL     1       8.100  -5.436  26.071  0.00  0.00    +0.195 C 
ATOM      4  C   UNL     1       6.987  -4.593  25.433  0.00  0.00    +0.253 C 
ATOM      5  O   UNL     1       7.642  -3.621  24.594  0.00  0.00    -0.346 OA
ENDROOT
BRANCH   4   6
ATOM      6  N   UNL     1       6.035  -5.360  24.657  0.00  0.00    -0.286 N 
ATOM      7  C   UNL     1       4.980  -6.061  25.178  0.00  0.00    +0.167 A 
ATOM      8  N   UNL     1       4.663  -6.233  26.476  0.00  0.00    -0.216 NA
ATOM      9  C   UNL     1       3.543  -6.983  26.591  0.00  0.00    +0.225 A 
ATOM     10  N   UNL     1       2.796  -7.539  25.612  0.00  0.00    -0.219 NA
ATOM     11  C   UNL     1       3.159  -7.327  24.326  0.00  0.00    +0.147 A 
ATOM     12  N   UNL     1       2.388  -7.891  23.318  0.00  0.00    -0.341 N 
ATOM     13  H   UNL     1       2.880  -7.977  22.435  0.00  0.00    +0.144 HD
ATOM     14  H   UNL     1       1.856  -8.688  23.640  0.00  0.00    +0.144 HD
ATOM     15  C   UNL     1       4.308  -6.560  24.074  0.00  0.00    +0.147 A 
ATOM     16  N   UNL     1       4.942  -6.189  22.906  0.00  0.00    -0.231 NA
ATOM     17  C   UNL     1       5.966  -5.454  23.294  0.00  0.00    +0.203 A 
ENDBRANCH   4   6
BRANCH   2  18
ATOM     18  O   UNL     1      10.234  -5.292  24.963  0.00  0.00    -0.386 OA
ATOM     19  H   UNL     1      10.112  -6.252  25.076  0.00  0.00    +0.210 HD
ENDBRANCH   2  18
BRANCH   3  20
ATOM     20  O   UNL     1       7.843  -5.660  27.460  0.00  0.00    -0.385 OA
ATOM     21  H   UNL     1       7.129  -6.329  27.503  0.00  0.00    +0.210 HD
ENDBRANCH   3  20
BRANCH   1  22
ATOM     22  C   UNL     1       8.638  -2.154  26.246  0.00  0.00    +0.206 C 
BRANCH  22  23
ATOM     23  O   UNL     1       7.693  -1.220  25.751  0.00  0.00    -0.284 OA
BRANCH  23  24
ATOM     24  P   UNL     1       8.425   0.224  25.145  0.00  0.00    +0.475 P 
ATOM     25  O   UNL     1       7.541   1.057  26.071  0.00  0.00    -0.227 OA
BRANCH  24  26
ATOM     26  O   UNL     1       9.758  -0.081  26.039  0.00  0.00    -0.302 OA
ATOM     27  H   UNL     1       9.432  -0.558  26.830  0.00  0.00    +0.222 HD
ENDBRANCH  24  26
BRANCH  24  28
ATOM     28  O   UNL     1       9.159   1.669  24.539  0.00  0.00    -0.287 OA
BRANCH  28  29
ATOM     29  C   UNL     1       8.863   1.926  23.175  0.00  0.00    +0.172 C 
BRANCH  29  31
ATOM     30  C   UNL     1       9.434   0.179  21.436  0.00  0.00    +0.006 C 
ATOM     31  C   UNL     1       9.949   1.329  22.288  0.00  0.00    +0.025 C 
ENDBRANCH  29  31
ENDBRANCH  28  29
ENDBRANCH  24  28
ENDBRANCH  23  24
ENDBRANCH  22  23
ENDBRANCH   1  22
TORSDOF 10
ENDMDL
MODEL 8
REMARK VINA RESULT:      -6.3      5.018      8.482
REMARK  Name = 
REMARK  11 active torsions:
REMARK  status: ('A' for Active; 'I' for Inactive)
REMARK    1  A    between atoms: C_1  and  C_2
REMARK    2  A    between atoms: C_2  and  C_3
REMARK    3  A    between atoms: C_3  and  O_4
REMARK    4  A    between atoms: O_4  and  P_5
REMARK    5  A    between atoms: P_5  and  O_6
REMARK    6  A    between atoms: P_5  and  O_8
REMARK    7  A    between atoms: O_8  and  C_9
REMARK    8  A    between atoms: C_9  and  C_10
REMARK    9  A    between atoms: C_13  and  N_21
REMARK   10  A    between atoms: C_15  and  O_17
REMARK   11  A    between atoms: C_18  and  O_20
REMARK                            x       y       z     vdW  Elec       q    Type
REMARK                         _______ _______ _______ _____ _____    ______ ____
ROOT
ATOM      1  C   UNL     1      10.072  -1.259  23.369  0.00  0.00    +0.178 C 
ATOM      2  C   UNL     1       8.980  -1.029  22.321  0.00  0.00    +0.178 C 
ATOM      3  C   UNL     1       8.252   0.239  22.775  0.00  0.00    +0.195 C 
ATOM      4  C   UNL     1       9.047   0.716  23.998  0.00  0.00    +0.253 C 
ATOM      5  O   UNL     1      10.321   0.043  23.944  0.00  0.00    -0.346 OA
ENDROOT
BRANCH   4   6
ATOM      6  N   UNL     1       9.245   2.150  24.052  0.00  0.00    -0.286 N 
ATOM      7  C   UNL     1       8.625   2.995  24.934  0.00  0.00    +0.167 A 
ATOM      8  N   UNL     1       7.688   2.690  25.852  0.00  0.00    -0.216 NA
ATOM      9  C   UNL     1       7.325   3.796  26.541  0.00  0.00    +0.225 A 
ATOM     10  N   UNL     1       7.765   5.065  26.390  0.00  0.00    -0.219 NA
ATOM     11  C   UNL     1       8.712   5.312  25.457  0.00  0.00    +0.147 A 
ATOM     12  N   UNL     1       9.171   6.614  25.305  0.00  0.00    -0.341 N 
ATOM     13  H   UNL     1       9.606   6.785  24.406  0.00  0.00    +0.144 HD
ATOM     14  H   UNL     1       8.508   7.297  25.645  0.00  0.00    +0.144 HD
ATOM     15  C   UNL     1       9.173   4.241  24.674  0.00  0.00    +0.147 A 
ATOM     16  N   UNL     1      10.093   4.166  23.648  0.00  0.00    -0.231 NA
ATOM     17  C   UNL     1      10.123   2.892  23.311  0.00  0.00    +0.203 A 
ENDBRANCH   4   6
BRANCH   2  18
ATOM     18  O   UNL     1       9.581  -0.772  21.039  0.00  0.00    -0.386 OA
ATOM     19  H   UNL     1       8.972  -1.067  20.339  0.00  0.00    +0.210 HD
ENDBRANCH   2  18
BRANCH   3  20
ATOM     20  O   UNL     1       6.896  -0.050  23.126  0.00  0.00    -0.385 OA
ATOM     21  H   UNL     1       6.758  -1.001  22.933  0.00  0.00    +0.210 HD
ENDBRANCH   3  20
BRANCH   1  22
ATOM     22  C   UNL     1       9.684  -2.231  24.490  0.00  0.00    +0.206 C 
BRANCH  22  23
ATOM     23  O   UNL     1       9.936  -3.577  24.124  0.00  0.00    -0.284 OA
BRANCH  23  24
ATOM     24  P   UNL     1       9.070  -4.714  25.099  0.00  0.00    +0.475 P 
ATOM     25  O   UNL     1       8.597  -5.431  23.836  0.00  0.00    -0.227 OA
BRANCH  24  26
ATOM     26  O   UNL     1      10.475  -5.457  25.474  0.00  0.00    -0.302 OA
ATOM     27  H   UNL     1      10.224  -6.198  26.063  0.00  0.00    +0.222 HD
ENDBRANCH  24  26
BRANCH  24  28
ATOM     28  O   UNL     1       8.205  -5.851  26.074  0.00  0.00    -0.287 OA
BRANCH  28  29
ATOM     29  C   UNL     1       7.284  -5.246  26.968  0.00  0.00    +0.172 C 
BRANCH  29  31
ATOM     30  C   UNL     1       5.157  -6.516  26.447  0.00  0.00    +0.006 C 
ATOM     31  C   UNL     1       5.901  -5.193  26.330  0.00  0.00    +0.025 C 
ENDBRANCH  29  31
ENDBRANCH  28  29
ENDBRANCH  24  28
ENDBRANCH  23  24
ENDBRANCH  22  23
ENDBRANCH   1  22
TORSDOF 10
ENDMDL
MODEL 9
REMARK VINA RESULT:      -6.3      1.120      1.896
REMARK  Name = 
REMARK  11 active torsions:
REMARK  status: ('A' for Active; 'I' for Inactive)
REMARK    1  A    between atoms: C_1  and  C_2
REMARK    2  A    between atoms: C_2  and  C_3
REMARK    3  A    between atoms: C_3  and  O_4
REMARK    4  A    between atoms: O_4  and  P_5
REMARK    5  A    between atoms: P_5  and  O_6
REMARK    6  A    between atoms: P_5  and  O_8
REMARK    7  A    between atoms: O_8  and  C_9
REMARK    8  A    between atoms: C_9  and  C_10
REMARK    9  A    between atoms: C_13  and  N_21
REMARK   10  A    between atoms: C_15  and  O_17
REMARK   11  A    between atoms: C_18  and  O_20
REMARK                            x       y       z     vdW  Elec       q    Type
REMARK                         _______ _______ _______ _____ _____    ______ ____
ROOT
ATOM      1  C   UNL     1       5.745  -2.785  23.241  0.00  0.00    +0.178 C 
ATOM      2  C   UNL     1       6.218  -4.078  22.573  0.00  0.00    +0.178 C 
ATOM      3  C   UNL     1       6.959  -4.847  23.670  0.00  0.00    +0.195 C 
ATOM      4  C   UNL     1       6.765  -3.990  24.929  0.00  0.00    +0.253 C 
ATOM      5  O   UNL     1       5.670  -3.096  24.649  0.00  0.00    -0.346 OA
ENDROOT
BRANCH   4   6
ATOM      6  N   UNL     1       6.489  -4.755  26.128  0.00  0.00    -0.286 N 
ATOM      7  C   UNL     1       5.288  -5.342  26.425  0.00  0.00    +0.167 A 
ATOM      8  N   UNL     1       4.139  -5.275  25.726  0.00  0.00    -0.216 NA
ATOM      9  C   UNL     1       3.172  -5.996  26.338  0.00  0.00    +0.225 A 
ATOM     10  N   UNL     1       3.245  -6.697  27.491  0.00  0.00    -0.219 NA
ATOM     11  C   UNL     1       4.427  -6.734  28.148  0.00  0.00    +0.147 A 
ATOM     12  N   UNL     1       4.506  -7.460  29.329  0.00  0.00    -0.341 N 
ATOM     13  H   UNL     1       5.281  -7.183  29.920  0.00  0.00    +0.144 HD
ATOM     14  H   UNL     1       3.602  -7.584  29.765  0.00  0.00    +0.144 HD
ATOM     15  C   UNL     1       5.512  -6.024  27.611  0.00  0.00    +0.147 A 
ATOM     16  N   UNL     1       6.812  -5.846  28.039  0.00  0.00    -0.231 NA
ATOM     17  C   UNL     1       7.374  -5.093  27.115  0.00  0.00    +0.203 A 
ENDBRANCH   4   6
BRANCH   2  18
ATOM     18  O   UNL     1       5.082  -4.859  22.161  0.00  0.00    -0.386 OA
ATOM     19  H   UNL     1       4.645  -4.413  21.412  0.00  0.00    +0.210 HD
ENDBRANCH   2  18
BRANCH   3  20
ATOM     20  O   UNL     1       8.346  -4.983  23.351  0.00  0.00    -0.385 OA
ATOM     21  H   UNL     1       8.737  -5.544  24.053  0.00  0.00    +0.210 HD
ENDBRANCH   3  20
BRANCH   1  22
ATOM     22  C   UNL     1       6.682  -1.588  23.045  0.00  0.00    +0.206 C 
BRANCH  22  23
ATOM     23  O   UNL     1       7.823  -1.937  22.280  0.00  0.00    -0.284 OA
BRANCH  23  24
ATOM     24  P   UNL     1       9.249  -1.091  22.772  0.00  0.00    +0.475 P 
ATOM     25  O   UNL     1       9.481  -2.126  23.871  0.00  0.00    -0.227 OA
BRANCH  24  26
ATOM     26  O   UNL     1      10.049  -1.696  21.483  0.00  0.00    -0.302 OA
ATOM     27  H   UNL     1      10.183  -2.644  21.687  0.00  0.00    +0.222 HD
ENDBRANCH  24  26
BRANCH  24  28
ATOM     28  O   UNL     1      10.677  -0.244  23.264  0.00  0.00    -0.287 OA
BRANCH  28  29
ATOM     29  C   UNL     1      10.576   0.332  24.557  0.00  0.00    +0.172 C 
BRANCH  29  31
ATOM     30  C   UNL     1      10.642   2.617  23.471  0.00  0.00    +0.006 C 
ATOM     31  C   UNL     1       9.929   1.708  24.462  0.00  0.00    +0.025 C 
ENDBRANCH  29  31
ENDBRANCH  28  29
ENDBRANCH  24  28
ENDBRANCH  23  24
ENDBRANCH  22  23
ENDBRANCH   1  22
TORSDOF 10
ENDMDL
