MODEL 1
REMARK VINA RESULT:      -7.4      0.000      0.000
REMARK  Name = 
REMARK  15 active torsions:
REMARK  status: ('A' for Active; 'I' for Inactive)
REMARK    1  A    between atoms: C_1  and  O_2
REMARK    2  A    between atoms: O_2  and  C_3
REMARK    3  A    between atoms: C_3  and  C_5
REMARK    4  A    between atoms: C_6  and  C_7
REMARK    5  A    between atoms: C_9  and  C_10
REMARK    6  A    between atoms: C_11  and  C_22
REMARK    7  A    between atoms: C_12  and  C_13
REMARK    8  A    between atoms: C_17  and  N_19
REMARK    9  A    between atoms: C_22  and  O_24
REMARK   10  A    between atoms: O_24  and  C_25
REMARK   11  A    between atoms: C_25  and  C_26
REMARK   12  A    between atoms: C_26  and  C_27
REMARK   13  A    between atoms: C_27  and  N_28
REMARK   14  A    between atoms: C_31  and  C_34
REMARK   15  A    between atoms: C_31  and  C_40
REMARK                            x       y       z     vdW  Elec       q    Type
REMARK                         _______ _______ _______ _____ _____    ______ ____
ROOT
ATOM      1  C   UNL     1       3.235  -2.485  25.952  0.00  0.00    +0.338 C 
ATOM      2  O   UNL     1       2.305  -2.911  25.285  0.00  0.00    -0.245 OA
ENDROOT
BRANCH   1   5
ATOM      3  C   UNL     1       6.477  -4.332  27.188  0.00  0.00    +0.065 C 
ATOM      4  C   UNL     1       5.675  -3.231  26.476  0.00  0.00    +0.096 C 
ATOM      5  C   UNL     1       4.164  -3.325  26.747  0.00  0.00    +0.065 C 
ATOM      6  C   UNL     1       3.667  -4.191  27.658  0.00  0.00    +0.016 C 
ATOM      7  C   UNL     1       2.198  -4.366  27.955  0.00  0.00    +0.061 C 
ATOM      8  N   UNL     1       4.532  -4.991  28.378  0.00  0.00    -0.321 N 
ATOM      9  H   UNL     1       4.114  -5.689  28.988  0.00  0.00    +0.152 HD
ATOM     10  C   UNL     1       5.883  -5.135  28.104  0.00  0.00    +0.016 C 
ATOM     11  C   UNL     1       6.549  -6.232  28.901  0.00  0.00    +0.061 C 
BRANCH   4  12
ATOM     12  C   UNL     1       5.944  -3.187  24.970  0.00  0.00    -0.029 A 
ATOM     13  C   UNL     1       5.608  -4.280  24.159  0.00  0.00    +0.088 A 
ATOM     14  C   UNL     1       5.742  -4.181  22.766  0.00  0.00    +0.273 A 
ATOM     15  C   UNL     1       6.251  -3.016  22.176  0.00  0.00    +0.084 A 
ATOM     16  C   UNL     1       6.618  -1.941  22.987  0.00  0.00    +0.007 A 
ATOM     17  C   UNL     1       6.459  -2.024  24.370  0.00  0.00    +0.005 A 
BRANCH  14  18
ATOM     18  N   UNL     1       5.309  -5.299  21.920  0.00  0.00    +0.080 N 
ATOM     19  O   UNL     1       5.943  -5.515  20.878  0.00  0.00    +0.041 OA
ATOM     20  O   UNL     1       4.333  -5.966  22.299  0.00  0.00    -0.576 OA
ENDBRANCH  14  18
ENDBRANCH   4  12
BRANCH   3  21
ATOM     21  C   UNL     1       7.890  -4.557  26.788  0.00  0.00    +0.337 C 
ATOM     22  O   UNL     1       8.810  -3.803  27.074  0.00  0.00    -0.245 OA
BRANCH  21  24
ATOM     23  C   UNL     1       8.992  -5.674  25.054  0.00  0.00    +0.280 C 
ATOM     24  O   UNL     1       8.028  -5.725  26.110  0.00  0.00    -0.465 OA
ENDBRANCH  21  24
ENDBRANCH   3  21
ENDBRANCH   1   5
BRANCH   1  25
ATOM     25  O   UNL     1       3.555  -1.183  26.134  0.00  0.00    -0.461 OA
BRANCH  25  26
ATOM     26  C   UNL     1       3.219  -0.649  27.418  0.00  0.00    +0.234 C 
BRANCH  26  27
ATOM     27  C   UNL     1       3.813   0.751  27.439  0.00  0.00    +0.056 C 
BRANCH  27  28
ATOM     28  C   UNL     1       5.125   0.841  26.667  0.00  0.00    +0.087 C 
BRANCH  28  29
ATOM     29  N   UNL     1       5.412   2.201  26.186  0.00  0.00    -0.302 NA
ATOM     30  C   UNL     1       5.097   2.372  24.765  0.00  0.00    +0.085 C 
ATOM     31  C   UNL     1       6.090   1.657  23.849  0.00  0.00    +0.031 C 
ATOM     32  C   UNL     1       7.587   2.081  24.070  0.00  0.00    +0.023 C 
ATOM     33  C   UNL     1       7.826   1.915  25.611  0.00  0.00    +0.031 C 
ATOM     34  C   UNL     1       6.779   2.660  26.445  0.00  0.00    +0.085 C 
BRANCH  32  35
ATOM     35  C   UNL     1       7.848   3.543  23.595  0.00  0.00    -0.037 A 
ATOM     36  C   UNL     1       7.030   4.160  22.633  0.00  0.00    +0.004 A 
ATOM     37  C   UNL     1       7.224   5.495  22.254  0.00  0.00    +0.000 A 
ATOM     38  C   UNL     1       8.259   6.240  22.806  0.00  0.00    +0.000 A 
ATOM     39  C   UNL     1       9.113   5.646  23.724  0.00  0.00    +0.000 A 
ATOM     40  C   UNL     1       8.915   4.315  24.104  0.00  0.00    +0.004 A 
ENDBRANCH  32  35
BRANCH  32  41
ATOM     41  C   UNL     1       8.555   1.099  23.343  0.00  0.00    -0.037 A 
ATOM     42  C   UNL     1       9.389   0.240  24.086  0.00  0.00    +0.004 A 
ATOM     43  C   UNL     1      10.179  -0.729  23.461  0.00  0.00    +0.000 A 
ATOM     44  C   UNL     1      10.167  -0.858  22.078  0.00  0.00    +0.000 A 
ATOM     45  C   UNL     1       9.386   0.002  21.317  0.00  0.00    +0.000 A 
ATOM     46  C   UNL     1       8.601   0.977  21.940  0.00  0.00    +0.004 A 
ENDBRANCH  32  41
ENDBRANCH  28  29
ENDBRANCH  27  28
ENDBRANCH  26  27
ENDBRANCH  25  26
ENDBRANCH   1  25
TORSDOF 12
ENDMDL
MODEL 2
REMARK VINA RESULT:      -7.0      1.776      3.063
REMARK  Name = 
REMARK  15 active torsions:
REMARK  status: ('A' for Active; 'I' for Inactive)
REMARK    1  A    between atoms: C_1  and  O_2
REMARK    2  A    between atoms: O_2  and  C_3
REMARK    3  A    between atoms: C_3  and  C_5
REMARK    4  A    between atoms: C_6  and  C_7
REMARK    5  A    between atoms: C_9  and  C_10
REMARK    6  A    between atoms: C_11  and  C_22
REMARK    7  A    between atoms: C_12  and  C_13
REMARK    8  A    between atoms: C_17  and  N_19
REMARK    9  A    between atoms: C_22  and  O_24
REMARK   10  A    between atoms: O_24  and  C_25
REMARK   11  A    between atoms: C_25  and  C_26
REMARK   12  A    between atoms: C_26  and  C_27
REMARK   13  A    between atoms: C_27  and  N_28
REMARK   14  A    between atoms: C_31  and  C_34
REMARK   15  A    between atoms: C_31  and  C_40
REMARK                            x       y       z     vdW  Elec       q    Type
REMARK                         _______ _______ _______ _____ _____    ______ ____
ROOT
ATOM      1  C   UNL     1       3.526  -2.276  27.192  0.00  0.00    +0.338 C 
ATOM      2  O   UNL     1       4.064  -2.576  28.246  0.00  0.00    -0.245 OA
ENDROOT
BRANCH   1   5
ATOM      3  C   UNL     1       3.462  -4.979  24.339  0.00  0.00    +0.065 C 
ATOM      4  C   UNL     1       4.049  -4.220  25.540  0.00  0.00    +0.096 C 
ATOM      5  C   UNL     1       3.045  -3.246  26.178  0.00  0.00    +0.065 C 
ATOM      6  C   UNL     1       1.748  -3.227  25.798  0.00  0.00    +0.016 C 
ATOM      7  C   UNL     1       0.712  -2.279  26.351  0.00  0.00    +0.061 C 
ATOM      8  N   UNL     1       1.309  -4.113  24.836  0.00  0.00    -0.321 N 
ATOM      9  H   UNL     1       0.349  -4.006  24.515  0.00  0.00    +0.152 HD
ATOM     10  C   UNL     1       2.138  -4.907  24.059  0.00  0.00    +0.016 C 
ATOM     11  C   UNL     1       1.419  -5.619  22.937  0.00  0.00    +0.061 C 
BRANCH   4  12
ATOM     12  C   UNL     1       5.351  -3.493  25.196  0.00  0.00    -0.029 A 
ATOM     13  C   UNL     1       6.587  -4.031  25.584  0.00  0.00    +0.088 A 
ATOM     14  C   UNL     1       7.776  -3.423  25.155  0.00  0.00    +0.273 A 
ATOM     15  C   UNL     1       7.745  -2.256  24.379  0.00  0.00    +0.084 A 
ATOM     16  C   UNL     1       6.515  -1.702  24.023  0.00  0.00    +0.007 A 
ATOM     17  C   UNL     1       5.330  -2.319  24.422  0.00  0.00    +0.005 A 
BRANCH  14  18
ATOM     18  N   UNL     1       9.063  -4.041  25.495  0.00  0.00    +0.080 N 
ATOM     19  O   UNL     1       9.220  -4.451  26.653  0.00  0.00    +0.041 OA
ATOM     20  O   UNL     1       9.920  -4.118  24.600  0.00  0.00    -0.576 OA
ENDBRANCH  14  18
ENDBRANCH   4  12
BRANCH   3  21
ATOM     21  C   UNL     1       4.385  -5.720  23.442  0.00  0.00    +0.337 C 
ATOM     22  O   UNL     1       4.849  -6.822  23.698  0.00  0.00    -0.245 OA
BRANCH  21  24
ATOM     23  C   UNL     1       5.978  -4.987  21.896  0.00  0.00    +0.280 C 
ATOM     24  O   UNL     1       4.604  -5.036  22.290  0.00  0.00    -0.465 OA
ENDBRANCH  21  24
ENDBRANCH   3  21
ENDBRANCH   1   5
BRANCH   1  25
ATOM     25  O   UNL     1       3.321  -1.021  26.732  0.00  0.00    -0.461 OA
BRANCH  25  26
ATOM     26  C   UNL     1       3.218  -0.012  27.743  0.00  0.00    +0.234 C 
BRANCH  26  27
ATOM     27  C   UNL     1       4.381   0.934  27.485  0.00  0.00    +0.056 C 
BRANCH  27  28
ATOM     28  C   UNL     1       4.714   1.061  26.004  0.00  0.00    +0.087 C 
BRANCH  28  29
ATOM     29  N   UNL     1       5.075   2.434  25.615  0.00  0.00    -0.302 NA
ATOM     30  C   UNL     1       4.973   2.654  24.170  0.00  0.00    +0.085 C 
ATOM     31  C   UNL     1       6.087   1.960  23.386  0.00  0.00    +0.031 C 
ATOM     32  C   UNL     1       7.537   2.363  23.839  0.00  0.00    +0.023 C 
ATOM     33  C   UNL     1       7.546   2.145  25.392  0.00  0.00    +0.031 C 
ATOM     34  C   UNL     1       6.391   2.872  26.088  0.00  0.00    +0.085 C 
BRANCH  32  35
ATOM     35  C   UNL     1       7.871   3.838  23.458  0.00  0.00    -0.037 A 
ATOM     36  C   UNL     1       7.201   4.496  22.411  0.00  0.00    +0.004 A 
ATOM     37  C   UNL     1       7.454   5.841  22.110  0.00  0.00    +0.000 A 
ATOM     38  C   UNL     1       8.406   6.555  22.828  0.00  0.00    +0.000 A 
ATOM     39  C   UNL     1       9.118   5.921  23.836  0.00  0.00    +0.000 A 
ATOM     40  C   UNL     1       8.860   4.580  24.138  0.00  0.00    +0.004 A 
ENDBRANCH  32  35
BRANCH  32  41
ATOM     41  C   UNL     1       8.597   1.397  23.229  0.00  0.00    -0.037 A 
ATOM     42  C   UNL     1       9.668   0.927  24.016  0.00  0.00    +0.004 A 
ATOM     43  C   UNL     1      10.565  -0.029  23.529  0.00  0.00    +0.000 A 
ATOM     44  C   UNL     1      10.423  -0.532  22.241  0.00  0.00    +0.000 A 
ATOM     45  C   UNL     1       9.401  -0.056  21.430  0.00  0.00    +0.000 A 
ATOM     46  C   UNL     1       8.509   0.906  21.912  0.00  0.00    +0.004 A 
ENDBRANCH  32  41
ENDBRANCH  28  29
ENDBRANCH  27  28
ENDBRANCH  26  27
ENDBRANCH  25  26
ENDBRANCH   1  25
TORSDOF 12
ENDMDL
MODEL 3
REMARK VINA RESULT:      -6.9      1.638      4.168
REMARK  Name = 
REMARK  15 active torsions:
REMARK  status: ('A' for Active; 'I' for Inactive)
REMARK    1  A    between atoms: C_1  and  O_2
REMARK    2  A    between atoms: O_2  and  C_3
REMARK    3  A    between atoms: C_3  and  C_5
REMARK    4  A    between atoms: C_6  and  C_7
REMARK    5  A    between atoms: C_9  and  C_10
REMARK    6  A    between atoms: C_11  and  C_22
REMARK    7  A    between atoms: C_12  and  C_13
REMARK    8  A    between atoms: C_17  and  N_19
REMARK    9  A    between atoms: C_22  and  O_24
REMARK   10  A    between atoms: O_24  and  C_25
REMARK   11  A    between atoms: C_25  and  C_26
REMARK   12  A    between atoms: C_26  and  C_27
REMARK   13  A    between atoms: C_27  and  N_28
REMARK   14  A    between atoms: C_31  and  C_34
REMARK   15  A    between atoms: C_31  and  C_40
REMARK                            x       y       z     vdW  Elec       q    Type
REMARK                         _______ _______ _______ _____ _____    ______ ____
ROOT
ATOM      1  C   UNL     1       5.825  -1.998  26.004  0.00  0.00    +0.338 C 
ATOM      2  O   UNL     1       6.517  -2.010  27.009  0.00  0.00    -0.245 OA
ENDROOT
BRANCH   1   5
ATOM      3  C   UNL     1       5.143  -5.065  23.642  0.00  0.00    +0.065 C 
ATOM      4  C   UNL     1       4.782  -3.967  24.656  0.00  0.00    +0.096 C 
ATOM      5  C   UNL     1       5.930  -2.971  24.889  0.00  0.00    +0.065 C 
ATOM      6  C   UNL     1       7.048  -2.999  24.131  0.00  0.00    +0.016 C 
ATOM      7  C   UNL     1       8.230  -2.079  24.320  0.00  0.00    +0.061 C 
ATOM      8  N   UNL     1       7.155  -3.923  23.111  0.00  0.00    -0.321 N 
ATOM      9  H   UNL     1       8.046  -3.969  22.622  0.00  0.00    +0.152 HD
ATOM     10  C   UNL     1       6.284  -4.983  22.915  0.00  0.00    +0.016 C 
ATOM     11  C   UNL     1       6.751  -5.965  21.866  0.00  0.00    +0.061 C 
BRANCH   4  12
ATOM     12  C   UNL     1       4.293  -4.537  25.989  0.00  0.00    -0.029 A 
ATOM     13  C   UNL     1       5.169  -5.248  26.821  0.00  0.00    +0.088 A 
ATOM     14  C   UNL     1       4.746  -5.655  28.094  0.00  0.00    +0.273 A 
ATOM     15  C   UNL     1       3.438  -5.400  28.530  0.00  0.00    +0.084 A 
ATOM     16  C   UNL     1       2.555  -4.723  27.689  0.00  0.00    +0.007 A 
ATOM     17  C   UNL     1       2.981  -4.290  26.433  0.00  0.00    +0.005 A 
BRANCH  14  18
ATOM     18  N   UNL     1       5.697  -6.325  28.990  0.00  0.00    +0.080 N 
ATOM     19  O   UNL     1       6.201  -5.657  29.902  0.00  0.00    +0.041 OA
ATOM     20  O   UNL     1       5.938  -7.525  28.781  0.00  0.00    -0.576 OA
ENDBRANCH  14  18
ENDBRANCH   4  12
BRANCH   3  21
ATOM     21  C   UNL     1       4.265  -6.258  23.540  0.00  0.00    +0.337 C 
ATOM     22  O   UNL     1       4.457  -7.303  24.146  0.00  0.00    -0.245 OA
BRANCH  21  24
ATOM     23  C   UNL     1       1.976  -6.585  23.193  0.00  0.00    +0.280 C 
ATOM     24  O   UNL     1       3.204  -6.018  22.728  0.00  0.00    -0.465 OA
ENDBRANCH  21  24
ENDBRANCH   3  21
ENDBRANCH   1   5
BRANCH   1  25
ATOM     25  O   UNL     1       4.883  -1.077  25.697  0.00  0.00    -0.461 OA
BRANCH  25  26
ATOM     26  C   UNL     1       4.018  -0.709  26.776  0.00  0.00    +0.234 C 
BRANCH  26  27
ATOM     27  C   UNL     1       3.966   0.811  26.748  0.00  0.00    +0.056 C 
BRANCH  27  28
ATOM     28  C   UNL     1       5.314   1.448  27.064  0.00  0.00    +0.087 C 
BRANCH  28  29
ATOM     29  N   UNL     1       5.476   2.775  26.449  0.00  0.00    -0.302 NA
ATOM     30  C   UNL     1       5.052   2.800  25.047  0.00  0.00    +0.085 C 
ATOM     31  C   UNL     1       6.023   2.066  24.122  0.00  0.00    +0.031 C 
ATOM     32  C   UNL     1       7.501   2.596  24.192  0.00  0.00    +0.023 C 
ATOM     33  C   UNL     1       7.858   2.582  25.720  0.00  0.00    +0.031 C 
ATOM     34  C   UNL     1       6.826   3.336  26.565  0.00  0.00    +0.085 C 
BRANCH  32  35
ATOM     35  C   UNL     1       7.632   4.023  23.578  0.00  0.00    -0.037 A 
ATOM     36  C   UNL     1       6.676   4.525  22.677  0.00  0.00    +0.004 A 
ATOM     37  C   UNL     1       6.757   5.831  22.175  0.00  0.00    +0.000 A 
ATOM     38  C   UNL     1       7.813   6.660  22.537  0.00  0.00    +0.000 A 
ATOM     39  C   UNL     1       8.797   6.178  23.388  0.00  0.00    +0.000 A 
ATOM     40  C   UNL     1       8.711   4.876  23.891  0.00  0.00    +0.004 A 
ENDBRANCH  32  35
BRANCH  32  41
ATOM     41  C   UNL     1       8.478   1.613  23.480  0.00  0.00    -0.037 A 
ATOM     42  C   UNL     1       8.181   1.122  22.192  0.00  0.00    +0.004 A 
ATOM     43  C   UNL     1       9.093   0.333  21.485  0.00  0.00    +0.000 A 
ATOM     44  C   UNL     1      10.320   0.003  22.049  0.00  0.00    +0.000 A 
ATOM     45  C   UNL     1      10.622   0.438  23.333  0.00  0.00    +0.000 A 
ATOM     46  C   UNL     1       9.708   1.221  24.044  0.00  0.00    +0.004 A 
ENDBRANCH  32  41
ENDBRANCH  28  29
ENDBRANCH  27  28
ENDBRANCH  26  27
ENDBRANCH  25  26
ENDBRANCH   1  25
TORSDOF 12
ENDMDL
MODEL 4
REMARK VINA RESULT:      -6.7      2.034      3.282
REMARK  Name = 
REMARK  15 active torsions:
REMARK  status: ('A' for Active; 'I' for Inactive)
REMARK    1  A    between atoms: C_1  and  O_2
REMARK    2  A    between atoms: O_2  and  C_3
REMARK    3  A    between atoms: C_3  and  C_5
REMARK    4  A    between atoms: C_6  and  C_7
REMARK    5  A    between atoms: C_9  and  C_10
REMARK    6  A    between atoms: C_11  and  C_22
REMARK    7  A    between atoms: C_12  and  C_13
REMARK    8  A    between atoms: C_17  and  N_19
REMARK    9  A    between atoms: C_22  and  O_24
REMARK   10  A    between atoms: O_24  and  C_25
REMARK   11  A    between atoms: C_25  and  C_26
REMARK   12  A    between atoms: C_26  and  C_27
REMARK   13  A    between atoms: C_27  and  N_28
REMARK   14  A    between atoms: C_31  and  C_34
REMARK   15  A    between atoms: C_31  and  C_40
REMARK                            x       y       z     vdW  Elec       q    Type
REMARK                         _______ _______ _______ _____ _____    ______ ____
ROOT
ATOM      1  C   UNL     1       5.082  -1.674  26.799  0.00  0.00    +0.338 C 
ATOM      2  O   UNL     1       4.890  -2.247  27.859  0.00  0.00    -0.245 OA
ENDROOT
BRANCH   1   5
ATOM      3  C   UNL     1       7.545  -3.117  24.097  0.00  0.00    +0.065 C 
ATOM      4  C   UNL     1       6.177  -2.829  24.738  0.00  0.00    +0.096 C 
ATOM      5  C   UNL     1       6.271  -1.867  25.933  0.00  0.00    +0.065 C 
ATOM      6  C   UNL     1       7.426  -1.234  26.235  0.00  0.00    +0.016 C 
ATOM      7  C   UNL     1       7.607  -0.303  27.410  0.00  0.00    +0.061 C 
ATOM      8  N   UNL     1       8.539  -1.435  25.444  0.00  0.00    -0.321 N 
ATOM      9  H   UNL     1       9.409  -1.011  25.755  0.00  0.00    +0.152 HD
ATOM     10  C   UNL     1       8.639  -2.405  24.459  0.00  0.00    +0.016 C 
ATOM     11  C   UNL     1      10.033  -2.555  23.896  0.00  0.00    +0.061 C 
BRANCH   4  12
ATOM     12  C   UNL     1       5.436  -4.106  25.140  0.00  0.00    -0.029 A 
ATOM     13  C   UNL     1       4.222  -4.444  24.526  0.00  0.00    +0.088 A 
ATOM     14  C   UNL     1       3.617  -5.677  24.810  0.00  0.00    +0.273 A 
ATOM     15  C   UNL     1       4.189  -6.559  25.737  0.00  0.00    +0.084 A 
ATOM     16  C   UNL     1       5.380  -6.208  26.374  0.00  0.00    +0.007 A 
ATOM     17  C   UNL     1       6.001  -4.996  26.072  0.00  0.00    +0.005 A 
BRANCH  14  18
ATOM     18  N   UNL     1       2.390  -6.058  24.100  0.00  0.00    +0.080 N 
ATOM     19  O   UNL     1       2.471  -6.281  22.884  0.00  0.00    +0.041 OA
ATOM     20  O   UNL     1       1.342  -6.138  24.762  0.00  0.00    -0.576 OA
ENDBRANCH  14  18
ENDBRANCH   4  12
BRANCH   3  21
ATOM     21  C   UNL     1       7.660  -4.247  23.139  0.00  0.00    +0.337 C 
ATOM     22  O   UNL     1       8.245  -5.293  23.383  0.00  0.00    -0.245 OA
BRANCH  21  24
ATOM     23  C   UNL     1       6.274  -5.103  21.463  0.00  0.00    +0.280 C 
ATOM     24  O   UNL     1       6.993  -3.984  21.987  0.00  0.00    -0.465 OA
ENDBRANCH  21  24
ENDBRANCH   3  21
ENDBRANCH   1   5
BRANCH   1  25
ATOM     25  O   UNL     1       4.285  -0.730  26.248  0.00  0.00    -0.461 OA
BRANCH  25  26
ATOM     26  C   UNL     1       3.424  -0.050  27.167  0.00  0.00    +0.234 C 
BRANCH  26  27
ATOM     27  C   UNL     1       3.926   1.386  27.200  0.00  0.00    +0.056 C 
BRANCH  27  28
ATOM     28  C   UNL     1       4.019   2.004  25.811  0.00  0.00    +0.087 C 
BRANCH  28  29
ATOM     29  N   UNL     1       4.706   3.306  25.810  0.00  0.00    -0.302 NA
ATOM     30  C   UNL     1       4.766   3.909  24.477  0.00  0.00    +0.085 C 
ATOM     31  C   UNL     1       5.751   3.198  23.549  0.00  0.00    +0.031 C 
ATOM     32  C   UNL     1       7.217   3.117  24.111  0.00  0.00    +0.023 C 
ATOM     33  C   UNL     1       7.059   2.509  25.548  0.00  0.00    +0.031 C 
ATOM     34  C   UNL     1       6.048   3.283  26.400  0.00  0.00    +0.085 C 
BRANCH  32  35
ATOM     35  C   UNL     1       7.901   4.518  24.144  0.00  0.00    -0.037 A 
ATOM     36  C   UNL     1       7.726   5.445  23.102  0.00  0.00    +0.004 A 
ATOM     37  C   UNL     1       8.287   6.728  23.161  0.00  0.00    +0.000 A 
ATOM     38  C   UNL     1       9.061   7.107  24.251  0.00  0.00    +0.000 A 
ATOM     39  C   UNL     1       9.291   6.199  25.274  0.00  0.00    +0.000 A 
ATOM     40  C   UNL     1       8.726   4.921  25.215  0.00  0.00    +0.004 A 
ENDBRANCH  32  35
BRANCH  32  41
ATOM     41  C   UNL     1       8.075   2.119  23.278  0.00  0.00    -0.037 A 
ATOM     42  C   UNL     1       7.523   0.901  22.835  0.00  0.00    +0.004 A 
ATOM     43  C   UNL     1       8.232   0.042  21.989  0.00  0.00    +0.000 A 
ATOM     44  C   UNL     1       9.517   0.372  21.574  0.00  0.00    +0.000 A 
ATOM     45  C   UNL     1      10.102   1.547  22.028  0.00  0.00    +0.000 A 
ATOM     46  C   UNL     1       9.397   2.402  22.879  0.00  0.00    +0.004 A 
ENDBRANCH  32  41
ENDBRANCH  28  29
ENDBRANCH  27  28
ENDBRANCH  26  27
ENDBRANCH  25  26
ENDBRANCH   1  25
TORSDOF 12
ENDMDL
MODEL 5
REMARK VINA RESULT:      -6.7      2.021      3.761
REMARK  Name = 
REMARK  15 active torsions:
REMARK  status: ('A' for Active; 'I' for Inactive)
REMARK    1  A    between atoms: C_1  and  O_2
REMARK    2  A    between atoms: O_2  and  C_3
REMARK    3  A    between atoms: C_3  and  C_5
REMARK    4  A    between atoms: C_6  and  C_7
REMARK    5  A    between atoms: C_9  and  C_10
REMARK    6  A    between atoms: C_11  and  C_22
REMARK    7  A    between atoms: C_12  and  C_13
REMARK    8  A    between atoms: C_17  and  N_19
REMARK    9  A    between atoms: C_22  and  O_24
REMARK   10  A    between atoms: O_24  and  C_25
REMARK   11  A    between atoms: C_25  and  C_26
REMARK   12  A    between atoms: C_26  and  C_27
REMARK   13  A    between atoms: C_27  and  N_28
REMARK   14  A    between atoms: C_31  and  C_34
REMARK   15  A    between atoms: C_31  and  C_40
REMARK                            x       y       z     vdW  Elec       q    Type
REMARK                         _______ _______ _______ _____ _____    ______ ____
ROOT
ATOM      1  C   UNL     1       5.216  -1.599  26.833  0.00  0.00    +0.338 C 
ATOM      2  O   UNL     1       5.037  -2.110  27.927  0.00  0.00    -0.245 OA
ENDROOT
BRANCH   1   5
ATOM      3  C   UNL     1       7.665  -3.257  24.243  0.00  0.00    +0.065 C 
ATOM      4  C   UNL     1       6.303  -2.945  24.886  0.00  0.00    +0.096 C 
ATOM      5  C   UNL     1       6.390  -1.849  25.961  0.00  0.00    +0.065 C 
ATOM      6  C   UNL     1       7.527  -1.145  26.156  0.00  0.00    +0.016 C 
ATOM      7  C   UNL     1       7.701  -0.080  27.211  0.00  0.00    +0.061 C 
ATOM      8  N   UNL     1       8.627  -1.397  25.361  0.00  0.00    -0.321 N 
ATOM      9  H   UNL     1       9.489  -0.910  25.598  0.00  0.00    +0.152 HD
ATOM     10  C   UNL     1       8.740  -2.470  24.491  0.00  0.00    +0.016 C 
ATOM     11  C   UNL     1      10.125  -2.636  23.909  0.00  0.00    +0.061 C 
BRANCH   4  12
ATOM     12  C   UNL     1       5.621  -4.192  25.452  0.00  0.00    -0.029 A 
ATOM     13  C   UNL     1       6.105  -4.795  26.621  0.00  0.00    +0.088 A 
ATOM     14  C   UNL     1       5.398  -5.860  27.200  0.00  0.00    +0.273 A 
ATOM     15  C   UNL     1       4.236  -6.360  26.597  0.00  0.00    +0.084 A 
ATOM     16  C   UNL     1       3.774  -5.782  25.413  0.00  0.00    +0.007 A 
ATOM     17  C   UNL     1       4.457  -4.704  24.851  0.00  0.00    +0.005 A 
BRANCH  14  18
ATOM     18  N   UNL     1       5.865  -6.430  28.469  0.00  0.00    +0.080 N 
ATOM     19  O   UNL     1       6.215  -5.645  29.362  0.00  0.00    +0.041 OA
ATOM     20  O   UNL     1       5.880  -7.667  28.575  0.00  0.00    -0.576 OA
ENDBRANCH  14  18
ENDBRANCH   4  12
BRANCH   3  21
ATOM     21  C   UNL     1       7.799  -4.484  23.418  0.00  0.00    +0.337 C 
ATOM     22  O   UNL     1       8.359  -5.504  23.795  0.00  0.00    -0.245 OA
BRANCH  21  24
ATOM     23  C   UNL     1       6.506  -5.518  21.767  0.00  0.00    +0.280 C 
ATOM     24  O   UNL     1       7.180  -4.340  22.219  0.00  0.00    -0.465 OA
ENDBRANCH  21  24
ENDBRANCH   3  21
ENDBRANCH   1   5
BRANCH   1  25
ATOM     25  O   UNL     1       4.417  -0.682  26.242  0.00  0.00    -0.461 OA
BRANCH  25  26
ATOM     26  C   UNL     1       3.470  -0.052  27.111  0.00  0.00    +0.234 C 
BRANCH  26  27
ATOM     27  C   UNL     1       3.904   1.403  27.191  0.00  0.00    +0.056 C 
BRANCH  27  28
ATOM     28  C   UNL     1       3.965   2.071  25.823  0.00  0.00    +0.087 C 
BRANCH  28  29
ATOM     29  N   UNL     1       4.688   3.353  25.846  0.00  0.00    -0.302 NA
ATOM     30  C   UNL     1       4.710   4.009  24.536  0.00  0.00    +0.085 C 
ATOM     31  C   UNL     1       5.636   3.310  23.540  0.00  0.00    +0.031 C 
ATOM     32  C   UNL     1       7.121   3.166  24.037  0.00  0.00    +0.023 C 
ATOM     33  C   UNL     1       7.005   2.505  25.454  0.00  0.00    +0.031 C 
ATOM     34  C   UNL     1       6.052   3.270  26.377  0.00  0.00    +0.085 C 
BRANCH  32  35
ATOM     35  C   UNL     1       7.845   4.546  24.097  0.00  0.00    -0.037 A 
ATOM     36  C   UNL     1       8.742   4.860  25.133  0.00  0.00    +0.004 A 
ATOM     37  C   UNL     1       9.443   6.073  25.153  0.00  0.00    +0.000 A 
ATOM     38  C   UNL     1       9.243   7.017  24.152  0.00  0.00    +0.000 A 
ATOM     39  C   UNL     1       8.330   6.757  23.141  0.00  0.00    +0.000 A 
ATOM     40  C   UNL     1       7.636   5.543  23.121  0.00  0.00    +0.004 A 
ENDBRANCH  32  35
BRANCH  32  41
ATOM     41  C   UNL     1       7.917   2.181  23.129  0.00  0.00    -0.037 A 
ATOM     42  C   UNL     1       9.206   2.517  22.671  0.00  0.00    +0.004 A 
ATOM     43  C   UNL     1       9.986   1.605  21.953  0.00  0.00    +0.000 A 
ATOM     44  C   UNL     1       9.495   0.338  21.665  0.00  0.00    +0.000 A 
ATOM     45  C   UNL     1       8.211  -0.007  22.068  0.00  0.00    +0.000 A 
ATOM     46  C   UNL     1       7.428   0.907  22.778  0.00  0.00    +0.004 A 
ENDBRANCH  32  41
ENDBRANCH  28  29
ENDBRANCH  27  28
ENDBRANCH  26  27
ENDBRANCH  25  26
ENDBRANCH   1  25
TORSDOF 12
ENDMDL
MODEL 6
REMARK VINA RESULT:      -6.7      2.499      7.409
REMARK  Name = 
REMARK  15 active torsions:
REMARK  status: ('A' for Active; 'I' for Inactive)
REMARK    1  A    between atoms: C_1  and  O_2
REMARK    2  A    between atoms: O_2  and  C_3
REMARK    3  A    between atoms: C_3  and  C_5
REMARK    4  A    between atoms: C_6  and  C_7
REMARK    5  A    between atoms: C_9  and  C_10
REMARK    6  A    between atoms: C_11  and  C_22
REMARK    7  A    between atoms: C_12  and  C_13
REMARK    8  A    between atoms: C_17  and  N_19
REMARK    9  A    between atoms: C_22  and  O_24
REMARK   10  A    between atoms: O_24  and  C_25
REMARK   11  A    between atoms: C_25  and  C_26
REMARK   12  A    between atoms: C_26  and  C_27
REMARK   13  A    between atoms: C_27  and  N_28
REMARK   14  A    between atoms: C_31  and  C_34
REMARK   15  A    between atoms: C_31  and  C_40
REMARK                            x       y       z     vdW  Elec       q    Type
REMARK                         _______ _______ _______ _____ _____    ______ ____
ROOT
ATOM      1  C   UNL     1       6.368   0.592  27.183  0.00  0.00    +0.338 C 
ATOM      2  O   UNL     1       7.112  -0.181  27.765  0.00  0.00    -0.245 OA
ENDROOT
BRANCH   1   5
ATOM      3  C   UNL     1       7.660   2.864  24.249  0.00  0.00    +0.065 C 
ATOM      4  C   UNL     1       6.954   1.653  24.878  0.00  0.00    +0.096 C 
ATOM      5  C   UNL     1       6.813   1.774  26.405  0.00  0.00    +0.065 C 
ATOM      6  C   UNL     1       7.131   2.917  27.050  0.00  0.00    +0.016 C 
ATOM      7  C   UNL     1       7.051   3.102  28.547  0.00  0.00    +0.061 C 
ATOM      8  N   UNL     1       7.569   4.007  26.327  0.00  0.00    -0.321 N 
ATOM      9  H   UNL     1       7.882   4.817  26.857  0.00  0.00    +0.152 HD
ATOM     10  C   UNL     1       7.913   3.974  24.984  0.00  0.00    +0.016 C 
ATOM     11  C   UNL     1       8.567   5.245  24.494  0.00  0.00    +0.061 C 
BRANCH   4  12
ATOM     12  C   UNL     1       7.622   0.327  24.509  0.00  0.00    -0.029 A 
ATOM     13  C   UNL     1       6.942  -0.616  23.725  0.00  0.00    +0.088 A 
ATOM     14  C   UNL     1       7.608  -1.770  23.288  0.00  0.00    +0.273 A 
ATOM     15  C   UNL     1       8.936  -2.017  23.664  0.00  0.00    +0.084 A 
ATOM     16  C   UNL     1       9.602  -1.096  24.474  0.00  0.00    +0.007 A 
ATOM     17  C   UNL     1       8.953   0.068  24.886  0.00  0.00    +0.005 A 
BRANCH  14  18
ATOM     18  N   UNL     1       6.914  -2.709  22.399  0.00  0.00    +0.080 N 
ATOM     19  O   UNL     1       7.586  -3.598  21.859  0.00  0.00    +0.041 OA
ATOM     20  O   UNL     1       5.692  -2.558  22.242  0.00  0.00    -0.576 OA
ENDBRANCH  14  18
ENDBRANCH   4  12
BRANCH   3  21
ATOM     21  C   UNL     1       8.137   2.762  22.846  0.00  0.00    +0.337 C 
ATOM     22  O   UNL     1       7.411   2.868  21.867  0.00  0.00    -0.245 OA
BRANCH  21  24
ATOM     23  C   UNL     1       9.904   1.589  21.862  0.00  0.00    +0.280 C 
ATOM     24  O   UNL     1       9.482   2.586  22.796  0.00  0.00    -0.465 OA
ENDBRANCH  21  24
ENDBRANCH   3  21
ENDBRANCH   1   5
BRANCH   1  25
ATOM     25  O   UNL     1       5.016   0.549  27.185  0.00  0.00    -0.461 OA
BRANCH  25  26
ATOM     26  C   UNL     1       4.404   0.726  28.466  0.00  0.00    +0.234 C 
BRANCH  26  27
ATOM     27  C   UNL     1       3.336  -0.354  28.553  0.00  0.00    +0.056 C 
BRANCH  27  28
ATOM     28  C   UNL     1       3.926  -1.757  28.611  0.00  0.00    +0.087 C 
BRANCH  28  29
ATOM     29  N   UNL     1       3.205  -2.715  27.757  0.00  0.00    -0.302 NA
ATOM     30  C   UNL     1       3.498  -4.108  28.105  0.00  0.00    +0.085 C 
ATOM     31  C   UNL     1       4.905  -4.539  27.691  0.00  0.00    +0.031 C 
ATOM     32  C   UNL     1       5.211  -4.345  26.161  0.00  0.00    +0.023 C 
ATOM     33  C   UNL     1       4.829  -2.853  25.864  0.00  0.00    +0.031 C 
ATOM     34  C   UNL     1       3.406  -2.515  26.319  0.00  0.00    +0.085 C 
BRANCH  32  35
ATOM     35  C   UNL     1       4.397  -5.340  25.279  0.00  0.00    -0.037 A 
ATOM     36  C   UNL     1       4.162  -6.664  25.692  0.00  0.00    +0.004 A 
ATOM     37  C   UNL     1       3.376  -7.540  24.931  0.00  0.00    +0.000 A 
ATOM     38  C   UNL     1       2.827  -7.124  23.724  0.00  0.00    +0.000 A 
ATOM     39  C   UNL     1       3.078  -5.838  23.266  0.00  0.00    +0.000 A 
ATOM     40  C   UNL     1       3.859  -4.965  24.030  0.00  0.00    +0.004 A 
ENDBRANCH  32  35
BRANCH  32  41
ATOM     41  C   UNL     1       6.735  -4.498  25.876  0.00  0.00    -0.037 A 
ATOM     42  C   UNL     1       7.683  -3.908  26.736  0.00  0.00    +0.004 A 
ATOM     43  C   UNL     1       9.054  -4.127  26.570  0.00  0.00    +0.000 A 
ATOM     44  C   UNL     1       9.515  -4.931  25.534  0.00  0.00    +0.000 A 
ATOM     45  C   UNL     1       8.606  -5.492  24.647  0.00  0.00    +0.000 A 
ATOM     46  C   UNL     1       7.236  -5.267  24.808  0.00  0.00    +0.004 A 
ENDBRANCH  32  41
ENDBRANCH  28  29
ENDBRANCH  27  28
ENDBRANCH  26  27
ENDBRANCH  25  26
ENDBRANCH   1  25
TORSDOF 12
ENDMDL
MODEL 7
REMARK VINA RESULT:      -6.5      2.112      5.162
REMARK  Name = 
REMARK  15 active torsions:
REMARK  status: ('A' for Active; 'I' for Inactive)
REMARK    1  A    between atoms: C_1  and  O_2
REMARK    2  A    between atoms: O_2  and  C_3
REMARK    3  A    between atoms: C_3  and  C_5
REMARK    4  A    between atoms: C_6  and  C_7
REMARK    5  A    between atoms: C_9  and  C_10
REMARK    6  A    between atoms: C_11  and  C_22
REMARK    7  A    between atoms: C_12  and  C_13
REMARK    8  A    between atoms: C_17  and  N_19
REMARK    9  A    between atoms: C_22  and  O_24
REMARK   10  A    between atoms: O_24  and  C_25
REMARK   11  A    between atoms: C_25  and  C_26
REMARK   12  A    between atoms: C_26  and  C_27
REMARK   13  A    between atoms: C_27  and  N_28
REMARK   14  A    between atoms: C_31  and  C_34
REMARK   15  A    between atoms: C_31  and  C_40
REMARK                            x       y       z     vdW  Elec       q    Type
REMARK                         _______ _______ _______ _____ _____    ______ ____
ROOT
ATOM      1  C   UNL     1       9.883  -2.205  24.028  0.00  0.00    +0.338 C 
ATOM      2  O   UNL     1      10.299  -3.352  23.984  0.00  0.00    -0.245 OA
ENDROOT
BRANCH   1   5
ATOM      3  C   UNL     1       6.886  -1.602  26.497  0.00  0.00    +0.065 C 
ATOM      4  C   UNL     1       7.784  -2.418  25.553  0.00  0.00    +0.096 C 
ATOM      5  C   UNL     1       9.041  -1.649  25.115  0.00  0.00    +0.065 C 
ATOM      6  C   UNL     1       9.363  -0.458  25.666  0.00  0.00    +0.016 C 
ATOM      7  C   UNL     1      10.559   0.372  25.266  0.00  0.00    +0.061 C 
ATOM      8  N   UNL     1       8.563   0.070  26.659  0.00  0.00    -0.321 N 
ATOM      9  H   UNL     1       8.790   1.007  26.985  0.00  0.00    +0.152 HD
ATOM     10  C   UNL     1       7.318  -0.425  27.014  0.00  0.00    +0.016 C 
ATOM     11  C   UNL     1       6.562   0.464  27.973  0.00  0.00    +0.061 C 
BRANCH   4  12
ATOM     12  C   UNL     1       7.027  -2.942  24.331  0.00  0.00    -0.029 A 
ATOM     13  C   UNL     1       6.864  -4.321  24.136  0.00  0.00    +0.088 A 
ATOM     14  C   UNL     1       6.063  -4.786  23.083  0.00  0.00    +0.273 A 
ATOM     15  C   UNL     1       5.458  -3.889  22.193  0.00  0.00    +0.084 A 
ATOM     16  C   UNL     1       5.648  -2.517  22.366  0.00  0.00    +0.007 A 
ATOM     17  C   UNL     1       6.420  -2.049  23.430  0.00  0.00    +0.005 A 
BRANCH  14  18
ATOM     18  N   UNL     1       5.830  -6.228  22.938  0.00  0.00    +0.080 N 
ATOM     19  O   UNL     1       5.006  -6.760  23.695  0.00  0.00    +0.041 OA
ATOM     20  O   UNL     1       6.472  -6.831  22.062  0.00  0.00    -0.576 OA
ENDBRANCH  14  18
ENDBRANCH   4  12
BRANCH   3  21
ATOM     21  C   UNL     1       5.506  -2.082  26.762  0.00  0.00    +0.337 C 
ATOM     22  O   UNL     1       4.501  -1.571  26.288  0.00  0.00    -0.245 OA
BRANCH  21  24
ATOM     23  C   UNL     1       4.395  -3.272  28.440  0.00  0.00    +0.280 C 
ATOM     24  O   UNL     1       5.513  -3.185  27.553  0.00  0.00    -0.465 OA
ENDBRANCH  21  24
ENDBRANCH   3  21
ENDBRANCH   1   5
BRANCH   1  25
ATOM     25  O   UNL     1      10.063  -1.256  23.081  0.00  0.00    -0.461 OA
BRANCH  25  26
ATOM     26  C   UNL     1       9.353  -1.475  21.858  0.00  0.00    +0.234 C 
BRANCH  26  27
ATOM     27  C   UNL     1       9.223  -0.102  21.217  0.00  0.00    +0.056 C 
BRANCH  27  28
ATOM     28  C   UNL     1       8.973   0.999  22.241  0.00  0.00    +0.087 C 
BRANCH  28  29
ATOM     29  N   UNL     1       7.550   1.358  22.357  0.00  0.00    -0.302 NA
ATOM     30  C   UNL     1       7.219   2.585  21.627  0.00  0.00    +0.085 C 
ATOM     31  C   UNL     1       7.766   3.842  22.304  0.00  0.00    +0.031 C 
ATOM     32  C   UNL     1       7.300   4.022  23.794  0.00  0.00    +0.023 C 
ATOM     33  C   UNL     1       7.645   2.658  24.488  0.00  0.00    +0.031 C 
ATOM     34  C   UNL     1       7.061   1.459  23.735  0.00  0.00    +0.085 C 
BRANCH  32  35
ATOM     35  C   UNL     1       5.779   4.353  23.887  0.00  0.00    -0.037 A 
ATOM     36  C   UNL     1       5.189   5.333  23.069  0.00  0.00    +0.004 A 
ATOM     37  C   UNL     1       3.811   5.586  23.106  0.00  0.00    +0.000 A 
ATOM     38  C   UNL     1       2.991   4.885  23.982  0.00  0.00    +0.000 A 
ATOM     39  C   UNL     1       3.549   3.944  24.835  0.00  0.00    +0.000 A 
ATOM     40  C   UNL     1       4.924   3.691  24.793  0.00  0.00    +0.004 A 
ENDBRANCH  32  35
BRANCH  32  41
ATOM     41  C   UNL     1       8.135   5.128  24.506  0.00  0.00    -0.037 A 
ATOM     42  C   UNL     1       7.805   5.540  25.813  0.00  0.00    +0.004 A 
ATOM     43  C   UNL     1       8.605   6.445  26.517  0.00  0.00    +0.000 A 
ATOM     44  C   UNL     1       9.750   6.971  25.930  0.00  0.00    +0.000 A 
ATOM     45  C   UNL     1      10.077   6.615  24.628  0.00  0.00    +0.000 A 
ATOM     46  C   UNL     1       9.273   5.717  23.921  0.00  0.00    +0.004 A 
ENDBRANCH  32  41
ENDBRANCH  28  29
ENDBRANCH  27  28
ENDBRANCH  26  27
ENDBRANCH  25  26
ENDBRANCH   1  25
TORSDOF 12
ENDMDL
MODEL 8
REMARK VINA RESULT:      -6.5      2.096      3.985
REMARK  Name = 
REMARK  15 active torsions:
REMARK  status: ('A' for Active; 'I' for Inactive)
REMARK    1  A    between atoms: C_1  and  O_2
REMARK    2  A    between atoms: O_2  and  C_3
REMARK    3  A    between atoms: C_3  and  C_5
REMARK    4  A    between atoms: C_6  and  C_7
REMARK    5  A    between atoms: C_9  and  C_10
REMARK    6  A    between atoms: C_11  and  C_22
REMARK    7  A    between atoms: C_12  and  C_13
REMARK    8  A    between atoms: C_17  and  N_19
REMARK    9  A    between atoms: C_22  and  O_24
REMARK   10  A    between atoms: O_24  and  C_25
REMARK   11  A    between atoms: C_25  and  C_26
REMARK   12  A    between atoms: C_26  and  C_27
REMARK   13  A    between atoms: C_27  and  N_28
REMARK   14  A    between atoms: C_31  and  C_34
REMARK   15  A    between atoms: C_31  and  C_40
REMARK                            x       y       z     vdW  Elec       q    Type
REMARK                         _______ _______ _______ _____ _____    ______ ____
ROOT
ATOM      1  C   UNL     1       5.602  -0.521  26.856  0.00  0.00    +0.338 C 
ATOM      2  O   UNL     1       5.293  -0.488  28.036  0.00  0.00    -0.245 OA
ENDROOT
BRANCH   1   5
ATOM      3  C   UNL     1       6.927  -3.747  25.044  0.00  0.00    +0.065 C 
ATOM      4  C   UNL     1       5.904  -2.654  25.393  0.00  0.00    +0.096 C 
ATOM      5  C   UNL     1       6.507  -1.524  26.243  0.00  0.00    +0.065 C 
ATOM      6  C   UNL     1       7.836  -1.457  26.480  0.00  0.00    +0.016 C 
ATOM      7  C   UNL     1       8.499  -0.400  27.330  0.00  0.00    +0.061 C 
ATOM      8  N   UNL     1       8.673  -2.407  25.930  0.00  0.00    -0.321 N 
ATOM      9  H   UNL     1       9.652  -2.372  26.204  0.00  0.00    +0.152 HD
ATOM     10  C   UNL     1       8.244  -3.568  25.306  0.00  0.00    +0.016 C 
ATOM     11  C   UNL     1       9.361  -4.535  24.991  0.00  0.00    +0.061 C 
BRANCH   4  12
ATOM     12  C   UNL     1       4.651  -3.217  26.068  0.00  0.00    -0.029 A 
ATOM     13  C   UNL     1       4.734  -3.808  27.336  0.00  0.00    +0.088 A 
ATOM     14  C   UNL     1       3.563  -4.205  27.998  0.00  0.00    +0.273 A 
ATOM     15  C   UNL     1       2.310  -4.060  27.387  0.00  0.00    +0.084 A 
ATOM     16  C   UNL     1       2.230  -3.503  26.110  0.00  0.00    +0.007 A 
ATOM     17  C   UNL     1       3.390  -3.079  25.460  0.00  0.00    +0.005 A 
BRANCH  14  18
ATOM     18  N   UNL     1       3.653  -4.746  29.360  0.00  0.00    +0.080 N 
ATOM     19  O   UNL     1       2.804  -5.578  29.709  0.00  0.00    +0.041 OA
ATOM     20  O   UNL     1       4.577  -4.338  30.082  0.00  0.00    -0.576 OA
ENDBRANCH  14  18
ENDBRANCH   4  12
BRANCH   3  21
ATOM     21  C   UNL     1       6.434  -5.037  24.495  0.00  0.00    +0.337 C 
ATOM     22  O   UNL     1       6.239  -6.038  25.171  0.00  0.00    -0.245 OA
BRANCH  21  24
ATOM     23  C   UNL     1       7.081  -5.700  22.349  0.00  0.00    +0.280 C 
ATOM     24  O   UNL     1       6.184  -4.941  23.164  0.00  0.00    -0.465 OA
ENDBRANCH  21  24
ENDBRANCH   3  21
ENDBRANCH   1   5
BRANCH   1  25
ATOM     25  O   UNL     1       5.227   0.370  25.909  0.00  0.00    -0.461 OA
BRANCH  25  26
ATOM     26  C   UNL     1       4.305   1.372  26.349  0.00  0.00    +0.234 C 
BRANCH  26  27
ATOM     27  C   UNL     1       5.115   2.656  26.428  0.00  0.00    +0.056 C 
BRANCH  27  28
ATOM     28  C   UNL     1       5.291   3.321  25.068  0.00  0.00    +0.087 C 
BRANCH  28  29
ATOM     29  N   UNL     1       6.422   4.263  25.035  0.00  0.00    -0.302 NA
ATOM     30  C   UNL     1       6.826   4.607  23.669  0.00  0.00    +0.085 C 
ATOM     31  C   UNL     1       7.542   3.459  22.958  0.00  0.00    +0.031 C 
ATOM     32  C   UNL     1       8.809   2.923  23.720  0.00  0.00    +0.023 C 
ATOM     33  C   UNL     1       8.303   2.625  25.174  0.00  0.00    +0.031 C 
ATOM     34  C   UNL     1       7.594   3.830  25.801  0.00  0.00    +0.085 C 
BRANCH  32  35
ATOM     35  C   UNL     1       9.971   3.961  23.710  0.00  0.00    -0.037 A 
ATOM     36  C   UNL     1       9.770   5.294  24.113  0.00  0.00    +0.004 A 
ATOM     37  C   UNL     1      10.827   6.211  24.166  0.00  0.00    +0.000 A 
ATOM     38  C   UNL     1      12.109   5.829  23.790  0.00  0.00    +0.000 A 
ATOM     39  C   UNL     1      12.332   4.534  23.342  0.00  0.00    +0.000 A 
ATOM     40  C   UNL     1      11.276   3.620  23.294  0.00  0.00    +0.004 A 
ENDBRANCH  32  35
BRANCH  32  41
ATOM     41  C   UNL     1       9.290   1.571  23.112  0.00  0.00    -0.037 A 
ATOM     42  C   UNL     1       9.900   0.599  23.930  0.00  0.00    +0.004 A 
ATOM     43  C   UNL     1      10.235  -0.665  23.435  0.00  0.00    +0.000 A 
ATOM     44  C   UNL     1       9.981  -0.987  22.107  0.00  0.00    +0.000 A 
ATOM     45  C   UNL     1       9.419  -0.035  21.267  0.00  0.00    +0.000 A 
ATOM     46  C   UNL     1       9.091   1.232  21.759  0.00  0.00    +0.004 A 
ENDBRANCH  32  41
ENDBRANCH  28  29
ENDBRANCH  27  28
ENDBRANCH  26  27
ENDBRANCH  25  26
ENDBRANCH   1  25
TORSDOF 12
ENDMDL
MODEL 9
REMARK VINA RESULT:      -6.4      3.246      7.922
REMARK  Name = 
REMARK  15 active torsions:
REMARK  status: ('A' for Active; 'I' for Inactive)
REMARK    1  A    between atoms: C_1  and  O_2
REMARK    2  A    between atoms: O_2  and  C_3
REMARK    3  A    between atoms: C_3  and  C_5
REMARK    4  A    between atoms: C_6  and  C_7
REMARK    5  A    between atoms: C_9  and  C_10
REMARK    6  A    between atoms: C_11  and  C_22
REMARK    7  A    between atoms: C_12  and  C_13
REMARK    8  A    between atoms: C_17  and  N_19
REMARK    9  A    between atoms: C_22  and  O_24
REMARK   10  A    between atoms: O_24  and  C_25
REMARK   11  A    between atoms: C_25  and  C_26
REMARK   12  A    between atoms: C_26  and  C_27
REMARK   13  A    between atoms: C_27  and  N_28
REMARK   14  A    between atoms: C_31  and  C_34
REMARK   15  A    between atoms: C_31  and  C_40
REMARK                            x       y       z     vdW  Elec       q    Type
REMARK                         _______ _______ _______ _____ _____    ______ ____
ROOT
ATOM      1  C   UNL     1       6.266   1.700  26.612  0.00  0.00    +0.338 C 
ATOM      2  O   UNL     1       7.418   1.697  27.017  0.00  0.00    -0.245 OA
ENDROOT
BRANCH   1   5
ATOM      3  C   UNL     1       4.594   4.587  24.536  0.00  0.00    +0.065 C 
ATOM      4  C   UNL     1       5.165   3.180  24.774  0.00  0.00    +0.096 C 
ATOM      5  C   UNL     1       5.496   2.916  26.253  0.00  0.00    +0.065 C 
ATOM      6  C   UNL     1       5.141   3.790  27.219  0.00  0.00    +0.016 C 
ATOM      7  C   UNL     1       5.459   3.618  28.685  0.00  0.00    +0.061 C 
ATOM      8  N   UNL     1       4.447   4.934  26.879  0.00  0.00    -0.321 N 
ATOM      9  H   UNL     1       4.276   5.608  27.622  0.00  0.00    +0.152 HD
ATOM     10  C   UNL     1       4.249   5.378  25.581  0.00  0.00    +0.016 C 
ATOM     11  C   UNL     1       3.651   6.763  25.498  0.00  0.00    +0.061 C 
BRANCH   4  12
ATOM     12  C   UNL     1       6.381   2.882  23.895  0.00  0.00    -0.029 A 
ATOM     13  C   UNL     1       7.586   3.570  24.096  0.00  0.00    +0.088 A 
ATOM     14  C   UNL     1       8.728   3.201  23.370  0.00  0.00    +0.273 A 
ATOM     15  C   UNL     1       8.669   2.181  22.411  0.00  0.00    +0.084 A 
ATOM     16  C   UNL     1       7.460   1.520  22.186  0.00  0.00    +0.007 A 
ATOM     17  C   UNL     1       6.329   1.863  22.927  0.00  0.00    +0.005 A 
BRANCH  14  18
ATOM     18  N   UNL     1      10.005   3.869  23.647  0.00  0.00    +0.080 N 
ATOM     19  O   UNL     1      11.048   3.247  23.406  0.00  0.00    +0.041 OA
ATOM     20  O   UNL     1       9.965   5.023  24.105  0.00  0.00    -0.576 OA
ENDBRANCH  14  18
ENDBRANCH   4  12
BRANCH   3  21
ATOM     21  C   UNL     1       4.511   5.096  23.143  0.00  0.00    +0.337 C 
ATOM     22  O   UNL     1       5.311   5.881  22.653  0.00  0.00    -0.245 OA
BRANCH  21  24
ATOM     23  C   UNL     1       2.640   5.489  21.797  0.00  0.00    +0.280 C 
ATOM     24  O   UNL     1       3.466   4.541  22.478  0.00  0.00    -0.465 OA
ENDBRANCH  21  24
ENDBRANCH   3  21
ENDBRANCH   1   5
BRANCH   1  25
ATOM     25  O   UNL     1       5.470   0.616  26.469  0.00  0.00    -0.461 OA
BRANCH  25  26
ATOM     26  C   UNL     1       4.748   0.233  27.644  0.00  0.00    +0.234 C 
BRANCH  26  27
ATOM     27  C   UNL     1       4.083  -1.089  27.294  0.00  0.00    +0.056 C 
BRANCH  27  28
ATOM     28  C   UNL     1       5.027  -2.276  27.441  0.00  0.00    +0.087 C 
BRANCH  28  29
ATOM     29  N   UNL     1       4.906  -3.241  26.337  0.00  0.00    -0.302 NA
ATOM     30  C   UNL     1       6.050  -4.154  26.261  0.00  0.00    +0.085 C 
ATOM     31  C   UNL     1       7.319  -3.470  25.749  0.00  0.00    +0.031 C 
ATOM     32  C   UNL     1       7.154  -2.779  24.347  0.00  0.00    +0.023 C 
ATOM     33  C   UNL     1       5.889  -1.864  24.500  0.00  0.00    +0.031 C 
ATOM     34  C   UNL     1       4.673  -2.634  25.023  0.00  0.00    +0.085 C 
BRANCH  32  35
ATOM     35  C   UNL     1       6.979  -3.826  23.205  0.00  0.00    -0.037 A 
ATOM     36  C   UNL     1       7.591  -5.091  23.268  0.00  0.00    +0.004 A 
ATOM     37  C   UNL     1       7.381  -6.056  22.274  0.00  0.00    +0.000 A 
ATOM     38  C   UNL     1       6.578  -5.772  21.175  0.00  0.00    +0.000 A 
ATOM     39  C   UNL     1       5.997  -4.517  21.060  0.00  0.00    +0.000 A 
ATOM     40  C   UNL     1       6.204  -3.557  22.056  0.00  0.00    +0.004 A 
ENDBRANCH  32  35
BRANCH  32  41
ATOM     41  C   UNL     1       8.365  -1.848  24.042  0.00  0.00    -0.037 A 
ATOM     42  C   UNL     1       8.782  -0.888  24.986  0.00  0.00    +0.004 A 
ATOM     43  C   UNL     1       9.934  -0.122  24.787  0.00  0.00    +0.000 A 
ATOM     44  C   UNL     1      10.694  -0.285  23.635  0.00  0.00    +0.000 A 
ATOM     45  C   UNL     1      10.285  -1.195  22.668  0.00  0.00    +0.000 A 
ATOM     46  C   UNL     1       9.129  -1.956  22.862  0.00  0.00    +0.004 A 
ENDBRANCH  32  41
ENDBRANCH  28  29
ENDBRANCH  27  28
ENDBRANCH  26  27
ENDBRANCH  25  26
ENDBRANCH   1  25
TORSDOF 12
ENDMDL
