MODEL 1
REMARK VINA RESULT:      -7.5      0.000      0.000
REMARK  Name = 
REMARK  3 active torsions:
REMARK  status: ('A' for Active; 'I' for Inactive)
REMARK    1  A    between atoms: C_1  and  N_2
REMARK    2  A    between atoms: C_6  and  C_7
REMARK    3  A    between atoms: C_8  and  C_9
REMARK                            x       y       z     vdW  Elec       q    Type
REMARK                         _______ _______ _______ _____ _____    ______ ____
ROOT
ATOM      1  C   UNL     1       7.086  -3.839  26.449  0.00  0.00    +0.151 C 
ATOM      2  N   UNL     1       7.154  -3.764  24.993  0.00  0.00    -0.325 N 
ATOM      3  C   UNL     1       6.457  -4.713  24.250  0.00  0.00    +0.170 A 
ATOM      4  C   UNL     1       6.528  -4.636  22.745  0.00  0.00    +0.171 A 
ATOM      5  C   UNL     1       5.772  -5.663  21.947  0.00  0.00    +0.282 A 
ATOM      6  N   UNL     1       5.103  -6.562  22.719  0.00  0.00    -0.272 N 
ATOM      7  H   UNL     1       4.572  -7.278  22.249  0.00  0.00    +0.174 HD
ATOM      8  C   UNL     1       5.067  -6.588  24.083  0.00  0.00    +0.351 A 
ATOM      9  O   UNL     1       4.404  -7.466  24.627  0.00  0.00    -0.245 OA
ATOM     10  O   UNL     1       5.764  -5.681  20.727  0.00  0.00    -0.265 OA
ATOM     11  N   UNL     1       7.215  -3.721  22.132  0.00  0.00    -0.237 NA
ATOM     12  C   UNL     1       7.910  -2.772  22.906  0.00  0.00    +0.089 A 
ATOM     13  C   UNL     1       8.638  -1.803  22.202  0.00  0.00    +0.033 A 
ATOM     14  C   UNL     1       9.368  -0.804  22.860  0.00  0.00    -0.045 A 
ATOM     15  C   UNL     1       9.363  -0.784  24.262  0.00  0.00    -0.045 A 
ATOM     16  C   UNL     1       8.630  -1.764  24.966  0.00  0.00    +0.031 A 
ATOM     17  C   UNL     1      10.107   0.242  25.074  0.00  0.00    +0.044 C 
ATOM     18  C   UNL     1      10.128   0.205  22.046  0.00  0.00    +0.044 C 
ATOM     19  N   UNL     1       5.753  -5.654  24.803  0.00  0.00    -0.173 NA
ATOM     20  C   UNL     1       7.894  -2.772  24.321  0.00  0.00    +0.069 A 
ENDROOT
TORSDOF 0
ENDMDL
MODEL 2
REMARK VINA RESULT:      -7.3      1.401      3.070
REMARK  Name = 
REMARK  3 active torsions:
REMARK  status: ('A' for Active; 'I' for Inactive)
REMARK    1  A    between atoms: C_1  and  N_2
REMARK    2  A    between atoms: C_6  and  C_7
REMARK    3  A    between atoms: C_8  and  C_9
REMARK                            x       y       z     vdW  Elec       q    Type
REMARK                         _______ _______ _______ _____ _____    ______ ____
ROOT
ATOM      1  C   UNL     1       6.196  -4.063  21.843  0.00  0.00    +0.151 C 
ATOM      2  N   UNL     1       6.804  -3.847  23.152  0.00  0.00    -0.325 N 
ATOM      3  C   UNL     1       6.442  -4.693  24.196  0.00  0.00    +0.170 A 
ATOM      4  C   UNL     1       7.070  -4.469  25.549  0.00  0.00    +0.171 A 
ATOM      5  C   UNL     1       6.676  -5.387  26.674  0.00  0.00    +0.282 A 
ATOM      6  N   UNL     1       5.765  -6.330  26.307  0.00  0.00    -0.272 N 
ATOM      7  H   UNL     1       5.458  -6.981  27.013  0.00  0.00    +0.174 HD
ATOM      8  C   UNL     1       5.227  -6.495  25.065  0.00  0.00    +0.351 A 
ATOM      9  O   UNL     1       4.421  -7.406  24.900  0.00  0.00    -0.245 OA
ATOM     10  O   UNL     1       7.133  -5.290  27.801  0.00  0.00    -0.265 OA
ATOM     11  N   UNL     1       7.929  -3.519  25.763  0.00  0.00    -0.237 NA
ATOM     12  C   UNL     1       8.281  -2.678  24.690  0.00  0.00    +0.089 A 
ATOM     13  C   UNL     1       9.211  -1.667  24.967  0.00  0.00    +0.033 A 
ATOM     14  C   UNL     1       9.641  -0.769  23.981  0.00  0.00    -0.045 A 
ATOM     15  C   UNL     1       9.120  -0.895  22.686  0.00  0.00    -0.045 A 
ATOM     16  C   UNL     1       8.182  -1.914  22.413  0.00  0.00    +0.031 A 
ATOM     17  C   UNL     1       9.512   0.010  21.548  0.00  0.00    +0.044 C 
ATOM     18  C   UNL     1      10.641   0.293  24.344  0.00  0.00    +0.044 C 
ATOM     19  N   UNL     1       5.588  -5.661  24.047  0.00  0.00    -0.173 NA
ATOM     20  C   UNL     1       7.739  -2.821  23.390  0.00  0.00    +0.069 A 
ENDROOT
TORSDOF 0
ENDMDL
MODEL 3
REMARK VINA RESULT:      -7.1      3.096      3.445
REMARK  Name = 
REMARK  3 active torsions:
REMARK  status: ('A' for Active; 'I' for Inactive)
REMARK    1  A    between atoms: C_1  and  N_2
REMARK    2  A    between atoms: C_6  and  C_7
REMARK    3  A    between atoms: C_8  and  C_9
REMARK                            x       y       z     vdW  Elec       q    Type
REMARK                         _______ _______ _______ _____ _____    ______ ____
ROOT
ATOM      1  C   UNL     1       5.389  -1.854  26.101  0.00  0.00    +0.151 C 
ATOM      2  N   UNL     1       6.663  -2.181  25.467  0.00  0.00    -0.325 N 
ATOM      3  C   UNL     1       7.323  -3.339  25.869  0.00  0.00    +0.170 A 
ATOM      4  C   UNL     1       8.640  -3.676  25.215  0.00  0.00    +0.171 A 
ATOM      5  C   UNL     1       9.348  -4.929  25.652  0.00  0.00    +0.282 A 
ATOM      6  N   UNL     1       8.682  -5.616  26.621  0.00  0.00    -0.272 N 
ATOM      7  H   UNL     1       9.099  -6.468  26.958  0.00  0.00    +0.174 HD
ATOM      8  C   UNL     1       7.486  -5.270  27.180  0.00  0.00    +0.351 A 
ATOM      9  O   UNL     1       7.016  -6.009  28.040  0.00  0.00    -0.245 OA
ATOM     10  O   UNL     1      10.413  -5.288  25.179  0.00  0.00    -0.265 OA
ATOM     11  N   UNL     1       9.169  -2.922  24.299  0.00  0.00    -0.237 NA
ATOM     12  C   UNL     1       8.481  -1.757  23.909  0.00  0.00    +0.089 A 
ATOM     13  C   UNL     1       9.089  -0.974  22.918  0.00  0.00    +0.033 A 
ATOM     14  C   UNL     1       8.502   0.207  22.446  0.00  0.00    -0.045 A 
ATOM     15  C   UNL     1       7.271   0.606  22.986  0.00  0.00    -0.045 A 
ATOM     16  C   UNL     1       6.664  -0.185  23.985  0.00  0.00    +0.031 A 
ATOM     17  C   UNL     1       6.547   1.853  22.553  0.00  0.00    +0.044 C 
ATOM     18  C   UNL     1       9.207   1.000  21.381  0.00  0.00    +0.044 C 
ATOM     19  N   UNL     1       6.847  -4.133  26.780  0.00  0.00    -0.173 NA
ATOM     20  C   UNL     1       7.242  -1.370  24.471  0.00  0.00    +0.069 A 
ENDROOT
TORSDOF 0
ENDMDL
MODEL 4
REMARK VINA RESULT:      -6.9      4.193      5.865
REMARK  Name = 
REMARK  3 active torsions:
REMARK  status: ('A' for Active; 'I' for Inactive)
REMARK    1  A    between atoms: C_1  and  N_2
REMARK    2  A    between atoms: C_6  and  C_7
REMARK    3  A    between atoms: C_8  and  C_9
REMARK                            x       y       z     vdW  Elec       q    Type
REMARK                         _______ _______ _______ _____ _____    ______ ____
ROOT
ATOM      1  C   UNL     1       6.309   2.374  23.600  0.00  0.00    +0.151 C 
ATOM      2  N   UNL     1       7.682   1.931  23.381  0.00  0.00    -0.325 N 
ATOM      3  C   UNL     1       7.906   0.586  23.099  0.00  0.00    +0.170 A 
ATOM      4  C   UNL     1       9.326   0.129  22.874  0.00  0.00    +0.171 A 
ATOM      5  C   UNL     1       9.562  -1.325  22.568  0.00  0.00    +0.282 A 
ATOM      6  N   UNL     1       8.419  -2.063  22.541  0.00  0.00    -0.272 N 
ATOM      7  H   UNL     1       8.503  -3.047  22.339  0.00  0.00    +0.174 HD
ATOM      8  C   UNL     1       7.152  -1.601  22.748  0.00  0.00    +0.351 A 
ATOM      9  O   UNL     1       6.226  -2.403  22.678  0.00  0.00    -0.245 OA
ATOM     10  O   UNL     1      10.672  -1.789  22.366  0.00  0.00    -0.265 OA
ATOM     11  N   UNL     1      10.333   0.947  22.936  0.00  0.00    -0.237 NA
ATOM     12  C   UNL     1      10.080   2.302  23.221  0.00  0.00    +0.089 A 
ATOM     13  C   UNL     1      11.196   3.148  23.279  0.00  0.00    +0.033 A 
ATOM     14  C   UNL     1      11.073   4.516  23.552  0.00  0.00    -0.045 A 
ATOM     15  C   UNL     1       9.793   5.044  23.771  0.00  0.00    -0.045 A 
ATOM     16  C   UNL     1       8.672   4.187  23.714  0.00  0.00    +0.031 A 
ATOM     17  C   UNL     1       9.541   6.498  24.069  0.00  0.00    +0.044 C 
ATOM     18  C   UNL     1      12.311   5.368  23.599  0.00  0.00    +0.044 C 
ATOM     19  N   UNL     1       6.942  -0.281  23.024  0.00  0.00    -0.173 NA
ATOM     20  C   UNL     1       8.779   2.813  23.444  0.00  0.00    +0.069 A 
ENDROOT
TORSDOF 0
ENDMDL
MODEL 5
REMARK VINA RESULT:      -6.7      3.679      5.057
REMARK  Name = 
REMARK  3 active torsions:
REMARK  status: ('A' for Active; 'I' for Inactive)
REMARK    1  A    between atoms: C_1  and  N_2
REMARK    2  A    between atoms: C_6  and  C_7
REMARK    3  A    between atoms: C_8  and  C_9
REMARK                            x       y       z     vdW  Elec       q    Type
REMARK                         _______ _______ _______ _____ _____    ______ ____
ROOT
ATOM      1  C   UNL     1      11.073   0.637  24.829  0.00  0.00    +0.151 C 
ATOM      2  N   UNL     1       9.780   0.582  24.153  0.00  0.00    -0.325 N 
ATOM      3  C   UNL     1       9.211  -0.666  23.915  0.00  0.00    +0.170 A 
ATOM      4  C   UNL     1       7.876  -0.721  23.215  0.00  0.00    +0.171 A 
ATOM      5  C   UNL     1       7.264  -2.072  22.963  0.00  0.00    +0.282 A 
ATOM      6  N   UNL     1       8.030  -3.105  23.413  0.00  0.00    -0.272 N 
ATOM      7  H   UNL     1       7.679  -4.039  23.278  0.00  0.00    +0.174 HD
ATOM      8  C   UNL     1       9.234  -3.002  24.045  0.00  0.00    +0.351 A 
ATOM      9  O   UNL     1       9.792  -4.037  24.396  0.00  0.00    -0.245 OA
ATOM     10  O   UNL     1       6.188  -2.220  22.409  0.00  0.00    -0.265 OA
ATOM     11  N   UNL     1       7.252   0.351  22.832  0.00  0.00    -0.237 NA
ATOM     12  C   UNL     1       7.848   1.601  23.084  0.00  0.00    +0.089 A 
ATOM     13  C   UNL     1       7.139   2.730  22.653  0.00  0.00    +0.033 A 
ATOM     14  C   UNL     1       7.628   4.029  22.849  0.00  0.00    -0.045 A 
ATOM     15  C   UNL     1       8.861   4.191  23.496  0.00  0.00    -0.045 A 
ATOM     16  C   UNL     1       9.572   3.050  23.927  0.00  0.00    +0.031 A 
ATOM     17  C   UNL     1       9.481   5.536  23.764  0.00  0.00    +0.044 C 
ATOM     18  C   UNL     1       6.818   5.198  22.362  0.00  0.00    +0.044 C 
ATOM     19  N   UNL     1       9.785  -1.775  24.273  0.00  0.00    -0.173 NA
ATOM     20  C   UNL     1       9.096   1.741  23.736  0.00  0.00    +0.069 A 
ENDROOT
TORSDOF 0
ENDMDL
MODEL 6
REMARK VINA RESULT:      -6.6      3.091      3.462
REMARK  Name = 
REMARK  3 active torsions:
REMARK  status: ('A' for Active; 'I' for Inactive)
REMARK    1  A    between atoms: C_1  and  N_2
REMARK    2  A    between atoms: C_6  and  C_7
REMARK    3  A    between atoms: C_8  and  C_9
REMARK                            x       y       z     vdW  Elec       q    Type
REMARK                         _______ _______ _______ _____ _____    ______ ____
ROOT
ATOM      1  C   UNL     1       5.793  -1.328  26.720  0.00  0.00    +0.151 C 
ATOM      2  N   UNL     1       7.068  -1.667  26.095  0.00  0.00    -0.325 N 
ATOM      3  C   UNL     1       7.462  -3.002  26.080  0.00  0.00    +0.170 A 
ATOM      4  C   UNL     1       8.780  -3.352  25.435  0.00  0.00    +0.171 A 
ATOM      5  C   UNL     1       9.200  -4.796  25.419  0.00  0.00    +0.282 A 
ATOM      6  N   UNL     1       8.301  -5.627  26.018  0.00  0.00    -0.272 N 
ATOM      7  H   UNL     1       8.519  -6.610  26.040  0.00  0.00    +0.174 HD
ATOM      8  C   UNL     1       7.116  -5.261  26.585  0.00  0.00    +0.351 A 
ATOM      9  O   UNL     1       6.415  -6.140  27.076  0.00  0.00    -0.245 OA
ATOM     10  O   UNL     1      10.244  -5.178  24.918  0.00  0.00    -0.265 OA
ATOM     11  N   UNL     1       9.548  -2.451  24.902  0.00  0.00    -0.237 NA
ATOM     12  C   UNL     1       9.127  -1.108  24.929  0.00  0.00    +0.089 A 
ATOM     13  C   UNL     1       9.988  -0.171  24.342  0.00  0.00    +0.033 A 
ATOM     14  C   UNL     1       9.678   1.195  24.305  0.00  0.00    -0.045 A 
ATOM     15  C   UNL     1       8.471   1.625  24.873  0.00  0.00    -0.045 A 
ATOM     16  C   UNL     1       7.608   0.676  25.465  0.00  0.00    +0.031 A 
ATOM     17  C   UNL     1       8.033   3.065  24.889  0.00  0.00    +0.044 C 
ATOM     18  C   UNL     1      10.645   2.148  23.661  0.00  0.00    +0.044 C 
ATOM     19  N   UNL     1       6.739  -3.950  26.597  0.00  0.00    -0.173 NA
ATOM     20  C   UNL     1       7.905  -0.696  25.512  0.00  0.00    +0.069 A 
ENDROOT
TORSDOF 0
ENDMDL
MODEL 7
REMARK VINA RESULT:      -6.4      3.455      6.518
REMARK  Name = 
REMARK  3 active torsions:
REMARK  status: ('A' for Active; 'I' for Inactive)
REMARK    1  A    between atoms: C_1  and  N_2
REMARK    2  A    between atoms: C_6  and  C_7
REMARK    3  A    between atoms: C_8  and  C_9
REMARK                            x       y       z     vdW  Elec       q    Type
REMARK                         _______ _______ _______ _____ _____    ______ ____
ROOT
ATOM      1  C   UNL     1       9.039  -1.863  21.406  0.00  0.00    +0.151 C 
ATOM      2  N   UNL     1       8.588  -2.111  22.772  0.00  0.00    -0.325 N 
ATOM      3  C   UNL     1       9.037  -1.261  23.779  0.00  0.00    +0.170 A 
ATOM      4  C   UNL     1       8.571  -1.518  25.191  0.00  0.00    +0.171 A 
ATOM      5  C   UNL     1       9.057  -0.596  26.276  0.00  0.00    +0.282 A 
ATOM      6  N   UNL     1       9.889   0.381  25.822  0.00  0.00    -0.272 N 
ATOM      7  H   UNL     1      10.250   1.037  26.496  0.00  0.00    +0.174 HD
ATOM      8  C   UNL     1      10.279   0.575  24.529  0.00  0.00    +0.351 A 
ATOM      9  O   UNL     1      11.030   1.515  24.286  0.00  0.00    -0.245 OA
ATOM     10  O   UNL     1       8.733  -0.719  27.446  0.00  0.00    -0.265 OA
ATOM     11  N   UNL     1       7.774  -2.500  25.488  0.00  0.00    -0.237 NA
ATOM     12  C   UNL     1       7.334  -3.344  24.451  0.00  0.00    +0.089 A 
ATOM     13  C   UNL     1       6.476  -4.389  24.817  0.00  0.00    +0.033 A 
ATOM     14  C   UNL     1       5.969  -5.294  23.875  0.00  0.00    -0.045 A 
ATOM     15  C   UNL     1       6.337  -5.139  22.531  0.00  0.00    -0.045 A 
ATOM     16  C   UNL     1       7.203  -4.085  22.168  0.00  0.00    +0.031 A 
ATOM     17  C   UNL     1       5.851  -6.048  21.434  0.00  0.00    +0.044 C 
ATOM     18  C   UNL     1       5.053  -6.393  24.335  0.00  0.00    +0.044 C 
ATOM     19  N   UNL     1       9.835  -0.263  23.548  0.00  0.00    -0.173 NA
ATOM     20  C   UNL     1       7.722  -3.171  23.101  0.00  0.00    +0.069 A 
ENDROOT
TORSDOF 0
ENDMDL
MODEL 8
REMARK VINA RESULT:      -6.4      3.000      6.233
REMARK  Name = 
REMARK  3 active torsions:
REMARK  status: ('A' for Active; 'I' for Inactive)
REMARK    1  A    between atoms: C_1  and  N_2
REMARK    2  A    between atoms: C_6  and  C_7
REMARK    3  A    between atoms: C_8  and  C_9
REMARK                            x       y       z     vdW  Elec       q    Type
REMARK                         _______ _______ _______ _____ _____    ______ ____
ROOT
ATOM      1  C   UNL     1       6.611  -4.010  22.038  0.00  0.00    +0.151 C 
ATOM      2  N   UNL     1       7.151  -3.511  23.300  0.00  0.00    -0.325 N 
ATOM      3  C   UNL     1       8.005  -2.413  23.264  0.00  0.00    +0.170 A 
ATOM      4  C   UNL     1       8.563  -1.899  24.568  0.00  0.00    +0.171 A 
ATOM      5  C   UNL     1       9.485  -0.711  24.525  0.00  0.00    +0.282 A 
ATOM      6  N   UNL     1       9.705  -0.244  23.265  0.00  0.00    -0.272 N 
ATOM      7  H   UNL     1      10.312   0.554  23.162  0.00  0.00    +0.174 HD
ATOM      8  C   UNL     1       9.172  -0.744  22.113  0.00  0.00    +0.351 A 
ATOM      9  O   UNL     1       9.468  -0.197  21.055  0.00  0.00    -0.245 OA
ATOM     10  O   UNL     1       9.982  -0.220  25.524  0.00  0.00    -0.265 OA
ATOM     11  N   UNL     1       8.272  -2.448  25.708  0.00  0.00    -0.237 NA
ATOM     12  C   UNL     1       7.404  -3.557  25.718  0.00  0.00    +0.089 A 
ATOM     13  C   UNL     1       7.118  -4.116  26.970  0.00  0.00    +0.033 A 
ATOM     14  C   UNL     1       6.267  -5.221  27.109  0.00  0.00    -0.045 A 
ATOM     15  C   UNL     1       5.691  -5.772  25.956  0.00  0.00    -0.045 A 
ATOM     16  C   UNL     1       5.984  -5.205  24.696  0.00  0.00    +0.031 A 
ATOM     17  C   UNL     1       4.760  -6.955  25.985  0.00  0.00    +0.044 C 
ATOM     18  C   UNL     1       6.002  -5.773  28.481  0.00  0.00    +0.044 C 
ATOM     19  N   UNL     1       8.336  -1.821  22.156  0.00  0.00    -0.173 NA
ATOM     20  C   UNL     1       6.837  -4.100  24.540  0.00  0.00    +0.069 A 
ENDROOT
TORSDOF 0
ENDMDL
MODEL 9
REMARK VINA RESULT:      -6.3      2.824      4.223
REMARK  Name = 
REMARK  3 active torsions:
REMARK  status: ('A' for Active; 'I' for Inactive)
REMARK    1  A    between atoms: C_1  and  N_2
REMARK    2  A    between atoms: C_6  and  C_7
REMARK    3  A    between atoms: C_8  and  C_9
REMARK                            x       y       z     vdW  Elec       q    Type
REMARK                         _______ _______ _______ _____ _____    ______ ____
ROOT
ATOM      1  C   UNL     1      10.291  -1.480  22.280  0.00  0.00    +0.151 C 
ATOM      2  N   UNL     1       9.155  -0.950  23.027  0.00  0.00    -0.325 N 
ATOM      3  C   UNL     1       8.092  -1.803  23.306  0.00  0.00    +0.170 A 
ATOM      4  C   UNL     1       6.917  -1.254  24.078  0.00  0.00    +0.171 A 
ATOM      5  C   UNL     1       5.771  -2.181  24.378  0.00  0.00    +0.282 A 
ATOM      6  N   UNL     1       5.952  -3.440  23.890  0.00  0.00    -0.272 N 
ATOM      7  H   UNL     1       5.223  -4.114  24.058  0.00  0.00    +0.174 HD
ATOM      8  C   UNL     1       7.038  -3.890  23.199  0.00  0.00    +0.351 A 
ATOM      9  O   UNL     1       7.046  -5.062  22.836  0.00  0.00    -0.245 OA
ATOM     10  O   UNL     1       4.781  -1.833  24.999  0.00  0.00    -0.265 OA
ATOM     11  N   UNL     1       6.872  -0.021  24.482  0.00  0.00    -0.237 NA
ATOM     12  C   UNL     1       7.961   0.822  24.188  0.00  0.00    +0.089 A 
ATOM     13  C   UNL     1       7.869   2.144  24.644  0.00  0.00    +0.033 A 
ATOM     14  C   UNL     1       8.889   3.077  24.415  0.00  0.00    -0.045 A 
ATOM     15  C   UNL     1      10.029   2.665  23.711  0.00  0.00    -0.045 A 
ATOM     16  C   UNL     1      10.116   1.332  23.252  0.00  0.00    +0.031 A 
ATOM     17  C   UNL     1      11.187   3.579  23.411  0.00  0.00    +0.044 C 
ATOM     18  C   UNL     1       8.727   4.480  24.931  0.00  0.00    +0.044 C 
ATOM     19  N   UNL     1       8.076  -3.046  22.929  0.00  0.00    -0.173 NA
ATOM     20  C   UNL     1       9.100   0.386  23.472  0.00  0.00    +0.069 A 
ENDROOT
TORSDOF 0
ENDMDL
