MODEL 1
REMARK VINA RESULT:      -6.7      0.000      0.000
REMARK  Name = 
REMARK  14 active torsions:
REMARK  status: ('A' for Active; 'I' for Inactive)
REMARK    1  A    between atoms: O_1  and  C_2
REMARK    2  A    between atoms: C_2  and  C_3
REMARK    3  A    between atoms: C_6  and  O_8
REMARK    4  A    between atoms: O_8  and  C_9
REMARK    5  A    between atoms: C_11  and  C_18
REMARK    6  A    between atoms: C_13  and  N_15
REMARK    7  A    between atoms: N_20  and  C_21
REMARK    8  A    between atoms: C_21  and  C_22
REMARK    9  A    between atoms: C_21  and  C_29
REMARK   10  A    between atoms: C_22  and  N_23
REMARK   11  A    between atoms: C_29  and  N_30
REMARK   12  A    between atoms: C_36  and  O_38
REMARK   13  A    between atoms: C_39  and  O_41
REMARK   14  A    between atoms: C_42  and  O_44
REMARK                            x       y       z     vdW  Elec       q    Type
REMARK                         _______ _______ _______ _____ _____    ______ ____
ROOT
ATOM      1  C   UNL     1       5.593  -2.790  27.178  0.00  0.00    +0.131 A 
ATOM      2  C   UNL     1       4.259  -2.494  27.458  0.00  0.00    +0.130 A 
ATOM      3  C   UNL     1       3.761  -1.237  27.117  0.00  0.00    +0.277 A 
ATOM      4  C   UNL     1       4.559  -0.262  26.510  0.00  0.00    +0.097 A 
ATOM      5  C   UNL     1       5.905  -0.546  26.231  0.00  0.00    +0.047 A 
ATOM      6  C   UNL     1       6.398  -1.832  26.523  0.00  0.00    +0.059 A 
ENDROOT
BRANCH   5   7
ATOM      7  C   UNL     1       6.748   0.596  25.727  0.00  0.00    +0.245 C 
ATOM      8  N   UNL     1       6.679   0.938  24.394  0.00  0.00    -0.306 N 
ATOM      9  H   UNL     1       6.050   0.460  23.766  0.00  0.00    +0.149 HD
ATOM     10  O   UNL     1       7.527   1.146  26.500  0.00  0.00    -0.270 OA
BRANCH   8  11
ATOM     11  C   UNL     1       7.660   1.861  23.767  0.00  0.00    +0.101 C 
BRANCH  11  12
ATOM     12  C   UNL     1       6.990   3.241  23.453  0.00  0.00    +0.108 C 
BRANCH  12  13
ATOM     13  N   UNL     1       7.310   4.330  24.412  0.00  0.00    -0.296 NA
ATOM     14  C   UNL     1       7.015   5.672  23.852  0.00  0.00    +0.112 C 
ATOM     15  C   UNL     1       8.051   6.187  22.839  0.00  0.00    +0.175 C 
ATOM     16  O   UNL     1       9.362   6.213  23.413  0.00  0.00    -0.377 OA
ATOM     17  C   UNL     1       9.735   4.904  23.858  0.00  0.00    +0.175 C 
ATOM     18  C   UNL     1       8.721   4.335  24.871  0.00  0.00    +0.112 C 
ENDBRANCH  12  13
ENDBRANCH  11  12
BRANCH  11  19
ATOM     19  C   UNL     1       8.268   1.168  22.492  0.00  0.00    +0.108 C 
BRANCH  19  20
ATOM     20  N   UNL     1       9.634   0.620  22.585  0.00  0.00    -0.296 NA
ATOM     21  C   UNL     1       9.831  -0.550  21.693  0.00  0.00    +0.112 C 
ATOM     22  C   UNL     1       9.323  -1.886  22.254  0.00  0.00    +0.175 C 
ATOM     23  O   UNL     1       9.962  -2.176  23.501  0.00  0.00    -0.377 OA
ATOM     24  C   UNL     1       9.658  -1.151  24.453  0.00  0.00    +0.175 C 
ATOM     25  C   UNL     1      10.063   0.252  23.954  0.00  0.00    +0.112 C 
ENDBRANCH  19  20
ENDBRANCH  11  19
ENDBRANCH   8  11
ENDBRANCH   5   7
BRANCH   3  26
ATOM     26  N   UNL     1       2.394  -0.905  27.474  0.00  0.00    +0.080 N 
ATOM     27  O   UNL     1       1.541  -1.026  26.585  0.00  0.00    +0.041 OA
ATOM     28  O   UNL     1       2.181  -0.545  28.637  0.00  0.00    -0.576 OA
ENDBRANCH   3  26
BRANCH   1  29
ATOM     29  O   UNL     1       6.192  -3.983  27.464  0.00  0.00    -0.461 OA
BRANCH  29  34
ATOM     30  C   UNL     1       6.230  -5.226  24.008  0.00  0.00    +0.179 C 
ATOM     31  C   UNL     1       7.716  -5.063  23.656  0.00  0.00    +0.177 C 
ATOM     32  C   UNL     1       8.580  -5.352  24.890  0.00  0.00    +0.180 C 
ATOM     33  C   UNL     1       8.109  -4.543  26.103  0.00  0.00    +0.214 C 
ATOM     34  C   UNL     1       6.600  -4.784  26.331  0.00  0.00    +0.339 C 
ATOM     35  O   UNL     1       5.878  -4.421  25.151  0.00  0.00    -0.331 OA
BRANCH  31  36
ATOM     36  O   UNL     1       8.052  -5.923  22.560  0.00  0.00    -0.386 OA
ATOM     37  H   UNL     1       9.020  -5.999  22.496  0.00  0.00    +0.210 HD
ENDBRANCH  31  36
BRANCH  32  38
ATOM     38  O   UNL     1       9.955  -5.058  24.614  0.00  0.00    -0.386 OA
ATOM     39  H   UNL     1       9.976  -4.592  23.754  0.00  0.00    +0.210 HD
ENDBRANCH  32  38
BRANCH  33  40
ATOM     40  O   UNL     1       8.929  -4.911  27.227  0.00  0.00    -0.383 OA
ATOM     41  H   UNL     1       8.498  -4.597  28.042  0.00  0.00    +0.210 HD
ENDBRANCH  33  40
BRANCH  30  42
ATOM     42  C   UNL     1       5.360  -4.814  22.811  0.00  0.00    +0.190 C 
BRANCH  42  43
ATOM     43  O   UNL     1       5.083  -5.954  21.998  0.00  0.00    -0.392 OA
ATOM     44  H   UNL     1       4.115  -6.000  21.903  0.00  0.00    +0.210 HD
ENDBRANCH  42  43
ENDBRANCH  30  42
ENDBRANCH  29  34
ENDBRANCH   1  29
TORSDOF 14
ENDMDL
MODEL 2
REMARK VINA RESULT:      -6.6      2.700      5.760
REMARK  Name = 
REMARK  14 active torsions:
REMARK  status: ('A' for Active; 'I' for Inactive)
REMARK    1  A    between atoms: O_1  and  C_2
REMARK    2  A    between atoms: C_2  and  C_3
REMARK    3  A    between atoms: C_6  and  O_8
REMARK    4  A    between atoms: O_8  and  C_9
REMARK    5  A    between atoms: C_11  and  C_18
REMARK    6  A    between atoms: C_13  and  N_15
REMARK    7  A    between atoms: N_20  and  C_21
REMARK    8  A    between atoms: C_21  and  C_22
REMARK    9  A    between atoms: C_21  and  C_29
REMARK   10  A    between atoms: C_22  and  N_23
REMARK   11  A    between atoms: C_29  and  N_30
REMARK   12  A    between atoms: C_36  and  O_38
REMARK   13  A    between atoms: C_39  and  O_41
REMARK   14  A    between atoms: C_42  and  O_44
REMARK                            x       y       z     vdW  Elec       q    Type
REMARK                         _______ _______ _______ _____ _____    ______ ____
ROOT
ATOM      1  C   UNL     1       6.785  -2.947  22.711  0.00  0.00    +0.131 A 
ATOM      2  C   UNL     1       8.088  -2.618  22.340  0.00  0.00    +0.130 A 
ATOM      3  C   UNL     1       8.607  -1.382  22.725  0.00  0.00    +0.277 A 
ATOM      4  C   UNL     1       7.859  -0.461  23.466  0.00  0.00    +0.097 A 
ATOM      5  C   UNL     1       6.544  -0.779  23.839  0.00  0.00    +0.047 A 
ATOM      6  C   UNL     1       6.034  -2.047  23.499  0.00  0.00    +0.059 A 
ENDROOT
BRANCH   5   7
ATOM      7  C   UNL     1       5.742   0.316  24.492  0.00  0.00    +0.245 C 
ATOM      8  N   UNL     1       5.840   1.598  23.999  0.00  0.00    -0.306 N 
ATOM      9  H   UNL     1       6.409   1.804  23.191  0.00  0.00    +0.149 HD
ATOM     10  O   UNL     1       5.080   0.052  25.491  0.00  0.00    -0.270 OA
BRANCH   8  11
ATOM     11  C   UNL     1       5.301   2.769  24.740  0.00  0.00    +0.101 C 
BRANCH  11  12
ATOM     12  C   UNL     1       3.832   3.071  24.291  0.00  0.00    +0.108 C 
BRANCH  12  13
ATOM     13  N   UNL     1       3.699   4.072  23.200  0.00  0.00    -0.296 NA
ATOM     14  C   UNL     1       2.794   5.187  23.573  0.00  0.00    +0.112 C 
ATOM     15  C   UNL     1       1.296   4.845  23.514  0.00  0.00    +0.175 C 
ATOM     16  O   UNL     1       0.927   4.377  22.213  0.00  0.00    -0.377 OA
ATOM     17  C   UNL     1       1.697   3.220  21.865  0.00  0.00    +0.175 C 
ATOM     18  C   UNL     1       3.212   3.507  21.919  0.00  0.00    +0.112 C 
ENDBRANCH  12  13
ENDBRANCH  11  12
BRANCH  11  19
ATOM     19  C   UNL     1       6.271   3.991  24.534  0.00  0.00    +0.108 C 
BRANCH  19  20
ATOM     20  N   UNL     1       7.327   3.875  23.511  0.00  0.00    -0.296 NA
ATOM     21  C   UNL     1       8.687   3.989  24.094  0.00  0.00    +0.112 C 
ATOM     22  C   UNL     1       9.170   5.426  24.339  0.00  0.00    +0.175 C 
ATOM     23  O   UNL     1       9.155   6.170  23.117  0.00  0.00    -0.377 OA
ATOM     24  C   UNL     1       7.821   6.233  22.602  0.00  0.00    +0.175 C 
ATOM     25  C   UNL     1       7.209   4.831  22.386  0.00  0.00    +0.112 C 
ENDBRANCH  19  20
ENDBRANCH  11  19
ENDBRANCH   8  11
ENDBRANCH   5   7
BRANCH   3  26
ATOM     26  N   UNL     1       9.936  -1.011  22.276  0.00  0.00    +0.080 N 
ATOM     27  O   UNL     1      10.090   0.159  21.899  0.00  0.00    +0.041 OA
ATOM     28  O   UNL     1      10.815  -1.878  22.319  0.00  0.00    -0.576 OA
ENDBRANCH   3  26
BRANCH   1  29
ATOM     29  O   UNL     1       6.169  -4.125  22.394  0.00  0.00    -0.461 OA
BRANCH  29  34
ATOM     30  C   UNL     1       6.642  -5.601  25.723  0.00  0.00    +0.179 C 
ATOM     31  C   UNL     1       5.228  -6.129  26.012  0.00  0.00    +0.177 C 
ATOM     32  C   UNL     1       4.585  -6.637  24.715  0.00  0.00    +0.180 C 
ATOM     33  C   UNL     1       4.671  -5.587  23.602  0.00  0.00    +0.214 C 
ATOM     34  C   UNL     1       6.137  -5.132  23.431  0.00  0.00    +0.339 C 
ATOM     35  O   UNL     1       6.620  -4.614  24.673  0.00  0.00    -0.331 OA
BRANCH  31  36
ATOM     36  O   UNL     1       5.287  -7.154  27.011  0.00  0.00    -0.386 OA
ATOM     37  H   UNL     1       6.029  -7.752  26.815  0.00  0.00    +0.210 HD
ENDBRANCH  31  36
BRANCH  32  38
ATOM     38  O   UNL     1       3.216  -6.991  24.945  0.00  0.00    -0.386 OA
ATOM     39  H   UNL     1       2.730  -6.784  24.122  0.00  0.00    +0.210 HD
ENDBRANCH  32  38
BRANCH  33  40
ATOM     40  O   UNL     1       4.101  -6.157  22.410  0.00  0.00    -0.383 OA
ATOM     41  H   UNL     1       4.726  -6.027  21.674  0.00  0.00    +0.210 HD
ENDBRANCH  33  40
BRANCH  30  42
ATOM     42  C   UNL     1       7.237  -4.977  26.995  0.00  0.00    +0.190 C 
BRANCH  42  43
ATOM     43  O   UNL     1       7.645  -6.007  27.896  0.00  0.00    -0.392 OA
ATOM     44  H   UNL     1       6.831  -6.440  28.208  0.00  0.00    +0.210 HD
ENDBRANCH  42  43
ENDBRANCH  30  42
ENDBRANCH  29  34
ENDBRANCH   1  29
TORSDOF 14
ENDMDL
MODEL 3
REMARK VINA RESULT:      -6.5      2.936      5.507
REMARK  Name = 
REMARK  14 active torsions:
REMARK  status: ('A' for Active; 'I' for Inactive)
REMARK    1  A    between atoms: O_1  and  C_2
REMARK    2  A    between atoms: C_2  and  C_3
REMARK    3  A    between atoms: C_6  and  O_8
REMARK    4  A    between atoms: O_8  and  C_9
REMARK    5  A    between atoms: C_11  and  C_18
REMARK    6  A    between atoms: C_13  and  N_15
REMARK    7  A    between atoms: N_20  and  C_21
REMARK    8  A    between atoms: C_21  and  C_22
REMARK    9  A    between atoms: C_21  and  C_29
REMARK   10  A    between atoms: C_22  and  N_23
REMARK   11  A    between atoms: C_29  and  N_30
REMARK   12  A    between atoms: C_36  and  O_38
REMARK   13  A    between atoms: C_39  and  O_41
REMARK   14  A    between atoms: C_42  and  O_44
REMARK                            x       y       z     vdW  Elec       q    Type
REMARK                         _______ _______ _______ _____ _____    ______ ____
ROOT
ATOM      1  C   UNL     1       7.720  -2.433  25.067  0.00  0.00    +0.131 A 
ATOM      2  C   UNL     1       8.694  -2.337  24.073  0.00  0.00    +0.130 A 
ATOM      3  C   UNL     1       8.727  -1.199  23.269  0.00  0.00    +0.277 A 
ATOM      4  C   UNL     1       7.811  -0.153  23.425  0.00  0.00    +0.097 A 
ATOM      5  C   UNL     1       6.822  -0.242  24.416  0.00  0.00    +0.047 A 
ATOM      6  C   UNL     1       6.818  -1.365  25.266  0.00  0.00    +0.059 A 
ENDROOT
BRANCH   5   7
ATOM      7  C   UNL     1       5.772   0.838  24.424  0.00  0.00    +0.245 C 
ATOM      8  N   UNL     1       5.833   1.832  23.473  0.00  0.00    -0.306 N 
ATOM      9  H   UNL     1       6.543   1.825  22.757  0.00  0.00    +0.149 HD
ATOM     10  O   UNL     1       4.934   0.845  25.321  0.00  0.00    -0.270 OA
BRANCH   8  11
ATOM     11  C   UNL     1       5.008   3.065  23.571  0.00  0.00    +0.101 C 
BRANCH  11  12
ATOM     12  C   UNL     1       4.026   3.165  22.355  0.00  0.00    +0.108 C 
BRANCH  12  13
ATOM     13  N   UNL     1       2.769   3.911  22.621  0.00  0.00    -0.296 NA
ATOM     14  C   UNL     1       1.582   3.021  22.627  0.00  0.00    +0.112 C 
ATOM     15  C   UNL     1       1.095   2.592  21.232  0.00  0.00    +0.175 C 
ATOM     16  O   UNL     1       0.804   3.732  20.417  0.00  0.00    -0.377 OA
ATOM     17  C   UNL     1       1.967   4.558  20.286  0.00  0.00    +0.175 C 
ATOM     18  C   UNL     1       2.503   5.009  21.660  0.00  0.00    +0.112 C 
ENDBRANCH  12  13
ENDBRANCH  11  12
BRANCH  11  19
ATOM     19  C   UNL     1       5.965   4.309  23.693  0.00  0.00    +0.108 C 
BRANCH  19  20
ATOM     20  N   UNL     1       7.083   4.420  22.737  0.00  0.00    -0.296 NA
ATOM     21  C   UNL     1       8.387   4.077  23.358  0.00  0.00    +0.112 C 
ATOM     22  C   UNL     1       9.042   5.211  24.160  0.00  0.00    +0.175 C 
ATOM     23  O   UNL     1       9.242   6.357  23.327  0.00  0.00    -0.377 OA
ATOM     24  C   UNL     1       7.983   6.830  22.838  0.00  0.00    +0.175 C 
ATOM     25  C   UNL     1       7.203   5.738  22.074  0.00  0.00    +0.112 C 
ENDBRANCH  19  20
ENDBRANCH  11  19
ENDBRANCH   8  11
ENDBRANCH   5   7
BRANCH   3  26
ATOM     26  N   UNL     1       9.694  -1.133  22.188  0.00  0.00    +0.080 N 
ATOM     27  O   UNL     1       9.437  -0.356  21.259  0.00  0.00    +0.041 OA
ATOM     28  O   UNL     1      10.703  -1.839  22.283  0.00  0.00    -0.576 OA
ENDBRANCH   3  26
BRANCH   1  29
ATOM     29  O   UNL     1       7.589  -3.496  25.914  0.00  0.00    -0.461 OA
BRANCH  29  34
ATOM     30  C   UNL     1       4.943  -5.515  24.360  0.00  0.00    +0.179 C 
ATOM     31  C   UNL     1       4.881  -6.708  25.326  0.00  0.00    +0.177 C 
ATOM     32  C   UNL     1       5.139  -6.232  26.761  0.00  0.00    +0.180 C 
ATOM     33  C   UNL     1       6.417  -5.392  26.849  0.00  0.00    +0.214 C 
ATOM     34  C   UNL     1       6.355  -4.245  25.817  0.00  0.00    +0.339 C 
ATOM     35  O   UNL     1       6.183  -4.794  24.508  0.00  0.00    -0.331 OA
BRANCH  31  36
ATOM     36  O   UNL     1       3.613  -7.365  25.205  0.00  0.00    -0.386 OA
ATOM     37  H   UNL     1       3.754  -8.326  25.154  0.00  0.00    +0.210 HD
ENDBRANCH  31  36
BRANCH  32  38
ATOM     38  O   UNL     1       5.232  -7.355  27.648  0.00  0.00    -0.386 OA
ATOM     39  H   UNL     1       4.577  -7.206  28.359  0.00  0.00    +0.210 HD
ENDBRANCH  32  38
BRANCH  33  40
ATOM     40  O   UNL     1       6.558  -4.939  28.208  0.00  0.00    -0.383 OA
ATOM     41  H   UNL     1       7.342  -4.364  28.265  0.00  0.00    +0.210 HD
ENDBRANCH  33  40
BRANCH  30  42
ATOM     42  C   UNL     1       4.811  -6.007  22.911  0.00  0.00    +0.190 C 
BRANCH  42  43
ATOM     43  O   UNL     1       3.435  -6.202  22.588  0.00  0.00    -0.392 OA
ATOM     44  H   UNL     1       3.005  -6.539  23.394  0.00  0.00    +0.210 HD
ENDBRANCH  42  43
ENDBRANCH  30  42
ENDBRANCH  29  34
ENDBRANCH   1  29
TORSDOF 14
ENDMDL
MODEL 4
REMARK VINA RESULT:      -6.3      2.643      7.294
REMARK  Name = 
REMARK  14 active torsions:
REMARK  status: ('A' for Active; 'I' for Inactive)
REMARK    1  A    between atoms: O_1  and  C_2
REMARK    2  A    between atoms: C_2  and  C_3
REMARK    3  A    between atoms: C_6  and  O_8
REMARK    4  A    between atoms: O_8  and  C_9
REMARK    5  A    between atoms: C_11  and  C_18
REMARK    6  A    between atoms: C_13  and  N_15
REMARK    7  A    between atoms: N_20  and  C_21
REMARK    8  A    between atoms: C_21  and  C_22
REMARK    9  A    between atoms: C_21  and  C_29
REMARK   10  A    between atoms: C_22  and  N_23
REMARK   11  A    between atoms: C_29  and  N_30
REMARK   12  A    between atoms: C_36  and  O_38
REMARK   13  A    between atoms: C_39  and  O_41
REMARK   14  A    between atoms: C_42  and  O_44
REMARK                            x       y       z     vdW  Elec       q    Type
REMARK                         _______ _______ _______ _____ _____    ______ ____
ROOT
ATOM      1  C   UNL     1       7.390   2.424  25.208  0.00  0.00    +0.131 A 
ATOM      2  C   UNL     1       6.503   3.438  24.851  0.00  0.00    +0.130 A 
ATOM      3  C   UNL     1       5.134   3.217  24.991  0.00  0.00    +0.277 A 
ATOM      4  C   UNL     1       4.623   2.007  25.471  0.00  0.00    +0.097 A 
ATOM      5  C   UNL     1       5.506   0.976  25.826  0.00  0.00    +0.047 A 
ATOM      6  C   UNL     1       6.891   1.214  25.739  0.00  0.00    +0.059 A 
ENDROOT
BRANCH   5   7
ATOM      7  C   UNL     1       4.890  -0.352  26.181  0.00  0.00    +0.245 C 
ATOM      8  N   UNL     1       5.613  -1.503  25.959  0.00  0.00    -0.306 N 
ATOM      9  H   UNL     1       6.555  -1.464  25.599  0.00  0.00    +0.149 HD
ATOM     10  O   UNL     1       3.733  -0.380  26.591  0.00  0.00    -0.270 OA
BRANCH   8  11
ATOM     11  C   UNL     1       4.989  -2.850  26.028  0.00  0.00    +0.101 C 
BRANCH  11  12
ATOM     12  C   UNL     1       5.657  -3.706  27.157  0.00  0.00    +0.108 C 
BRANCH  12  13
ATOM     13  N   UNL     1       4.712  -4.476  28.006  0.00  0.00    -0.296 NA
ATOM     14  C   UNL     1       5.375  -5.043  29.206  0.00  0.00    +0.112 C 
ATOM     15  C   UNL     1       6.234  -6.290  28.937  0.00  0.00    +0.175 C 
ATOM     16  O   UNL     1       5.459  -7.322  28.316  0.00  0.00    -0.377 OA
ATOM     17  C   UNL     1       4.899  -6.850  27.085  0.00  0.00    +0.175 C 
ATOM     18  C   UNL     1       4.035  -5.590  27.299  0.00  0.00    +0.112 C 
ENDBRANCH  12  13
ENDBRANCH  11  12
BRANCH  11  19
ATOM     19  C   UNL     1       5.078  -3.526  24.610  0.00  0.00    +0.108 C 
BRANCH  19  20
ATOM     20  N   UNL     1       6.408  -3.656  23.985  0.00  0.00    -0.296 NA
ATOM     21  C   UNL     1       6.468  -3.006  22.652  0.00  0.00    +0.112 C 
ATOM     22  C   UNL     1       5.911  -3.848  21.495  0.00  0.00    +0.175 C 
ATOM     23  O   UNL     1       6.610  -5.093  21.405  0.00  0.00    -0.377 OA
ATOM     24  C   UNL     1       6.438  -5.836  22.616  0.00  0.00    +0.175 C 
ATOM     25  C   UNL     1       6.901  -5.046  23.860  0.00  0.00    +0.112 C 
ENDBRANCH  19  20
ENDBRANCH  11  19
ENDBRANCH   8  11
ENDBRANCH   5   7
BRANCH   3  26
ATOM     26  N   UNL     1       4.209   4.246  24.550  0.00  0.00    +0.080 N 
ATOM     27  O   UNL     1       3.372   3.915  23.700  0.00  0.00    +0.041 OA
ATOM     28  O   UNL     1       4.313   5.364  25.066  0.00  0.00    -0.576 OA
ENDBRANCH   3  26
BRANCH   1  29
ATOM     29  O   UNL     1       8.749   2.524  25.116  0.00  0.00    -0.461 OA
BRANCH  29  34
ATOM     30  C   UNL     1       9.889  -0.698  23.770  0.00  0.00    +0.179 C 
ATOM     31  C   UNL     1       9.344  -0.624  22.336  0.00  0.00    +0.177 C 
ATOM     32  C   UNL     1       9.419   0.819  21.822  0.00  0.00    +0.180 C 
ATOM     33  C   UNL     1       8.777   1.798  22.811  0.00  0.00    +0.214 C 
ATOM     34  C   UNL     1       9.401   1.604  24.210  0.00  0.00    +0.339 C 
ATOM     35  O   UNL     1       9.218   0.248  24.627  0.00  0.00    -0.331 OA
BRANCH  31  36
ATOM     36  O   UNL     1      10.072  -1.526  21.493  0.00  0.00    -0.386 OA
ATOM     37  H   UNL     1      11.018  -1.477  21.712  0.00  0.00    +0.210 HD
ENDBRANCH  31  36
BRANCH  32  38
ATOM     38  O   UNL     1       8.777   0.926  20.545  0.00  0.00    -0.386 OA
ATOM     39  H   UNL     1       9.125   0.197  19.994  0.00  0.00    +0.210 HD
ENDBRANCH  32  38
BRANCH  33  40
ATOM     40  O   UNL     1       8.937   3.128  22.286  0.00  0.00    -0.383 OA
ATOM     41  H   UNL     1       8.693   3.767  22.979  0.00  0.00    +0.210 HD
ENDBRANCH  33  40
BRANCH  30  42
ATOM     42  C   UNL     1       9.697  -2.115  24.331  0.00  0.00    +0.190 C 
BRANCH  42  43
ATOM     43  O   UNL     1       8.641  -2.117  25.292  0.00  0.00    -0.392 OA
ATOM     44  H   UNL     1       7.809  -2.064  24.790  0.00  0.00    +0.210 HD
ENDBRANCH  42  43
ENDBRANCH  30  42
ENDBRANCH  29  34
ENDBRANCH   1  29
TORSDOF 14
ENDMDL
MODEL 5
REMARK VINA RESULT:      -6.3      2.140      5.327
REMARK  Name = 
REMARK  14 active torsions:
REMARK  status: ('A' for Active; 'I' for Inactive)
REMARK    1  A    between atoms: O_1  and  C_2
REMARK    2  A    between atoms: C_2  and  C_3
REMARK    3  A    between atoms: C_6  and  O_8
REMARK    4  A    between atoms: O_8  and  C_9
REMARK    5  A    between atoms: C_11  and  C_18
REMARK    6  A    between atoms: C_13  and  N_15
REMARK    7  A    between atoms: N_20  and  C_21
REMARK    8  A    between atoms: C_21  and  C_22
REMARK    9  A    between atoms: C_21  and  C_29
REMARK   10  A    between atoms: C_22  and  N_23
REMARK   11  A    between atoms: C_29  and  N_30
REMARK   12  A    between atoms: C_36  and  O_38
REMARK   13  A    between atoms: C_39  and  O_41
REMARK   14  A    between atoms: C_42  and  O_44
REMARK                            x       y       z     vdW  Elec       q    Type
REMARK                         _______ _______ _______ _____ _____    ______ ____
ROOT
ATOM      1  C   UNL     1       8.616  -2.900  25.485  0.00  0.00    +0.131 A 
ATOM      2  C   UNL     1       9.362  -2.597  24.346  0.00  0.00    +0.130 A 
ATOM      3  C   UNL     1       9.560  -1.260  24.006  0.00  0.00    +0.277 A 
ATOM      4  C   UNL     1       9.029  -0.214  24.768  0.00  0.00    +0.097 A 
ATOM      5  C   UNL     1       8.270  -0.506  25.911  0.00  0.00    +0.047 A 
ATOM      6  C   UNL     1       8.113  -1.854  26.289  0.00  0.00    +0.059 A 
ENDROOT
BRANCH   5   7
ATOM      7  C   UNL     1       7.595   0.655  26.592  0.00  0.00    +0.245 C 
ATOM      8  N   UNL     1       7.392   1.817  25.881  0.00  0.00    -0.306 N 
ATOM      9  H   UNL     1       7.655   1.886  24.909  0.00  0.00    +0.149 HD
ATOM     10  O   UNL     1       7.309   0.562  27.782  0.00  0.00    -0.270 OA
BRANCH   8  11
ATOM     11  C   UNL     1       6.983   3.083  26.543  0.00  0.00    +0.101 C 
BRANCH  11  12
ATOM     12  C   UNL     1       5.424   3.231  26.528  0.00  0.00    +0.108 C 
BRANCH  12  13
ATOM     13  N   UNL     1       4.699   2.176  25.773  0.00  0.00    -0.296 NA
ATOM     14  C   UNL     1       4.160   2.682  24.486  0.00  0.00    +0.112 C 
ATOM     15  C   UNL     1       2.889   3.539  24.614  0.00  0.00    +0.175 C 
ATOM     16  O   UNL     1       1.852   2.820  25.290  0.00  0.00    -0.377 OA
ATOM     17  C   UNL     1       2.294   2.418  26.592  0.00  0.00    +0.175 C 
ATOM     18  C   UNL     1       3.575   1.562  26.521  0.00  0.00    +0.112 C 
ENDBRANCH  12  13
ENDBRANCH  11  12
BRANCH  11  19
ATOM     19  C   UNL     1       7.721   4.285  25.845  0.00  0.00    +0.108 C 
BRANCH  19  20
ATOM     20  N   UNL     1       8.058   4.155  24.414  0.00  0.00    -0.296 NA
ATOM     21  C   UNL     1       9.520   4.231  24.174  0.00  0.00    +0.112 C 
ATOM     22  C   UNL     1      10.095   5.654  24.116  0.00  0.00    +0.175 C 
ATOM     23  O   UNL     1       9.444   6.411  23.091  0.00  0.00    -0.377 OA
ATOM     24  C   UNL     1       8.044   6.509  23.373  0.00  0.00    +0.175 C 
ATOM     25  C   UNL     1       7.378   5.125  23.526  0.00  0.00    +0.112 C 
ENDBRANCH  19  20
ENDBRANCH  11  19
ENDBRANCH   8  11
ENDBRANCH   5   7
BRANCH   3  26
ATOM     26  N   UNL     1      10.274  -0.947  22.781  0.00  0.00    +0.080 N 
ATOM     27  O   UNL     1      10.191   0.218  22.371  0.00  0.00    +0.041 OA
ATOM     28  O   UNL     1      10.921  -1.856  22.251  0.00  0.00    -0.576 OA
ENDBRANCH   3  26
BRANCH   1  29
ATOM     29  O   UNL     1       8.355  -4.169  25.918  0.00  0.00    -0.461 OA
BRANCH  29  34
ATOM     30  C   UNL     1       5.378  -5.600  24.313  0.00  0.00    +0.179 C 
ATOM     31  C   UNL     1       5.010  -6.706  25.314  0.00  0.00    +0.177 C 
ATOM     32  C   UNL     1       5.317  -6.241  26.743  0.00  0.00    +0.180 C 
ATOM     33  C   UNL     1       6.749  -5.709  26.861  0.00  0.00    +0.214 C 
ATOM     34  C   UNL     1       6.988  -4.623  25.790  0.00  0.00    +0.339 C 
ATOM     35  O   UNL     1       6.743  -5.173  24.493  0.00  0.00    -0.331 OA
BRANCH  31  36
ATOM     36  O   UNL     1       3.631  -7.064  25.157  0.00  0.00    -0.386 OA
ATOM     37  H   UNL     1       3.454  -7.881  25.653  0.00  0.00    +0.210 HD
ENDBRANCH  31  36
BRANCH  32  38
ATOM     38  O   UNL     1       5.119  -7.317  27.668  0.00  0.00    -0.386 OA
ATOM     39  H   UNL     1       5.259  -8.146  27.169  0.00  0.00    +0.210 HD
ENDBRANCH  32  38
BRANCH  33  40
ATOM     40  O   UNL     1       6.939  -5.243  28.209  0.00  0.00    -0.383 OA
ATOM     41  H   UNL     1       7.613  -5.801  28.639  0.00  0.00    +0.210 HD
ENDBRANCH  33  40
BRANCH  30  42
ATOM     42  C   UNL     1       5.191  -6.110  22.876  0.00  0.00    +0.190 C 
BRANCH  42  43
ATOM     43  O   UNL     1       3.813  -6.039  22.511  0.00  0.00    -0.392 OA
ATOM     44  H   UNL     1       3.306  -6.358  23.279  0.00  0.00    +0.210 HD
ENDBRANCH  42  43
ENDBRANCH  30  42
ENDBRANCH  29  34
ENDBRANCH   1  29
TORSDOF 14
ENDMDL
MODEL 6
REMARK VINA RESULT:      -6.3      3.077      5.158
REMARK  Name = 
REMARK  14 active torsions:
REMARK  status: ('A' for Active; 'I' for Inactive)
REMARK    1  A    between atoms: O_1  and  C_2
REMARK    2  A    between atoms: C_2  and  C_3
REMARK    3  A    between atoms: C_6  and  O_8
REMARK    4  A    between atoms: O_8  and  C_9
REMARK    5  A    between atoms: C_11  and  C_18
REMARK    6  A    between atoms: C_13  and  N_15
REMARK    7  A    between atoms: N_20  and  C_21
REMARK    8  A    between atoms: C_21  and  C_22
REMARK    9  A    between atoms: C_21  and  C_29
REMARK   10  A    between atoms: C_22  and  N_23
REMARK   11  A    between atoms: C_29  and  N_30
REMARK   12  A    between atoms: C_36  and  O_38
REMARK   13  A    between atoms: C_39  and  O_41
REMARK   14  A    between atoms: C_42  and  O_44
REMARK                            x       y       z     vdW  Elec       q    Type
REMARK                         _______ _______ _______ _____ _____    ______ ____
ROOT
ATOM      1  C   UNL     1       4.148  -4.219  24.191  0.00  0.00    +0.131 A 
ATOM      2  C   UNL     1       4.722  -4.992  23.182  0.00  0.00    +0.130 A 
ATOM      3  C   UNL     1       5.882  -4.535  22.560  0.00  0.00    +0.277 A 
ATOM      4  C   UNL     1       6.485  -3.323  22.911  0.00  0.00    +0.097 A 
ATOM      5  C   UNL     1       5.913  -2.533  23.920  0.00  0.00    +0.047 A 
ATOM      6  C   UNL     1       4.772  -3.016  24.589  0.00  0.00    +0.059 A 
ENDROOT
BRANCH   5   7
ATOM      7  C   UNL     1       6.516  -1.170  24.138  0.00  0.00    +0.245 C 
ATOM      8  N   UNL     1       6.473  -0.251  23.113  0.00  0.00    -0.306 N 
ATOM      9  H   UNL     1       6.014  -0.466  22.240  0.00  0.00    +0.149 HD
ATOM     10  O   UNL     1       7.095  -0.939  25.195  0.00  0.00    -0.270 OA
BRANCH   8  11
ATOM     11  C   UNL     1       7.268   1.004  23.147  0.00  0.00    +0.101 C 
BRANCH  11  12
ATOM     12  C   UNL     1       6.365   2.214  23.562  0.00  0.00    +0.108 C 
BRANCH  12  13
ATOM     13  N   UNL     1       5.979   3.122  22.451  0.00  0.00    -0.296 NA
ATOM     14  C   UNL     1       6.735   4.398  22.484  0.00  0.00    +0.112 C 
ATOM     15  C   UNL     1       6.253   5.402  23.544  0.00  0.00    +0.175 C 
ATOM     16  O   UNL     1       4.864   5.702  23.372  0.00  0.00    -0.377 OA
ATOM     17  C   UNL     1       4.083   4.504  23.457  0.00  0.00    +0.175 C 
ATOM     18  C   UNL     1       4.534   3.456  22.418  0.00  0.00    +0.112 C 
ENDBRANCH  12  13
ENDBRANCH  11  12
BRANCH  11  19
ATOM     19  C   UNL     1       7.962   1.205  21.749  0.00  0.00    +0.108 C 
BRANCH  19  20
ATOM     20  N   UNL     1       9.436   1.196  21.698  0.00  0.00    -0.296 NA
ATOM     21  C   UNL     1       9.998  -0.156  21.945  0.00  0.00    +0.112 C 
ATOM     22  C   UNL     1      10.108  -0.552  23.424  0.00  0.00    +0.175 C 
ATOM     23  O   UNL     1      10.917   0.392  24.132  0.00  0.00    -0.377 OA
ATOM     24  C   UNL     1      10.320   1.691  24.065  0.00  0.00    +0.175 C 
ATOM     25  C   UNL     1      10.094   2.159  22.611  0.00  0.00    +0.112 C 
ENDBRANCH  19  20
ENDBRANCH  11  19
ENDBRANCH   8  11
ENDBRANCH   5   7
BRANCH   3  26
ATOM     26  N   UNL     1       6.437  -5.304  21.460  0.00  0.00    +0.080 N 
ATOM     27  O   UNL     1       5.877  -5.187  20.362  0.00  0.00    +0.041 OA
ATOM     28  O   UNL     1       7.430  -6.000  21.696  0.00  0.00    -0.576 OA
ENDBRANCH   3  26
BRANCH   1  29
ATOM     29  O   UNL     1       3.015  -4.562  24.872  0.00  0.00    -0.461 OA
BRANCH  29  34
ATOM     30  C   UNL     1       4.405  -6.556  27.625  0.00  0.00    +0.179 C 
ATOM     31  C   UNL     1       3.163  -6.737  28.511  0.00  0.00    +0.177 C 
ATOM     32  C   UNL     1       1.912  -6.878  27.634  0.00  0.00    +0.180 C 
ATOM     33  C   UNL     1       1.819  -5.742  26.610  0.00  0.00    +0.214 C 
ATOM     34  C   UNL     1       3.135  -5.661  25.805  0.00  0.00    +0.339 C 
ATOM     35  O   UNL     1       4.229  -5.461  26.705  0.00  0.00    -0.331 OA
BRANCH  31  36
ATOM     36  O   UNL     1       3.340  -7.871  29.369  0.00  0.00    -0.386 OA
ATOM     37  H   UNL     1       3.956  -8.497  28.951  0.00  0.00    +0.210 HD
ENDBRANCH  31  36
BRANCH  32  38
ATOM     38  O   UNL     1       0.734  -6.896  28.449  0.00  0.00    -0.386 OA
ATOM     39  H   UNL     1       0.341  -6.002  28.396  0.00  0.00    +0.210 HD
ENDBRANCH  32  38
BRANCH  33  40
ATOM     40  O   UNL     1       0.657  -5.976  25.794  0.00  0.00    -0.383 OA
ATOM     41  H   UNL     1       0.826  -6.748  25.225  0.00  0.00    +0.210 HD
ENDBRANCH  33  40
BRANCH  30  42
ATOM     42  C   UNL     1       5.639  -6.288  28.501  0.00  0.00    +0.190 C 
BRANCH  42  43
ATOM     43  O   UNL     1       6.203  -7.525  28.936  0.00  0.00    -0.392 OA
ATOM     44  H   UNL     1       6.488  -7.997  28.133  0.00  0.00    +0.210 HD
ENDBRANCH  42  43
ENDBRANCH  30  42
ENDBRANCH  29  34
ENDBRANCH   1  29
TORSDOF 14
ENDMDL
MODEL 7
REMARK VINA RESULT:      -6.1      3.180      8.092
REMARK  Name = 
REMARK  14 active torsions:
REMARK  status: ('A' for Active; 'I' for Inactive)
REMARK    1  A    between atoms: O_1  and  C_2
REMARK    2  A    between atoms: C_2  and  C_3
REMARK    3  A    between atoms: C_6  and  O_8
REMARK    4  A    between atoms: O_8  and  C_9
REMARK    5  A    between atoms: C_11  and  C_18
REMARK    6  A    between atoms: C_13  and  N_15
REMARK    7  A    between atoms: N_20  and  C_21
REMARK    8  A    between atoms: C_21  and  C_22
REMARK    9  A    between atoms: C_21  and  C_29
REMARK   10  A    between atoms: C_22  and  N_23
REMARK   11  A    between atoms: C_29  and  N_30
REMARK   12  A    between atoms: C_36  and  O_38
REMARK   13  A    between atoms: C_39  and  O_41
REMARK   14  A    between atoms: C_42  and  O_44
REMARK                            x       y       z     vdW  Elec       q    Type
REMARK                         _______ _______ _______ _____ _____    ______ ____
ROOT
ATOM      1  C   UNL     1       7.229  -0.687  26.692  0.00  0.00    +0.131 A 
ATOM      2  C   UNL     1       6.690   0.128  27.686  0.00  0.00    +0.130 A 
ATOM      3  C   UNL     1       5.416  -0.157  28.175  0.00  0.00    +0.277 A 
ATOM      4  C   UNL     1       4.659  -1.230  27.694  0.00  0.00    +0.097 A 
ATOM      5  C   UNL     1       5.188  -2.053  26.688  0.00  0.00    +0.047 A 
ATOM      6  C   UNL     1       6.495  -1.803  26.230  0.00  0.00    +0.059 A 
ENDROOT
BRANCH   5   7
ATOM      7  C   UNL     1       4.263  -3.088  26.103  0.00  0.00    +0.245 C 
ATOM      8  N   UNL     1       4.664  -4.406  26.086  0.00  0.00    -0.306 N 
ATOM      9  H   UNL     1       5.545  -4.687  26.488  0.00  0.00    +0.149 HD
ATOM     10  O   UNL     1       3.209  -2.722  25.592  0.00  0.00    -0.270 OA
BRANCH   8  11
ATOM     11  C   UNL     1       3.940  -5.438  25.297  0.00  0.00    +0.101 C 
BRANCH  11  12
ATOM     12  C   UNL     1       3.165  -6.410  26.249  0.00  0.00    +0.108 C 
BRANCH  12  13
ATOM     13  N   UNL     1       1.704  -6.507  25.996  0.00  0.00    -0.296 NA
ATOM     14  C   UNL     1       1.157  -7.830  26.383  0.00  0.00    +0.112 C 
ATOM     15  C   UNL     1       1.459  -8.965  25.389  0.00  0.00    +0.175 C 
ATOM     16  O   UNL     1       0.980  -8.641  24.079  0.00  0.00    -0.377 OA
ATOM     17  C   UNL     1       1.582  -7.426  23.618  0.00  0.00    +0.175 C 
ATOM     18  C   UNL     1       1.317  -6.255  24.586  0.00  0.00    +0.112 C 
ENDBRANCH  12  13
ENDBRANCH  11  12
BRANCH  11  19
ATOM     19  C   UNL     1       4.969  -6.179  24.365  0.00  0.00    +0.108 C 
BRANCH  19  20
ATOM     20  N   UNL     1       4.987  -5.826  22.933  0.00  0.00    -0.296 NA
ATOM     21  C   UNL     1       6.295  -6.124  22.299  0.00  0.00    +0.112 C 
ATOM     22  C   UNL     1       7.379  -5.057  22.513  0.00  0.00    +0.175 C 
ATOM     23  O   UNL     1       6.932  -3.791  22.018  0.00  0.00    -0.377 OA
ATOM     24  C   UNL     1       5.758  -3.378  22.725  0.00  0.00    +0.175 C 
ATOM     25  C   UNL     1       4.623  -4.422  22.636  0.00  0.00    +0.112 C 
ENDBRANCH  19  20
ENDBRANCH  11  19
ENDBRANCH   8  11
ENDBRANCH   5   7
BRANCH   3  26
ATOM     26  N   UNL     1       4.827   0.735  29.157  0.00  0.00    +0.080 N 
ATOM     27  O   UNL     1       5.037   0.468  30.348  0.00  0.00    +0.041 OA
ATOM     28  O   UNL     1       4.178   1.699  28.735  0.00  0.00    -0.576 OA
ENDBRANCH   3  26
BRANCH   1  29
ATOM     29  O   UNL     1       8.464  -0.509  26.136  0.00  0.00    -0.461 OA
BRANCH  29  34
ATOM     30  C   UNL     1       9.091   2.134  23.665  0.00  0.00    +0.179 C 
ATOM     31  C   UNL     1       9.932   1.372  22.630  0.00  0.00    +0.177 C 
ATOM     32  C   UNL     1       9.441  -0.077  22.522  0.00  0.00    +0.180 C 
ATOM     33  C   UNL     1       9.353  -0.740  23.901  0.00  0.00    +0.214 C 
ATOM     34  C   UNL     1       8.499   0.137  24.843  0.00  0.00    +0.339 C 
ATOM     35  O   UNL     1       9.076   1.442  24.929  0.00  0.00    -0.331 OA
BRANCH  31  36
ATOM     36  O   UNL     1       9.876   2.047  21.367  0.00  0.00    -0.386 OA
ATOM     37  H   UNL     1       9.754   1.392  20.658  0.00  0.00    +0.210 HD
ENDBRANCH  31  36
BRANCH  32  38
ATOM     38  O   UNL     1      10.312  -0.835  21.673  0.00  0.00    -0.386 OA
ATOM     39  H   UNL     1      10.024  -1.767  21.735  0.00  0.00    +0.210 HD
ENDBRANCH  32  38
BRANCH  33  40
ATOM     40  O   UNL     1       8.834  -2.070  23.721  0.00  0.00    -0.383 OA
ATOM     41  H   UNL     1       9.498  -2.708  24.037  0.00  0.00    +0.210 HD
ENDBRANCH  33  40
BRANCH  30  42
ATOM     42  C   UNL     1       9.661   3.546  23.867  0.00  0.00    +0.190 C 
BRANCH  42  43
ATOM     43  O   UNL     1       9.051   4.452  22.948  0.00  0.00    -0.392 OA
ATOM     44  H   UNL     1       8.109   4.211  22.905  0.00  0.00    +0.210 HD
ENDBRANCH  42  43
ENDBRANCH  30  42
ENDBRANCH  29  34
ENDBRANCH   1  29
TORSDOF 14
ENDMDL
MODEL 8
REMARK VINA RESULT:      -6.1      2.623      8.911
REMARK  Name = 
REMARK  14 active torsions:
REMARK  status: ('A' for Active; 'I' for Inactive)
REMARK    1  A    between atoms: O_1  and  C_2
REMARK    2  A    between atoms: C_2  and  C_3
REMARK    3  A    between atoms: C_6  and  O_8
REMARK    4  A    between atoms: O_8  and  C_9
REMARK    5  A    between atoms: C_11  and  C_18
REMARK    6  A    between atoms: C_13  and  N_15
REMARK    7  A    between atoms: N_20  and  C_21
REMARK    8  A    between atoms: C_21  and  C_22
REMARK    9  A    between atoms: C_21  and  C_29
REMARK   10  A    between atoms: C_22  and  N_23
REMARK   11  A    between atoms: C_29  and  N_30
REMARK   12  A    between atoms: C_36  and  O_38
REMARK   13  A    between atoms: C_39  and  O_41
REMARK   14  A    between atoms: C_42  and  O_44
REMARK                            x       y       z     vdW  Elec       q    Type
REMARK                         _______ _______ _______ _____ _____    ______ ____
ROOT
ATOM      1  C   UNL     1       7.686   1.665  25.796  0.00  0.00    +0.131 A 
ATOM      2  C   UNL     1       8.881   1.509  25.095  0.00  0.00    +0.130 A 
ATOM      3  C   UNL     1       9.241   0.238  24.649  0.00  0.00    +0.277 A 
ATOM      4  C   UNL     1       8.445  -0.886  24.890  0.00  0.00    +0.097 A 
ATOM      5  C   UNL     1       7.244  -0.743  25.601  0.00  0.00    +0.047 A 
ATOM      6  C   UNL     1       6.849   0.546  26.006  0.00  0.00    +0.059 A 
ENDROOT
BRANCH   5   7
ATOM      7  C   UNL     1       6.517  -2.011  25.964  0.00  0.00    +0.245 C 
ATOM      8  N   UNL     1       7.209  -3.202  25.951  0.00  0.00    -0.306 N 
ATOM      9  H   UNL     1       8.195  -3.230  25.739  0.00  0.00    +0.149 HD
ATOM     10  O   UNL     1       5.312  -1.961  26.192  0.00  0.00    -0.270 OA
BRANCH   8  11
ATOM     11  C   UNL     1       6.517  -4.515  26.034  0.00  0.00    +0.101 C 
BRANCH  11  12
ATOM     12  C   UNL     1       6.964  -5.291  27.318  0.00  0.00    +0.108 C 
BRANCH  12  13
ATOM     13  N   UNL     1       5.991  -6.296  27.818  0.00  0.00    -0.296 NA
ATOM     14  C   UNL     1       4.588  -5.894  27.552  0.00  0.00    +0.112 C 
ATOM     15  C   UNL     1       4.039  -4.812  28.497  0.00  0.00    +0.175 C 
ATOM     16  O   UNL     1       4.141  -5.225  29.864  0.00  0.00    -0.377 OA
ATOM     17  C   UNL     1       5.505  -5.506  30.197  0.00  0.00    +0.175 C 
ATOM     18  C   UNL     1       6.109  -6.581  29.269  0.00  0.00    +0.112 C 
ENDBRANCH  12  13
ENDBRANCH  11  12
BRANCH  11  19
ATOM     19  C   UNL     1       6.785  -5.316  24.706  0.00  0.00    +0.108 C 
BRANCH  19  20
ATOM     20  N   UNL     1       5.663  -5.497  23.766  0.00  0.00    -0.296 NA
ATOM     21  C   UNL     1       6.109  -6.039  22.458  0.00  0.00    +0.112 C 
ATOM     22  C   UNL     1       6.677  -4.997  21.483  0.00  0.00    +0.175 C 
ATOM     23  O   UNL     1       5.706  -3.978  21.225  0.00  0.00    -0.377 OA
ATOM     24  C   UNL     1       5.369  -3.307  22.444  0.00  0.00    +0.175 C 
ATOM     25  C   UNL     1       4.853  -4.281  23.526  0.00  0.00    +0.112 C 
ENDBRANCH  19  20
ENDBRANCH  11  19
ENDBRANCH   8  11
ENDBRANCH   5   7
BRANCH   3  26
ATOM     26  N   UNL     1      10.520   0.066  23.984  0.00  0.00    +0.080 N 
ATOM     27  O   UNL     1      11.448   0.791  24.365  0.00  0.00    +0.041 OA
ATOM     28  O   UNL     1      10.592  -0.798  23.104  0.00  0.00    -0.576 OA
ENDBRANCH   3  26
BRANCH   1  29
ATOM     29  O   UNL     1       7.228   2.856  26.281  0.00  0.00    -0.461 OA
BRANCH  29  34
ATOM     30  C   UNL     1       8.697   5.559  24.276  0.00  0.00    +0.179 C 
ATOM     31  C   UNL     1       8.126   5.236  22.886  0.00  0.00    +0.177 C 
ATOM     32  C   UNL     1       6.704   4.678  23.023  0.00  0.00    +0.180 C 
ATOM     33  C   UNL     1       6.652   3.525  24.031  0.00  0.00    +0.214 C 
ATOM     34  C   UNL     1       7.272   3.979  25.370  0.00  0.00    +0.339 C 
ATOM     35  O   UNL     1       8.616   4.415  25.148  0.00  0.00    -0.331 OA
BRANCH  31  36
ATOM     36  O   UNL     1       8.160   6.408  22.063  0.00  0.00    -0.386 OA
ATOM     37  H   UNL     1       8.141   7.198  22.629  0.00  0.00    +0.210 HD
ENDBRANCH  31  36
BRANCH  32  38
ATOM     38  O   UNL     1       6.220   4.234  21.750  0.00  0.00    -0.386 OA
ATOM     39  H   UNL     1       6.997   4.174  21.159  0.00  0.00    +0.210 HD
ENDBRANCH  32  38
BRANCH  33  40
ATOM     40  O   UNL     1       5.283   3.096  24.144  0.00  0.00    -0.383 OA
ATOM     41  H   UNL     1       5.004   2.718  23.291  0.00  0.00    +0.210 HD
ENDBRANCH  33  40
BRANCH  30  42
ATOM     42  C   UNL     1      10.165   5.997  24.150  0.00  0.00    +0.190 C 
BRANCH  42  43
ATOM     43  O   UNL     1      10.762   5.371  23.014  0.00  0.00    -0.392 OA
ATOM     44  H   UNL     1      10.441   5.852  22.231  0.00  0.00    +0.210 HD
ENDBRANCH  42  43
ENDBRANCH  30  42
ENDBRANCH  29  34
ENDBRANCH   1  29
TORSDOF 14
ENDMDL
MODEL 9
REMARK VINA RESULT:      -6.1      3.053      9.485
REMARK  Name = 
REMARK  14 active torsions:
REMARK  status: ('A' for Active; 'I' for Inactive)
REMARK    1  A    between atoms: O_1  and  C_2
REMARK    2  A    between atoms: C_2  and  C_3
REMARK    3  A    between atoms: C_6  and  O_8
REMARK    4  A    between atoms: O_8  and  C_9
REMARK    5  A    between atoms: C_11  and  C_18
REMARK    6  A    between atoms: C_13  and  N_15
REMARK    7  A    between atoms: N_20  and  C_21
REMARK    8  A    between atoms: C_21  and  C_22
REMARK    9  A    between atoms: C_21  and  C_29
REMARK   10  A    between atoms: C_22  and  N_23
REMARK   11  A    between atoms: C_29  and  N_30
REMARK   12  A    between atoms: C_36  and  O_38
REMARK   13  A    between atoms: C_39  and  O_41
REMARK   14  A    between atoms: C_42  and  O_44
REMARK                            x       y       z     vdW  Elec       q    Type
REMARK                         _______ _______ _______ _____ _____    ______ ____
ROOT
ATOM      1  C   UNL     1       7.442   0.349  22.695  0.00  0.00    +0.131 A 
ATOM      2  C   UNL     1       8.620  -0.393  22.616  0.00  0.00    +0.130 A 
ATOM      3  C   UNL     1       8.720  -1.579  23.341  0.00  0.00    +0.277 A 
ATOM      4  C   UNL     1       7.679  -2.044  24.152  0.00  0.00    +0.097 A 
ATOM      5  C   UNL     1       6.492  -1.301  24.246  0.00  0.00    +0.047 A 
ATOM      6  C   UNL     1       6.365  -0.132  23.472  0.00  0.00    +0.059 A 
ENDROOT
BRANCH   5   7
ATOM      7  C   UNL     1       5.478  -1.770  25.256  0.00  0.00    +0.245 C 
ATOM      8  N   UNL     1       5.548  -3.067  25.716  0.00  0.00    -0.306 N 
ATOM      9  H   UNL     1       6.284  -3.688  25.415  0.00  0.00    +0.149 HD
ATOM     10  O   UNL     1       4.574  -1.010  25.588  0.00  0.00    -0.270 OA
BRANCH   8  11
ATOM     11  C   UNL     1       4.444  -3.684  26.498  0.00  0.00    +0.101 C 
BRANCH  11  12
ATOM     12  C   UNL     1       5.016  -4.475  27.722  0.00  0.00    +0.108 C 
BRANCH  12  13
ATOM     13  N   UNL     1       4.116  -4.545  28.903  0.00  0.00    -0.296 NA
ATOM     14  C   UNL     1       4.869  -4.712  30.170  0.00  0.00    +0.112 C 
ATOM     15  C   UNL     1       5.396  -6.136  30.420  0.00  0.00    +0.175 C 
ATOM     16  O   UNL     1       4.329  -7.089  30.397  0.00  0.00    -0.377 OA
ATOM     17  C   UNL     1       3.650  -7.044  29.136  0.00  0.00    +0.175 C 
ATOM     18  C   UNL     1       3.109  -5.631  28.831  0.00  0.00    +0.112 C 
ENDBRANCH  12  13
ENDBRANCH  11  12
BRANCH  11  19
ATOM     19  C   UNL     1       3.579  -4.581  25.536  0.00  0.00    +0.108 C 
BRANCH  19  20
ATOM     20  N   UNL     1       4.265  -5.640  24.772  0.00  0.00    -0.296 NA
ATOM     21  C   UNL     1       3.738  -5.764  23.390  0.00  0.00    +0.112 C 
ATOM     22  C   UNL     1       2.449  -6.590  23.258  0.00  0.00    +0.175 C 
ATOM     23  O   UNL     1       2.652  -7.910  23.769  0.00  0.00    -0.377 OA
ATOM     24  C   UNL     1       2.999  -7.849  25.156  0.00  0.00    +0.175 C 
ATOM     25  C   UNL     1       4.247  -6.976  25.410  0.00  0.00    +0.112 C 
ENDBRANCH  19  20
ENDBRANCH  11  19
ENDBRANCH   8  11
ENDBRANCH   5   7
BRANCH   3  26
ATOM     26  N   UNL     1       9.973  -2.312  23.315  0.00  0.00    +0.080 N 
ATOM     27  O   UNL     1      10.832  -1.918  22.516  0.00  0.00    +0.041 OA
ATOM     28  O   UNL     1      10.096  -3.258  24.101  0.00  0.00    -0.576 OA
ENDBRANCH   3  26
BRANCH   1  29
ATOM     29  O   UNL     1       7.227   1.523  22.032  0.00  0.00    -0.461 OA
BRANCH  29  34
ATOM     30  C   UNL     1       8.852   4.358  23.708  0.00  0.00    +0.179 C 
ATOM     31  C   UNL     1       8.064   5.537  23.118  0.00  0.00    +0.177 C 
ATOM     32  C   UNL     1       6.599   5.135  22.910  0.00  0.00    +0.180 C 
ATOM     33  C   UNL     1       6.487   3.822  22.126  0.00  0.00    +0.214 C 
ATOM     34  C   UNL     1       7.338   2.733  22.816  0.00  0.00    +0.339 C 
ATOM     35  O   UNL     1       8.696   3.175  22.900  0.00  0.00    -0.331 OA
BRANCH  31  36
ATOM     36  O   UNL     1       8.184   6.679  23.975  0.00  0.00    -0.386 OA
ATOM     37  H   UNL     1       7.598   6.567  24.743  0.00  0.00    +0.210 HD
ENDBRANCH  31  36
BRANCH  32  38
ATOM     38  O   UNL     1       5.891   6.174  22.223  0.00  0.00    -0.386 OA
ATOM     39  H   UNL     1       5.411   5.747  21.485  0.00  0.00    +0.210 HD
ENDBRANCH  32  38
BRANCH  33  40
ATOM     40  O   UNL     1       5.092   3.485  22.023  0.00  0.00    -0.383 OA
ATOM     41  H   UNL     1       4.964   2.583  22.366  0.00  0.00    +0.210 HD
ENDBRANCH  33  40
BRANCH  30  42
ATOM     42  C   UNL     1      10.343   4.717  23.798  0.00  0.00    +0.190 C 
BRANCH  42  43
ATOM     43  O   UNL     1      11.109   3.812  23.003  0.00  0.00    -0.392 OA
ATOM     44  H   UNL     1      12.007   4.184  22.946  0.00  0.00    +0.210 HD
ENDBRANCH  42  43
ENDBRANCH  30  42
ENDBRANCH  29  34
ENDBRANCH   1  29
TORSDOF 14
ENDMDL
