MODEL 1
REMARK VINA RESULT:      -7.9      0.000      0.000
REMARK  Name = 
REMARK  12 active torsions:
REMARK  status: ('A' for Active; 'I' for Inactive)
REMARK    1  A    between atoms: O_1  and  C_2
REMARK    2  A    between atoms: N_5  and  S_35
REMARK    3  A    between atoms: N_6  and  C_7
REMARK    4  A    between atoms: C_7  and  C_8
REMARK    5  A    between atoms: C_11  and  O_12
REMARK    6  A    between atoms: N_17  and  C_18
REMARK    7  A    between atoms: C_18  and  C_19
REMARK    8  A    between atoms: C_22  and  O_23
REMARK    9  A    between atoms: C_26  and  C_28
REMARK   10  A    between atoms: C_28  and  C_29
REMARK   11  A    between atoms: S_35  and  C_38
REMARK   12  A    between atoms: C_42  and  C_44
REMARK                            x       y       z     vdW  Elec       q    Type
REMARK                         _______ _______ _______ _____ _____    ______ ____
ROOT
ATOM      1  C   UNL     1       9.313  -1.700  22.390  0.00  0.00    +0.153 C 
ATOM      2  C   UNL     1       8.088  -2.211  23.192  0.00  0.00    +0.112 C 
ATOM      3  N   UNL     1       7.976  -1.593  24.554  0.00  0.00    -0.274 N 
ATOM      4  C   UNL     1       7.372  -0.333  24.708  0.00  0.00    +0.321 C 
ATOM      5  O   UNL     1       6.762   0.019  25.712  0.00  0.00    -0.251 OA
ATOM      6  N   UNL     1       7.458   0.463  23.578  0.00  0.00    -0.195 N 
ATOM      7  N   UNL     1       8.807   0.745  22.972  0.00  0.00    -0.088 NA
ATOM      8  C   UNL     1       9.169  -0.244  21.912  0.00  0.00    +0.165 C 
ENDROOT
BRANCH   7   9
ATOM      9  S   UNL     1      10.066   1.124  24.127  0.00  0.00    +0.076 S 
ATOM     10  O   UNL     1      11.319   0.531  23.698  0.00  0.00    -0.151 OA
ATOM     11  O   UNL     1       9.568   0.897  25.467  0.00  0.00    -0.151 OA
BRANCH   9  12
ATOM     12  C   UNL     1      10.259   2.877  23.968  0.00  0.00    +0.108 A 
ATOM     13  C   UNL     1      11.394   3.374  23.328  0.00  0.00    +0.047 A 
ATOM     14  C   UNL     1      11.575   4.756  23.254  0.00  0.00    +0.054 A 
ATOM     15  C   UNL     1      10.614   5.622  23.795  0.00  0.00    +0.019 A 
ATOM     16  C   UNL     1       9.473   5.112  24.418  0.00  0.00    +0.003 A 
ATOM     17  C   UNL     1       9.292   3.735  24.506  0.00  0.00    +0.028 A 
BRANCH  14  18
ATOM     18  C   UNL     1      12.754   5.285  22.637  0.00  0.00    +0.099 C 
ATOM     19  N   UNL     1      13.713   5.696  22.130  0.00  0.00    -0.191 NA
ENDBRANCH  14  18
ENDBRANCH   9  12
ENDBRANCH   7   9
BRANCH   1  20
ATOM     20  O   UNL     1      10.545  -1.939  23.069  0.00  0.00    -0.389 OA
ATOM     21  H   UNL     1      10.752  -1.133  23.593  0.00  0.00    +0.210 HD
ENDBRANCH   1  20
BRANCH   2  22
ATOM     22  C   UNL     1       7.965  -3.752  23.209  0.00  0.00    +0.060 C 
BRANCH  22  23
ATOM     23  C   UNL     1       6.560  -4.314  23.224  0.00  0.00    -0.046 A 
ATOM     24  C   UNL     1       5.439  -3.472  23.188  0.00  0.00    +0.004 A 
ATOM     25  C   UNL     1       4.155  -4.003  23.333  0.00  0.00    +0.000 A 
ATOM     26  C   UNL     1       3.977  -5.375  23.501  0.00  0.00    +0.000 A 
ATOM     27  C   UNL     1       5.080  -6.224  23.495  0.00  0.00    +0.000 A 
ATOM     28  C   UNL     1       6.365  -5.698  23.351  0.00  0.00    +0.004 A 
ENDBRANCH  22  23
ENDBRANCH   2  22
BRANCH   3  29
ATOM     29  C   UNL     1       8.491  -2.264  25.765  0.00  0.00    +0.144 C 
BRANCH  29  30
ATOM     30  C   UNL     1       7.568  -3.282  26.400  0.00  0.00    -0.030 A 
ATOM     31  C   UNL     1       6.220  -2.939  26.619  0.00  0.00    +0.009 A 
ATOM     32  C   UNL     1       5.285  -3.919  26.949  0.00  0.00    +0.046 A 
ATOM     33  C   UNL     1       5.699  -5.239  27.068  0.00  0.00    +0.117 A 
ATOM     34  C   UNL     1       7.044  -5.575  26.982  0.00  0.00    +0.046 A 
ATOM     35  C   UNL     1       7.982  -4.590  26.678  0.00  0.00    +0.009 A 
BRANCH  33  36
ATOM     36  O   UNL     1       4.746  -6.201  27.224  0.00  0.00    -0.507 OA
ATOM     37  H   UNL     1       3.895  -5.744  27.338  0.00  0.00    +0.292 HD
ENDBRANCH  33  36
ENDBRANCH  29  30
ENDBRANCH   3  29
BRANCH   6  38
ATOM     38  C   UNL     1       6.311   1.126  22.975  0.00  0.00    +0.165 C 
BRANCH  38  39
ATOM     39  C   UNL     1       6.195   2.626  23.083  0.00  0.00    -0.028 A 
ATOM     40  C   UNL     1       5.596   3.172  24.236  0.00  0.00    +0.009 A 
ATOM     41  C   UNL     1       5.465   4.554  24.390  0.00  0.00    +0.046 A 
ATOM     42  C   UNL     1       5.927   5.402  23.393  0.00  0.00    +0.117 A 
ATOM     43  C   UNL     1       6.536   4.888  22.256  0.00  0.00    +0.046 A 
ATOM     44  C   UNL     1       6.680   3.507  22.111  0.00  0.00    +0.009 A 
BRANCH  42  45
ATOM     45  O   UNL     1       5.772   6.744  23.568  0.00  0.00    -0.507 OA
ATOM     46  H   UNL     1       6.644   7.124  23.766  0.00  0.00    +0.292 HD
ENDBRANCH  42  45
ENDBRANCH  38  39
ENDBRANCH   6  38
TORSDOF 12
ENDMDL
MODEL 2
REMARK VINA RESULT:      -7.7      1.548      2.336
REMARK  Name = 
REMARK  12 active torsions:
REMARK  status: ('A' for Active; 'I' for Inactive)
REMARK    1  A    between atoms: O_1  and  C_2
REMARK    2  A    between atoms: N_5  and  S_35
REMARK    3  A    between atoms: N_6  and  C_7
REMARK    4  A    between atoms: C_7  and  C_8
REMARK    5  A    between atoms: C_11  and  O_12
REMARK    6  A    between atoms: N_17  and  C_18
REMARK    7  A    between atoms: C_18  and  C_19
REMARK    8  A    between atoms: C_22  and  O_23
REMARK    9  A    between atoms: C_26  and  C_28
REMARK   10  A    between atoms: C_28  and  C_29
REMARK   11  A    between atoms: S_35  and  C_38
REMARK   12  A    between atoms: C_42  and  C_44
REMARK                            x       y       z     vdW  Elec       q    Type
REMARK                         _______ _______ _______ _____ _____    ______ ____
ROOT
ATOM      1  C   UNL     1       9.365  -0.743  21.861  0.00  0.00    +0.153 C 
ATOM      2  C   UNL     1       8.309  -1.501  22.707  0.00  0.00    +0.112 C 
ATOM      3  N   UNL     1       8.207  -0.993  24.114  0.00  0.00    -0.274 N 
ATOM      4  C   UNL     1       7.417   0.135  24.399  0.00  0.00    +0.321 C 
ATOM      5  O   UNL     1       6.840   0.318  25.466  0.00  0.00    -0.251 OA
ATOM      6  N   UNL     1       7.282   1.000  23.326  0.00  0.00    -0.195 N 
ATOM      7  N   UNL     1       8.513   1.542  22.651  0.00  0.00    -0.088 NA
ATOM      8  C   UNL     1       8.947   0.693  21.501  0.00  0.00    +0.165 C 
ENDROOT
BRANCH   7   9
ATOM      9  S   UNL     1       9.781   2.058  23.741  0.00  0.00    +0.076 S 
ATOM     10  O   UNL     1      10.975   2.387  22.984  0.00  0.00    -0.151 OA
ATOM     11  O   UNL     1       9.851   1.143  24.860  0.00  0.00    -0.151 OA
BRANCH   9  12
ATOM     12  C   UNL     1       9.165   3.585  24.397  0.00  0.00    +0.108 A 
ATOM     13  C   UNL     1       8.318   3.548  25.504  0.00  0.00    +0.047 A 
ATOM     14  C   UNL     1       7.786   4.746  25.985  0.00  0.00    +0.054 A 
ATOM     15  C   UNL     1       8.123   5.961  25.373  0.00  0.00    +0.019 A 
ATOM     16  C   UNL     1       8.987   5.986  24.276  0.00  0.00    +0.003 A 
ATOM     17  C   UNL     1       9.511   4.795  23.784  0.00  0.00    +0.028 A 
BRANCH  14  18
ATOM     18  C   UNL     1       6.882   4.725  27.096  0.00  0.00    +0.099 C 
ATOM     19  N   UNL     1       6.136   4.712  27.983  0.00  0.00    -0.191 NA
ENDBRANCH  14  18
ENDBRANCH   9  12
ENDBRANCH   7   9
BRANCH   1  20
ATOM     20  O   UNL     1      10.670  -0.810  22.435  0.00  0.00    -0.389 OA
ATOM     21  H   UNL     1      10.569  -0.708  23.407  0.00  0.00    +0.210 HD
ENDBRANCH   1  20
BRANCH   2  22
ATOM     22  C   UNL     1       8.443  -3.039  22.621  0.00  0.00    +0.060 C 
BRANCH  22  23
ATOM     23  C   UNL     1       7.152  -3.829  22.664  0.00  0.00    -0.046 A 
ATOM     24  C   UNL     1       5.913  -3.191  22.818  0.00  0.00    +0.004 A 
ATOM     25  C   UNL     1       4.749  -3.945  22.984  0.00  0.00    +0.000 A 
ATOM     26  C   UNL     1       4.809  -5.338  22.985  0.00  0.00    +0.000 A 
ATOM     27  C   UNL     1       6.028  -5.980  22.791  0.00  0.00    +0.000 A 
ATOM     28  C   UNL     1       7.193  -5.231  22.624  0.00  0.00    +0.004 A 
ENDBRANCH  22  23
ENDBRANCH   2  22
BRANCH   3  29
ATOM     29  C   UNL     1       8.920  -1.638  25.236  0.00  0.00    +0.144 C 
BRANCH  29  30
ATOM     30  C   UNL     1       8.260  -2.870  25.819  0.00  0.00    -0.030 A 
ATOM     31  C   UNL     1       6.900  -2.808  26.183  0.00  0.00    +0.009 A 
ATOM     32  C   UNL     1       6.191  -3.974  26.470  0.00  0.00    +0.046 A 
ATOM     33  C   UNL     1       6.841  -5.198  26.399  0.00  0.00    +0.117 A 
ATOM     34  C   UNL     1       8.209  -5.267  26.167  0.00  0.00    +0.046 A 
ATOM     35  C   UNL     1       8.924  -4.098  25.906  0.00  0.00    +0.009 A 
BRANCH  33  36
ATOM     36  O   UNL     1       6.094  -6.332  26.517  0.00  0.00    -0.507 OA
ATOM     37  H   UNL     1       5.258  -6.173  26.046  0.00  0.00    +0.292 HD
ENDBRANCH  33  36
ENDBRANCH  29  30
ENDBRANCH   3  29
BRANCH   6  38
ATOM     38  C   UNL     1       5.997   1.494  22.854  0.00  0.00    +0.165 C 
BRANCH  38  39
ATOM     39  C   UNL     1       5.633   2.937  23.101  0.00  0.00    -0.028 A 
ATOM     40  C   UNL     1       4.766   3.236  24.172  0.00  0.00    +0.009 A 
ATOM     41  C   UNL     1       4.397   4.555  24.450  0.00  0.00    +0.046 A 
ATOM     42  C   UNL     1       4.889   5.584  23.659  0.00  0.00    +0.117 A 
ATOM     43  C   UNL     1       5.758   5.316  22.610  0.00  0.00    +0.046 A 
ATOM     44  C   UNL     1       6.136   3.998  22.344  0.00  0.00    +0.009 A 
BRANCH  42  45
ATOM     45  O   UNL     1       4.500   6.857  23.948  0.00  0.00    -0.507 OA
ATOM     46  H   UNL     1       5.253   7.447  23.779  0.00  0.00    +0.292 HD
ENDBRANCH  42  45
ENDBRANCH  38  39
ENDBRANCH   6  38
TORSDOF 12
ENDMDL
MODEL 3
REMARK VINA RESULT:      -7.4      1.651      2.153
REMARK  Name = 
REMARK  12 active torsions:
REMARK  status: ('A' for Active; 'I' for Inactive)
REMARK    1  A    between atoms: O_1  and  C_2
REMARK    2  A    between atoms: N_5  and  S_35
REMARK    3  A    between atoms: N_6  and  C_7
REMARK    4  A    between atoms: C_7  and  C_8
REMARK    5  A    between atoms: C_11  and  O_12
REMARK    6  A    between atoms: N_17  and  C_18
REMARK    7  A    between atoms: C_18  and  C_19
REMARK    8  A    between atoms: C_22  and  O_23
REMARK    9  A    between atoms: C_26  and  C_28
REMARK   10  A    between atoms: C_28  and  C_29
REMARK   11  A    between atoms: S_35  and  C_38
REMARK   12  A    between atoms: C_42  and  C_44
REMARK                            x       y       z     vdW  Elec       q    Type
REMARK                         _______ _______ _______ _____ _____    ______ ____
ROOT
ATOM      1  C   UNL     1       9.106  -0.473  21.754  0.00  0.00    +0.153 C 
ATOM      2  C   UNL     1       8.143  -1.296  22.649  0.00  0.00    +0.112 C 
ATOM      3  N   UNL     1       8.115  -0.823  24.073  0.00  0.00    -0.274 N 
ATOM      4  C   UNL     1       7.299   0.262  24.438  0.00  0.00    +0.321 C 
ATOM      5  O   UNL     1       6.789   0.396  25.545  0.00  0.00    -0.251 OA
ATOM      6  N   UNL     1       7.054   1.143  23.398  0.00  0.00    -0.195 N 
ATOM      7  N   UNL     1       8.212   1.754  22.655  0.00  0.00    -0.088 NA
ATOM      8  C   UNL     1       8.602   0.950  21.458  0.00  0.00    +0.165 C 
ENDROOT
BRANCH   7   9
ATOM      9  S   UNL     1       9.527   2.303  23.671  0.00  0.00    +0.076 S 
ATOM     10  O   UNL     1      10.795   2.039  23.015  0.00  0.00    -0.151 OA
ATOM     11  O   UNL     1       9.298   1.860  25.030  0.00  0.00    -0.151 OA
BRANCH   9  12
ATOM     12  C   UNL     1       9.327   4.063  23.690  0.00  0.00    +0.108 A 
ATOM     13  C   UNL     1       8.324   4.635  22.908  0.00  0.00    +0.047 A 
ATOM     14  C   UNL     1       8.204   6.025  22.878  0.00  0.00    +0.054 A 
ATOM     15  C   UNL     1       9.066   6.823  23.643  0.00  0.00    +0.019 A 
ATOM     16  C   UNL     1      10.056   6.237  24.435  0.00  0.00    +0.003 A 
ATOM     17  C   UNL     1      10.189   4.853  24.460  0.00  0.00    +0.028 A 
BRANCH  14  18
ATOM     18  C   UNL     1       7.206   6.633  22.050  0.00  0.00    +0.099 C 
ATOM     19  N   UNL     1       6.392   7.108  21.375  0.00  0.00    -0.191 NA
ENDBRANCH  14  18
ENDBRANCH   9  12
ENDBRANCH   7   9
BRANCH   1  20
ATOM     20  O   UNL     1      10.448  -0.494  22.237  0.00  0.00    -0.389 OA
ATOM     21  H   UNL     1      10.680  -1.432  22.420  0.00  0.00    +0.210 HD
ENDBRANCH   1  20
BRANCH   2  22
ATOM     22  C   UNL     1       8.337  -2.824  22.517  0.00  0.00    +0.060 C 
BRANCH  22  23
ATOM     23  C   UNL     1       7.085  -3.670  22.607  0.00  0.00    -0.046 A 
ATOM     24  C   UNL     1       5.837  -3.096  22.886  0.00  0.00    +0.004 A 
ATOM     25  C   UNL     1       4.719  -3.907  23.092  0.00  0.00    +0.000 A 
ATOM     26  C   UNL     1       4.833  -5.294  23.007  0.00  0.00    +0.000 A 
ATOM     27  C   UNL     1       6.058  -5.872  22.689  0.00  0.00    +0.000 A 
ATOM     28  C   UNL     1       7.178  -5.065  22.483  0.00  0.00    +0.004 A 
ENDBRANCH  22  23
ENDBRANCH   2  22
BRANCH   3  29
ATOM     29  C   UNL     1       8.930  -1.460  25.128  0.00  0.00    +0.144 C 
BRANCH  29  30
ATOM     30  C   UNL     1       8.360  -2.727  25.730  0.00  0.00    -0.030 A 
ATOM     31  C   UNL     1       7.056  -2.703  26.261  0.00  0.00    +0.009 A 
ATOM     32  C   UNL     1       6.400  -3.893  26.578  0.00  0.00    +0.046 A 
ATOM     33  C   UNL     1       7.049  -5.101  26.372  0.00  0.00    +0.117 A 
ATOM     34  C   UNL     1       8.379  -5.138  25.970  0.00  0.00    +0.046 A 
ATOM     35  C   UNL     1       9.043  -3.947  25.679  0.00  0.00    +0.009 A 
BRANCH  33  36
ATOM     36  O   UNL     1       6.335  -6.252  26.528  0.00  0.00    -0.507 OA
ATOM     37  H   UNL     1       6.915  -6.986  26.263  0.00  0.00    +0.292 HD
ENDBRANCH  33  36
ENDBRANCH  29  30
ENDBRANCH   3  29
BRANCH   6  38
ATOM     38  C   UNL     1       5.719   1.589  23.025  0.00  0.00    +0.165 C 
BRANCH  38  39
ATOM     39  C   UNL     1       5.267   2.967  23.440  0.00  0.00    -0.028 A 
ATOM     40  C   UNL     1       4.434   3.692  22.564  0.00  0.00    +0.009 A 
ATOM     41  C   UNL     1       3.982   4.971  22.898  0.00  0.00    +0.046 A 
ATOM     42  C   UNL     1       4.361   5.537  24.108  0.00  0.00    +0.117 A 
ATOM     43  C   UNL     1       5.167   4.836  24.994  0.00  0.00    +0.046 A 
ATOM     44  C   UNL     1       5.605   3.552  24.664  0.00  0.00    +0.009 A 
BRANCH  42  45
ATOM     45  O   UNL     1       3.915   6.792  24.398  0.00  0.00    -0.507 OA
ATOM     46  H   UNL     1       4.644   7.414  24.240  0.00  0.00    +0.292 HD
ENDBRANCH  42  45
ENDBRANCH  38  39
ENDBRANCH   6  38
TORSDOF 12
ENDMDL
MODEL 4
REMARK VINA RESULT:      -7.2      1.988      8.791
REMARK  Name = 
REMARK  12 active torsions:
REMARK  status: ('A' for Active; 'I' for Inactive)
REMARK    1  A    between atoms: O_1  and  C_2
REMARK    2  A    between atoms: N_5  and  S_35
REMARK    3  A    between atoms: N_6  and  C_7
REMARK    4  A    between atoms: C_7  and  C_8
REMARK    5  A    between atoms: C_11  and  O_12
REMARK    6  A    between atoms: N_17  and  C_18
REMARK    7  A    between atoms: C_18  and  C_19
REMARK    8  A    between atoms: C_22  and  O_23
REMARK    9  A    between atoms: C_26  and  C_28
REMARK   10  A    between atoms: C_28  and  C_29
REMARK   11  A    between atoms: S_35  and  C_38
REMARK   12  A    between atoms: C_42  and  C_44
REMARK                            x       y       z     vdW  Elec       q    Type
REMARK                         _______ _______ _______ _____ _____    ______ ____
ROOT
ATOM      1  C   UNL     1      10.053   0.918  23.654  0.00  0.00    +0.153 C 
ATOM      2  C   UNL     1       8.920   1.826  24.197  0.00  0.00    +0.112 C 
ATOM      3  N   UNL     1       7.562   1.439  23.691  0.00  0.00    -0.274 N 
ATOM      4  C   UNL     1       6.844   0.408  24.322  0.00  0.00    +0.321 C 
ATOM      5  O   UNL     1       5.620   0.357  24.378  0.00  0.00    -0.251 OA
ATOM      6  N   UNL     1       7.653  -0.523  24.953  0.00  0.00    -0.195 N 
ATOM      7  N   UNL     1       8.733  -1.218  24.169  0.00  0.00    -0.088 NA
ATOM      8  C   UNL     1      10.041  -0.501  24.250  0.00  0.00    +0.165 C 
ENDROOT
BRANCH   7   9
ATOM      9  S   UNL     1       8.253  -1.756  22.574  0.00  0.00    +0.076 S 
ATOM     10  O   UNL     1       9.421  -2.190  21.831  0.00  0.00    -0.151 OA
ATOM     11  O   UNL     1       7.335  -0.794  22.003  0.00  0.00    -0.151 OA
BRANCH   9  12
ATOM     12  C   UNL     1       7.296  -3.210  22.900  0.00  0.00    +0.108 A 
ATOM     13  C   UNL     1       5.982  -3.066  23.344  0.00  0.00    +0.047 A 
ATOM     14  C   UNL     1       5.246  -4.210  23.656  0.00  0.00    +0.054 A 
ATOM     15  C   UNL     1       5.820  -5.480  23.500  0.00  0.00    +0.019 A 
ATOM     16  C   UNL     1       7.131  -5.612  23.038  0.00  0.00    +0.003 A 
ATOM     17  C   UNL     1       7.874  -4.475  22.737  0.00  0.00    +0.028 A 
BRANCH  14  18
ATOM     18  C   UNL     1       3.909  -4.081  24.152  0.00  0.00    +0.099 C 
ATOM     19  N   UNL     1       2.832  -3.985  24.570  0.00  0.00    -0.191 NA
ENDBRANCH  14  18
ENDBRANCH   9  12
ENDBRANCH   7   9
BRANCH   1  20
ATOM     20  O   UNL     1      10.114   0.917  22.228  0.00  0.00    -0.389 OA
ATOM     21  H   UNL     1      10.571   1.743  21.953  0.00  0.00    +0.210 HD
ENDBRANCH   1  20
BRANCH   2  22
ATOM     22  C   UNL     1       9.218   3.336  24.048  0.00  0.00    +0.060 C 
BRANCH  22  23
ATOM     23  C   UNL     1       8.677   4.238  25.136  0.00  0.00    -0.046 A 
ATOM     24  C   UNL     1       7.787   3.756  26.106  0.00  0.00    +0.004 A 
ATOM     25  C   UNL     1       7.200   4.632  27.022  0.00  0.00    +0.000 A 
ATOM     26  C   UNL     1       7.506   5.992  26.987  0.00  0.00    +0.000 A 
ATOM     27  C   UNL     1       8.420   6.474  26.055  0.00  0.00    +0.000 A 
ATOM     28  C   UNL     1       9.008   5.602  25.139  0.00  0.00    +0.004 A 
ENDBRANCH  22  23
ENDBRANCH   2  22
BRANCH   3  29
ATOM     29  C   UNL     1       6.937   2.105  22.530  0.00  0.00    +0.144 C 
BRANCH  29  30
ATOM     30  C   UNL     1       6.251   3.424  22.814  0.00  0.00    -0.030 A 
ATOM     31  C   UNL     1       5.205   3.460  23.758  0.00  0.00    +0.009 A 
ATOM     32  C   UNL     1       4.730   4.679  24.242  0.00  0.00    +0.046 A 
ATOM     33  C   UNL     1       5.295   5.859  23.778  0.00  0.00    +0.117 A 
ATOM     34  C   UNL     1       6.237   5.846  22.756  0.00  0.00    +0.046 A 
ATOM     35  C   UNL     1       6.692   4.628  22.253  0.00  0.00    +0.009 A 
BRANCH  33  36
ATOM     36  O   UNL     1       4.937   7.027  24.383  0.00  0.00    -0.507 OA
ATOM     37  H   UNL     1       5.733   7.380  24.814  0.00  0.00    +0.292 HD
ENDBRANCH  33  36
ENDBRANCH  29  30
ENDBRANCH   3  29
BRANCH   6  38
ATOM     38  C   UNL     1       7.465  -0.940  26.335  0.00  0.00    +0.165 C 
BRANCH  38  39
ATOM     39  C   UNL     1       7.219  -2.398  26.631  0.00  0.00    -0.028 A 
ATOM     40  C   UNL     1       5.932  -2.789  27.054  0.00  0.00    +0.009 A 
ATOM     41  C   UNL     1       5.647  -4.127  27.339  0.00  0.00    +0.046 A 
ATOM     42  C   UNL     1       6.643  -5.084  27.206  0.00  0.00    +0.117 A 
ATOM     43  C   UNL     1       7.913  -4.726  26.774  0.00  0.00    +0.046 A 
ATOM     44  C   UNL     1       8.192  -3.390  26.475  0.00  0.00    +0.009 A 
BRANCH  42  45
ATOM     45  O   UNL     1       6.336  -6.377  27.504  0.00  0.00    -0.507 OA
ATOM     46  H   UNL     1       6.943  -6.677  28.201  0.00  0.00    +0.292 HD
ENDBRANCH  42  45
ENDBRANCH  38  39
ENDBRANCH   6  38
TORSDOF 12
ENDMDL
MODEL 5
REMARK VINA RESULT:      -6.7      2.231      8.747
REMARK  Name = 
REMARK  12 active torsions:
REMARK  status: ('A' for Active; 'I' for Inactive)
REMARK    1  A    between atoms: O_1  and  C_2
REMARK    2  A    between atoms: N_5  and  S_35
REMARK    3  A    between atoms: N_6  and  C_7
REMARK    4  A    between atoms: C_7  and  C_8
REMARK    5  A    between atoms: C_11  and  O_12
REMARK    6  A    between atoms: N_17  and  C_18
REMARK    7  A    between atoms: C_18  and  C_19
REMARK    8  A    between atoms: C_22  and  O_23
REMARK    9  A    between atoms: C_26  and  C_28
REMARK   10  A    between atoms: C_28  and  C_29
REMARK   11  A    between atoms: S_35  and  C_38
REMARK   12  A    between atoms: C_42  and  C_44
REMARK                            x       y       z     vdW  Elec       q    Type
REMARK                         _______ _______ _______ _____ _____    ______ ____
ROOT
ATOM      1  C   UNL     1      10.124   2.626  23.320  0.00  0.00    +0.153 C 
ATOM      2  C   UNL     1       8.877   3.407  23.811  0.00  0.00    +0.112 C 
ATOM      3  N   UNL     1       7.584   2.760  23.412  0.00  0.00    -0.274 N 
ATOM      4  C   UNL     1       7.055   1.711  24.184  0.00  0.00    +0.321 C 
ATOM      5  O   UNL     1       5.856   1.481  24.300  0.00  0.00    -0.251 OA
ATOM      6  N   UNL     1       8.017   0.995  24.876  0.00  0.00    -0.195 N 
ATOM      7  N   UNL     1       9.171   0.387  24.125  0.00  0.00    -0.088 NA
ATOM      8  C   UNL     1      10.352   1.301  24.068  0.00  0.00    +0.165 C 
ENDROOT
BRANCH   7   9
ATOM      9  S   UNL     1       8.737  -0.398  22.623  0.00  0.00    +0.076 S 
ATOM     10  O   UNL     1       9.863  -0.360  21.707  0.00  0.00    -0.151 OA
ATOM     11  O   UNL     1       7.433   0.066  22.200  0.00  0.00    -0.151 OA
BRANCH   9  12
ATOM     12  C   UNL     1       8.525  -2.094  23.089  0.00  0.00    +0.108 A 
ATOM     13  C   UNL     1       7.529  -2.844  22.464  0.00  0.00    +0.047 A 
ATOM     14  C   UNL     1       7.323  -4.163  22.872  0.00  0.00    +0.054 A 
ATOM     15  C   UNL     1       8.125  -4.722  23.877  0.00  0.00    +0.019 A 
ATOM     16  C   UNL     1       9.131  -3.966  24.483  0.00  0.00    +0.003 A 
ATOM     17  C   UNL     1       9.334  -2.647  24.090  0.00  0.00    +0.028 A 
BRANCH  14  18
ATOM     18  C   UNL     1       6.278  -4.936  22.271  0.00  0.00    +0.099 C 
ATOM     19  N   UNL     1       5.421  -5.557  21.799  0.00  0.00    -0.191 NA
ENDBRANCH  14  18
ENDBRANCH   9  12
ENDBRANCH   7   9
BRANCH   1  20
ATOM     20  O   UNL     1      10.145   2.470  21.902  0.00  0.00    -0.389 OA
ATOM     21  H   UNL     1       9.226   2.270  21.615  0.00  0.00    +0.210 HD
ENDBRANCH   1  20
BRANCH   2  22
ATOM     22  C   UNL     1       8.931   4.917  23.484  0.00  0.00    +0.060 C 
BRANCH  22  23
ATOM     23  C   UNL     1      10.021   5.714  24.168  0.00  0.00    -0.046 A 
ATOM     24  C   UNL     1      11.338   5.709  23.686  0.00  0.00    +0.004 A 
ATOM     25  C   UNL     1      12.353   6.345  24.405  0.00  0.00    +0.000 A 
ATOM     26  C   UNL     1      12.062   7.002  25.599  0.00  0.00    +0.000 A 
ATOM     27  C   UNL     1      10.751   7.049  26.063  0.00  0.00    +0.000 A 
ATOM     28  C   UNL     1       9.734   6.415  25.349  0.00  0.00    +0.004 A 
ENDBRANCH  22  23
ENDBRANCH   2  22
BRANCH   3  29
ATOM     29  C   UNL     1       6.830   3.185  22.214  0.00  0.00    +0.144 C 
BRANCH  29  30
ATOM     30  C   UNL     1       5.567   3.978  22.474  0.00  0.00    -0.030 A 
ATOM     31  C   UNL     1       5.677   5.328  22.862  0.00  0.00    +0.009 A 
ATOM     32  C   UNL     1       4.557   6.160  22.852  0.00  0.00    +0.046 A 
ATOM     33  C   UNL     1       3.330   5.641  22.463  0.00  0.00    +0.117 A 
ATOM     34  C   UNL     1       3.179   4.284  22.201  0.00  0.00    +0.046 A 
ATOM     35  C   UNL     1       4.295   3.448  22.237  0.00  0.00    +0.009 A 
BRANCH  33  36
ATOM     36  O   UNL     1       2.288   6.504  22.299  0.00  0.00    -0.507 OA
ATOM     37  H   UNL     1       1.477   6.019  22.527  0.00  0.00    +0.292 HD
ENDBRANCH  33  36
ENDBRANCH  29  30
ENDBRANCH   3  29
BRANCH   6  38
ATOM     38  C   UNL     1       7.935   0.716  26.302  0.00  0.00    +0.165 C 
BRANCH  38  39
ATOM     39  C   UNL     1       6.905  -0.268  26.797  0.00  0.00    -0.028 A 
ATOM     40  C   UNL     1       5.877   0.202  27.640  0.00  0.00    +0.009 A 
ATOM     41  C   UNL     1       4.895  -0.665  28.125  0.00  0.00    +0.046 A 
ATOM     42  C   UNL     1       4.932  -2.008  27.774  0.00  0.00    +0.117 A 
ATOM     43  C   UNL     1       5.924  -2.491  26.932  0.00  0.00    +0.046 A 
ATOM     44  C   UNL     1       6.896  -1.619  26.436  0.00  0.00    +0.009 A 
BRANCH  42  45
ATOM     45  O   UNL     1       3.967  -2.829  28.275  0.00  0.00    -0.507 OA
ATOM     46  H   UNL     1       4.139  -2.951  29.223  0.00  0.00    +0.292 HD
ENDBRANCH  42  45
ENDBRANCH  38  39
ENDBRANCH   6  38
TORSDOF 12
ENDMDL
MODEL 6
REMARK VINA RESULT:      -6.6      2.201      8.856
REMARK  Name = 
REMARK  12 active torsions:
REMARK  status: ('A' for Active; 'I' for Inactive)
REMARK    1  A    between atoms: O_1  and  C_2
REMARK    2  A    between atoms: N_5  and  S_35
REMARK    3  A    between atoms: N_6  and  C_7
REMARK    4  A    between atoms: C_7  and  C_8
REMARK    5  A    between atoms: C_11  and  O_12
REMARK    6  A    between atoms: N_17  and  C_18
REMARK    7  A    between atoms: C_18  and  C_19
REMARK    8  A    between atoms: C_22  and  O_23
REMARK    9  A    between atoms: C_26  and  C_28
REMARK   10  A    between atoms: C_28  and  C_29
REMARK   11  A    between atoms: S_35  and  C_38
REMARK   12  A    between atoms: C_42  and  C_44
REMARK                            x       y       z     vdW  Elec       q    Type
REMARK                         _______ _______ _______ _____ _____    ______ ____
ROOT
ATOM      1  C   UNL     1       9.656  -1.376  23.244  0.00  0.00    +0.153 C 
ATOM      2  C   UNL     1       8.970  -0.107  23.811  0.00  0.00    +0.112 C 
ATOM      3  N   UNL     1       7.487  -0.087  23.584  0.00  0.00    -0.274 N 
ATOM      4  C   UNL     1       6.631  -0.770  24.465  0.00  0.00    +0.321 C 
ATOM      5  O   UNL     1       5.482  -0.422  24.715  0.00  0.00    -0.251 OA
ATOM      6  N   UNL     1       7.233  -1.845  25.098  0.00  0.00    -0.195 N 
ATOM      7  N   UNL     1       7.886  -2.920  24.272  0.00  0.00    -0.088 NA
ATOM      8  C   UNL     1       9.338  -2.653  24.042  0.00  0.00    +0.165 C 
ENDROOT
BRANCH   7   9
ATOM      9  S   UNL     1       6.970  -3.426  22.869  0.00  0.00    +0.076 S 
ATOM     10  O   UNL     1       7.752  -4.367  22.087  0.00  0.00    -0.151 OA
ATOM     11  O   UNL     1       6.377  -2.265  22.242  0.00  0.00    -0.151 OA
BRANCH   9  12
ATOM     12  C   UNL     1       5.625  -4.346  23.564  0.00  0.00    +0.108 A 
ATOM     13  C   UNL     1       4.472  -3.664  23.950  0.00  0.00    +0.047 A 
ATOM     14  C   UNL     1       3.435  -4.380  24.551  0.00  0.00    +0.054 A 
ATOM     15  C   UNL     1       3.551  -5.764  24.737  0.00  0.00    +0.019 A 
ATOM     16  C   UNL     1       4.704  -6.439  24.330  0.00  0.00    +0.003 A 
ATOM     17  C   UNL     1       5.747  -5.730  23.742  0.00  0.00    +0.028 A 
BRANCH  14  18
ATOM     18  C   UNL     1       2.259  -3.690  24.991  0.00  0.00    +0.099 C 
ATOM     19  N   UNL     1       1.317  -3.127  25.363  0.00  0.00    -0.191 NA
ENDBRANCH  14  18
ENDBRANCH   9  12
ENDBRANCH   7   9
BRANCH   1  20
ATOM     20  O   UNL     1       9.438  -1.533  21.843  0.00  0.00    -0.389 OA
ATOM     21  H   UNL     1       8.555  -1.950  21.728  0.00  0.00    +0.210 HD
ENDBRANCH   1  20
BRANCH   2  22
ATOM     22  C   UNL     1       9.669   1.207  23.393  0.00  0.00    +0.060 C 
BRANCH  22  23
ATOM     23  C   UNL     1       9.308   2.444  24.188  0.00  0.00    -0.046 A 
ATOM     24  C   UNL     1       8.430   2.376  25.279  0.00  0.00    +0.004 A 
ATOM     25  C   UNL     1       8.009   3.545  25.918  0.00  0.00    +0.000 A 
ATOM     26  C   UNL     1       8.470   4.787  25.484  0.00  0.00    +0.000 A 
ATOM     27  C   UNL     1       9.375   4.861  24.429  0.00  0.00    +0.000 A 
ATOM     28  C   UNL     1       9.797   3.696  23.788  0.00  0.00    +0.004 A 
ENDBRANCH  22  23
ENDBRANCH   2  22
BRANCH   3  29
ATOM     29  C   UNL     1       6.877   0.630  22.445  0.00  0.00    +0.144 C 
BRANCH  29  30
ATOM     30  C   UNL     1       6.420   2.046  22.723  0.00  0.00    -0.030 A 
ATOM     31  C   UNL     1       7.006   3.106  22.005  0.00  0.00    +0.009 A 
ATOM     32  C   UNL     1       6.438   4.380  22.034  0.00  0.00    +0.046 A 
ATOM     33  C   UNL     1       5.291   4.593  22.786  0.00  0.00    +0.117 A 
ATOM     34  C   UNL     1       4.774   3.593  23.600  0.00  0.00    +0.046 A 
ATOM     35  C   UNL     1       5.359   2.327  23.591  0.00  0.00    +0.009 A 
BRANCH  33  36
ATOM     36  O   UNL     1       4.659   5.795  22.669  0.00  0.00    -0.507 OA
ATOM     37  H   UNL     1       4.867   6.142  21.784  0.00  0.00    +0.292 HD
ENDBRANCH  33  36
ENDBRANCH  29  30
ENDBRANCH   3  29
BRANCH   6  38
ATOM     38  C   UNL     1       7.200  -2.047  26.539  0.00  0.00    +0.165 C 
BRANCH  38  39
ATOM     39  C   UNL     1       6.434  -3.221  27.095  0.00  0.00    -0.028 A 
ATOM     40  C   UNL     1       5.133  -3.000  27.591  0.00  0.00    +0.009 A 
ATOM     41  C   UNL     1       4.376  -4.051  28.115  0.00  0.00    +0.046 A 
ATOM     42  C   UNL     1       4.913  -5.331  28.150  0.00  0.00    +0.117 A 
ATOM     43  C   UNL     1       6.186  -5.576  27.652  0.00  0.00    +0.046 A 
ATOM     44  C   UNL     1       6.934  -4.526  27.115  0.00  0.00    +0.009 A 
BRANCH  42  45
ATOM     45  O   UNL     1       4.155  -6.331  28.679  0.00  0.00    -0.507 OA
ATOM     46  H   UNL     1       4.719  -6.852  29.274  0.00  0.00    +0.292 HD
ENDBRANCH  42  45
ENDBRANCH  38  39
ENDBRANCH   6  38
TORSDOF 12
ENDMDL
MODEL 7
REMARK VINA RESULT:      -6.5      3.142      9.427
REMARK  Name = 
REMARK  12 active torsions:
REMARK  status: ('A' for Active; 'I' for Inactive)
REMARK    1  A    between atoms: O_1  and  C_2
REMARK    2  A    between atoms: N_5  and  S_35
REMARK    3  A    between atoms: N_6  and  C_7
REMARK    4  A    between atoms: C_7  and  C_8
REMARK    5  A    between atoms: C_11  and  O_12
REMARK    6  A    between atoms: N_17  and  C_18
REMARK    7  A    between atoms: C_18  and  C_19
REMARK    8  A    between atoms: C_22  and  O_23
REMARK    9  A    between atoms: C_26  and  C_28
REMARK   10  A    between atoms: C_28  and  C_29
REMARK   11  A    between atoms: S_35  and  C_38
REMARK   12  A    between atoms: C_42  and  C_44
REMARK                            x       y       z     vdW  Elec       q    Type
REMARK                         _______ _______ _______ _____ _____    ______ ____
ROOT
ATOM      1  C   UNL     1       5.736  -1.336  26.333  0.00  0.00    +0.153 C 
ATOM      2  C   UNL     1       6.364  -1.019  24.951  0.00  0.00    +0.112 C 
ATOM      3  N   UNL     1       7.326  -2.072  24.486  0.00  0.00    -0.274 N 
ATOM      4  C   UNL     1       6.847  -3.227  23.844  0.00  0.00    +0.321 C 
ATOM      5  O   UNL     1       7.473  -3.849  22.992  0.00  0.00    -0.251 OA
ATOM      6  N   UNL     1       5.554  -3.564  24.205  0.00  0.00    -0.195 N 
ATOM      7  N   UNL     1       5.216  -3.755  25.660  0.00  0.00    -0.088 NA
ATOM      8  C   UNL     1       4.724  -2.495  26.295  0.00  0.00    +0.165 C 
ENDROOT
BRANCH   7   9
ATOM      9  S   UNL     1       6.400  -4.662  26.575  0.00  0.00    +0.076 S 
ATOM     10  O   UNL     1       7.236  -3.749  27.334  0.00  0.00    -0.151 OA
ATOM     11  O   UNL     1       6.998  -5.665  25.721  0.00  0.00    -0.151 OA
BRANCH   9  12
ATOM     12  C   UNL     1       5.420  -5.546  27.756  0.00  0.00    +0.108 A 
ATOM     13  C   UNL     1       4.180  -6.047  27.361  0.00  0.00    +0.047 A 
ATOM     14  C   UNL     1       3.382  -6.693  28.307  0.00  0.00    +0.054 A 
ATOM     15  C   UNL     1       3.839  -6.852  29.623  0.00  0.00    +0.019 A 
ATOM     16  C   UNL     1       5.090  -6.361  30.001  0.00  0.00    +0.003 A 
ATOM     17  C   UNL     1       5.885  -5.705  29.067  0.00  0.00    +0.028 A 
BRANCH  14  18
ATOM     18  C   UNL     1       2.088  -7.179  27.931  0.00  0.00    +0.099 C 
ATOM     19  N   UNL     1       1.049  -7.587  27.619  0.00  0.00    -0.191 NA
ENDBRANCH  14  18
ENDBRANCH   9  12
ENDBRANCH   7   9
BRANCH   1  20
ATOM     20  O   UNL     1       6.719  -1.496  27.354  0.00  0.00    -0.389 OA
ATOM     21  H   UNL     1       7.369  -2.162  27.035  0.00  0.00    +0.210 HD
ENDBRANCH   1  20
BRANCH   2  22
ATOM     22  C   UNL     1       6.933   0.415  24.851  0.00  0.00    +0.060 C 
BRANCH  22  23
ATOM     23  C   UNL     1       6.114   1.409  24.055  0.00  0.00    -0.046 A 
ATOM     24  C   UNL     1       6.558   1.889  22.815  0.00  0.00    +0.004 A 
ATOM     25  C   UNL     1       5.853   2.901  22.158  0.00  0.00    +0.000 A 
ATOM     26  C   UNL     1       4.694   3.431  22.725  0.00  0.00    +0.000 A 
ATOM     27  C   UNL     1       4.223   2.931  23.936  0.00  0.00    +0.000 A 
ATOM     28  C   UNL     1       4.925   1.921  24.595  0.00  0.00    +0.004 A 
ENDBRANCH  22  23
ENDBRANCH   2  22
BRANCH   3  29
ATOM     29  C   UNL     1       8.784  -1.945  24.684  0.00  0.00    +0.144 C 
BRANCH  29  30
ATOM     30  C   UNL     1       9.472  -0.871  23.869  0.00  0.00    -0.030 A 
ATOM     31  C   UNL     1       9.312  -0.869  22.469  0.00  0.00    +0.009 A 
ATOM     32  C   UNL     1       9.701   0.237  21.714  0.00  0.00    +0.046 A 
ATOM     33  C   UNL     1      10.253   1.336  22.357  0.00  0.00    +0.117 A 
ATOM     34  C   UNL     1      10.535   1.301  23.717  0.00  0.00    +0.046 A 
ATOM     35  C   UNL     1      10.171   0.183  24.467  0.00  0.00    +0.009 A 
BRANCH  33  36
ATOM     36  O   UNL     1      10.469   2.468  21.627  0.00  0.00    -0.507 OA
ATOM     37  H   UNL     1      11.021   2.216  20.868  0.00  0.00    +0.292 HD
ENDBRANCH  33  36
ENDBRANCH  29  30
ENDBRANCH   3  29
BRANCH   6  38
ATOM     38  C   UNL     1       4.497  -3.834  23.240  0.00  0.00    +0.165 C 
BRANCH  38  39
ATOM     39  C   UNL     1       3.448  -4.865  23.575  0.00  0.00    -0.028 A 
ATOM     40  C   UNL     1       3.826  -6.222  23.607  0.00  0.00    +0.009 A 
ATOM     41  C   UNL     1       2.897  -7.219  23.914  0.00  0.00    +0.046 A 
ATOM     42  C   UNL     1       1.582  -6.869  24.189  0.00  0.00    +0.117 A 
ATOM     43  C   UNL     1       1.189  -5.537  24.180  0.00  0.00    +0.046 A 
ATOM     44  C   UNL     1       2.124  -4.541  23.887  0.00  0.00    +0.009 A 
BRANCH  42  45
ATOM     45  O   UNL     1       0.697  -7.865  24.471  0.00  0.00    -0.507 OA
ATOM     46  H   UNL     1       0.987  -8.666  24.003  0.00  0.00    +0.292 HD
ENDBRANCH  42  45
ENDBRANCH  38  39
ENDBRANCH   6  38
TORSDOF 12
ENDMDL
MODEL 8
REMARK VINA RESULT:      -6.4      3.274      8.348
REMARK  Name = 
REMARK  12 active torsions:
REMARK  status: ('A' for Active; 'I' for Inactive)
REMARK    1  A    between atoms: O_1  and  C_2
REMARK    2  A    between atoms: N_5  and  S_35
REMARK    3  A    between atoms: N_6  and  C_7
REMARK    4  A    between atoms: C_7  and  C_8
REMARK    5  A    between atoms: C_11  and  O_12
REMARK    6  A    between atoms: N_17  and  C_18
REMARK    7  A    between atoms: C_18  and  C_19
REMARK    8  A    between atoms: C_22  and  O_23
REMARK    9  A    between atoms: C_26  and  C_28
REMARK   10  A    between atoms: C_28  and  C_29
REMARK   11  A    between atoms: S_35  and  C_38
REMARK   12  A    between atoms: C_42  and  C_44
REMARK                            x       y       z     vdW  Elec       q    Type
REMARK                         _______ _______ _______ _____ _____    ______ ____
ROOT
ATOM      1  C   UNL     1       5.266  -1.580  24.713  0.00  0.00    +0.153 C 
ATOM      2  C   UNL     1       6.074  -0.344  25.187  0.00  0.00    +0.112 C 
ATOM      3  N   UNL     1       6.732  -0.547  26.519  0.00  0.00    -0.274 N 
ATOM      4  C   UNL     1       7.970  -1.208  26.599  0.00  0.00    +0.321 C 
ATOM      5  O   UNL     1       8.817  -0.980  27.456  0.00  0.00    -0.251 OA
ATOM      6  N   UNL     1       8.187  -2.101  25.563  0.00  0.00    -0.195 N 
ATOM      7  N   UNL     1       7.178  -3.186  25.295  0.00  0.00    -0.088 NA
ATOM      8  C   UNL     1       6.152  -2.767  24.294  0.00  0.00    +0.165 C 
ENDROOT
BRANCH   7   9
ATOM      9  S   UNL     1       6.569  -3.991  26.725  0.00  0.00    +0.076 S 
ATOM     10  O   UNL     1       5.755  -3.069  27.497  0.00  0.00    -0.151 OA
ATOM     11  O   UNL     1       7.647  -4.723  27.356  0.00  0.00    -0.151 OA
BRANCH   9  12
ATOM     12  C   UNL     1       5.465  -5.212  26.073  0.00  0.00    +0.108 A 
ATOM     13  C   UNL     1       4.331  -5.555  26.809  0.00  0.00    +0.047 A 
ATOM     14  C   UNL     1       3.491  -6.559  26.323  0.00  0.00    +0.054 A 
ATOM     15  C   UNL     1       3.779  -7.189  25.104  0.00  0.00    +0.019 A 
ATOM     16  C   UNL     1       4.908  -6.824  24.368  0.00  0.00    +0.003 A 
ATOM     17  C   UNL     1       5.756  -5.832  24.852  0.00  0.00    +0.028 A 
BRANCH  14  18
ATOM     18  C   UNL     1       2.344  -6.954  27.084  0.00  0.00    +0.099 C 
ATOM     19  N   UNL     1       1.426  -7.275  27.715  0.00  0.00    -0.191 NA
ENDBRANCH  14  18
ENDBRANCH   9  12
ENDBRANCH   7   9
BRANCH   1  20
ATOM     20  O   UNL     1       4.247  -1.952  25.639  0.00  0.00    -0.389 OA
ATOM     21  H   UNL     1       4.381  -1.417  26.454  0.00  0.00    +0.210 HD
ENDBRANCH   1  20
BRANCH   2  22
ATOM     22  C   UNL     1       5.281   0.979  25.092  0.00  0.00    +0.060 C 
BRANCH  22  23
ATOM     23  C   UNL     1       5.823   2.020  24.135  0.00  0.00    -0.046 A 
ATOM     24  C   UNL     1       5.528   3.381  24.298  0.00  0.00    +0.004 A 
ATOM     25  C   UNL     1       5.929   4.309  23.333  0.00  0.00    +0.000 A 
ATOM     26  C   UNL     1       6.638   3.890  22.208  0.00  0.00    +0.000 A 
ATOM     27  C   UNL     1       6.972   2.547  22.059  0.00  0.00    +0.000 A 
ATOM     28  C   UNL     1       6.573   1.617  23.020  0.00  0.00    +0.004 A 
ENDBRANCH  22  23
ENDBRANCH   2  22
BRANCH   3  29
ATOM     29  C   UNL     1       6.118  -0.075  27.778  0.00  0.00    +0.144 C 
BRANCH  29  30
ATOM     30  C   UNL     1       6.727   1.171  28.385  0.00  0.00    -0.030 A 
ATOM     31  C   UNL     1       6.597   2.396  27.702  0.00  0.00    +0.009 A 
ATOM     32  C   UNL     1       6.904   3.597  28.341  0.00  0.00    +0.046 A 
ATOM     33  C   UNL     1       7.346   3.573  29.656  0.00  0.00    +0.117 A 
ATOM     34  C   UNL     1       7.602   2.368  30.301  0.00  0.00    +0.046 A 
ATOM     35  C   UNL     1       7.320   1.167  29.652  0.00  0.00    +0.009 A 
BRANCH  33  36
ATOM     36  O   UNL     1       7.479   4.759  30.313  0.00  0.00    -0.507 OA
ATOM     37  H   UNL     1       7.558   4.553  31.260  0.00  0.00    +0.292 HD
ENDBRANCH  33  36
ENDBRANCH  29  30
ENDBRANCH   3  29
BRANCH   6  38
ATOM     38  C   UNL     1       9.396  -2.108  24.753  0.00  0.00    +0.165 C 
BRANCH  38  39
ATOM     39  C   UNL     1       9.673  -0.938  23.842  0.00  0.00    -0.028 A 
ATOM     40  C   UNL     1      10.207   0.239  24.405  0.00  0.00    +0.009 A 
ATOM     41  C   UNL     1      10.485   1.352  23.608  0.00  0.00    +0.046 A 
ATOM     42  C   UNL     1      10.230   1.300  22.245  0.00  0.00    +0.117 A 
ATOM     43  C   UNL     1       9.720   0.147  21.665  0.00  0.00    +0.046 A 
ATOM     44  C   UNL     1       9.457  -0.970  22.461  0.00  0.00    +0.009 A 
BRANCH  42  45
ATOM     45  O   UNL     1      10.500   2.408  21.498  0.00  0.00    -0.507 OA
ATOM     46  H   UNL     1       9.678   2.918  21.410  0.00  0.00    +0.292 HD
ENDBRANCH  42  45
ENDBRANCH  38  39
ENDBRANCH   6  38
TORSDOF 12
ENDMDL
MODEL 9
REMARK VINA RESULT:      -6.3      2.385      8.203
REMARK  Name = 
REMARK  12 active torsions:
REMARK  status: ('A' for Active; 'I' for Inactive)
REMARK    1  A    between atoms: O_1  and  C_2
REMARK    2  A    between atoms: N_5  and  S_35
REMARK    3  A    between atoms: N_6  and  C_7
REMARK    4  A    between atoms: C_7  and  C_8
REMARK    5  A    between atoms: C_11  and  O_12
REMARK    6  A    between atoms: N_17  and  C_18
REMARK    7  A    between atoms: C_18  and  C_19
REMARK    8  A    between atoms: C_22  and  O_23
REMARK    9  A    between atoms: C_26  and  C_28
REMARK   10  A    between atoms: C_28  and  C_29
REMARK   11  A    between atoms: S_35  and  C_38
REMARK   12  A    between atoms: C_42  and  C_44
REMARK                            x       y       z     vdW  Elec       q    Type
REMARK                         _______ _______ _______ _____ _____    ______ ____
ROOT
ATOM      1  C   UNL     1      10.452   1.707  23.910  0.00  0.00    +0.153 C 
ATOM      2  C   UNL     1       9.136   2.416  24.324  0.00  0.00    +0.112 C 
ATOM      3  N   UNL     1       7.911   1.762  23.756  0.00  0.00    -0.274 N 
ATOM      4  C   UNL     1       7.346   0.648  24.400  0.00  0.00    +0.321 C 
ATOM      5  O   UNL     1       6.150   0.376  24.380  0.00  0.00    -0.251 OA
ATOM      6  N   UNL     1       8.260  -0.088  25.136  0.00  0.00    -0.195 N 
ATOM      7  N   UNL     1       9.503  -0.609  24.466  0.00  0.00    -0.088 NA
ATOM      8  C   UNL     1      10.651   0.340  24.588  0.00  0.00    +0.165 C 
ENDROOT
BRANCH   7   9
ATOM      9  S   UNL     1       9.246  -1.300  22.879  0.00  0.00    +0.076 S 
ATOM     10  O   UNL     1      10.489  -1.865  22.384  0.00  0.00    -0.151 OA
ATOM     11  O   UNL     1       8.490  -0.369  22.069  0.00  0.00    -0.151 OA
BRANCH   9  12
ATOM     12  C   UNL     1       8.163  -2.666  23.193  0.00  0.00    +0.108 A 
ATOM     13  C   UNL     1       8.277  -3.351  24.402  0.00  0.00    +0.047 A 
ATOM     14  C   UNL     1       7.464  -4.463  24.627  0.00  0.00    +0.054 A 
ATOM     15  C   UNL     1       6.534  -4.861  23.656  0.00  0.00    +0.019 A 
ATOM     16  C   UNL     1       6.417  -4.156  22.457  0.00  0.00    +0.003 A 
ATOM     17  C   UNL     1       7.233  -3.054  22.221  0.00  0.00    +0.028 A 
BRANCH  14  18
ATOM     18  C   UNL     1       7.595  -5.204  25.845  0.00  0.00    +0.099 C 
ATOM     19  N   UNL     1       7.719  -5.801  26.831  0.00  0.00    -0.191 NA
ENDBRANCH  14  18
ENDBRANCH   9  12
ENDBRANCH   7   9
BRANCH   1  20
ATOM     20  O   UNL     1      10.616   1.650  22.494  0.00  0.00    -0.389 OA
ATOM     21  H   UNL     1      11.079   2.473  22.218  0.00  0.00    +0.210 HD
ENDBRANCH   1  20
BRANCH   2  22
ATOM     22  C   UNL     1       9.169   3.946  24.104  0.00  0.00    +0.060 C 
BRANCH  22  23
ATOM     23  C   UNL     1       8.706   4.801  25.265  0.00  0.00    -0.046 A 
ATOM     24  C   UNL     1       7.613   4.422  26.057  0.00  0.00    +0.004 A 
ATOM     25  C   UNL     1       7.122   5.285  27.039  0.00  0.00    +0.000 A 
ATOM     26  C   UNL     1       7.724   6.525  27.249  0.00  0.00    +0.000 A 
ATOM     27  C   UNL     1       8.836   6.892  26.496  0.00  0.00    +0.000 A 
ATOM     28  C   UNL     1       9.329   6.033  25.514  0.00  0.00    +0.004 A 
ENDBRANCH  22  23
ENDBRANCH   2  22
BRANCH   3  29
ATOM     29  C   UNL     1       7.264   2.247  22.519  0.00  0.00    +0.144 C 
BRANCH  29  30
ATOM     30  C   UNL     1       6.421   3.497  22.660  0.00  0.00    -0.030 A 
ATOM     31  C   UNL     1       5.232   3.437  23.411  0.00  0.00    +0.009 A 
ATOM     32  C   UNL     1       4.572   4.607  23.786  0.00  0.00    +0.046 A 
ATOM     33  C   UNL     1       5.096   5.833  23.404  0.00  0.00    +0.117 A 
ATOM     34  C   UNL     1       6.196   5.907  22.557  0.00  0.00    +0.046 A 
ATOM     35  C   UNL     1       6.839   4.735  22.160  0.00  0.00    +0.009 A 
BRANCH  33  36
ATOM     36  O   UNL     1       4.534   6.963  23.919  0.00  0.00    -0.507 OA
ATOM     37  H   UNL     1       3.646   7.042  23.531  0.00  0.00    +0.292 HD
ENDBRANCH  33  36
ENDBRANCH  29  30
ENDBRANCH   3  29
BRANCH   6  38
ATOM     38  C   UNL     1       8.049  -0.467  26.525  0.00  0.00    +0.165 C 
BRANCH  38  39
ATOM     39  C   UNL     1       6.860   0.095  27.264  0.00  0.00    -0.028 A 
ATOM     40  C   UNL     1       6.941   1.410  27.766  0.00  0.00    +0.009 A 
ATOM     41  C   UNL     1       5.869   1.982  28.455  0.00  0.00    +0.046 A 
ATOM     42  C   UNL     1       4.708   1.246  28.650  0.00  0.00    +0.117 A 
ATOM     43  C   UNL     1       4.598  -0.045  28.150  0.00  0.00    +0.046 A 
ATOM     44  C   UNL     1       5.666  -0.609  27.448  0.00  0.00    +0.009 A 
BRANCH  42  45
ATOM     45  O   UNL     1       3.686   1.828  29.337  0.00  0.00    -0.507 OA
ATOM     46  H   UNL     1       3.124   2.297  28.699  0.00  0.00    +0.292 HD
ENDBRANCH  42  45
ENDBRANCH  38  39
ENDBRANCH   6  38
TORSDOF 12
ENDMDL
