MODEL 1
REMARK VINA RESULT:      -5.2      0.000      0.000
REMARK  Name = 
REMARK  10 active torsions:
REMARK  status: ('A' for Active; 'I' for Inactive)
REMARK    1  A    between atoms: O_1  and  C_2
REMARK    2  A    between atoms: C_4  and  C_6
REMARK    3  A    between atoms: C_6  and  O_7
REMARK    4  A    between atoms: O_7  and  P_8
REMARK    5  A    between atoms: P_8  and  O_9
REMARK    6  A    between atoms: P_8  and  O_10
REMARK    7  A    between atoms: C_13  and  O_14
REMARK    8  A    between atoms: C_13  and  C_18
REMARK    9  A    between atoms: C_15  and  O_17
REMARK   10  A    between atoms: C_18  and  O_19
REMARK                            x       y       z     vdW  Elec       q    Type
REMARK                         _______ _______ _______ _____ _____    ______ ____
ROOT
ATOM      1  C   UNL     1       9.133   0.574  21.428  0.00  0.00    +0.180 C 
ATOM      2  C   UNL     1      10.160   1.259  22.328  0.00  0.00    +0.216 C 
ATOM      3  C   UNL     1       9.519   1.214  23.721  0.00  0.00    +0.297 C 
ATOM      4  O   UNL     1       8.276   0.527  23.637  0.00  0.00    -0.330 OA
ATOM      5  C   UNL     1       8.247  -0.203  22.394  0.00  0.00    +0.179 C 
ENDROOT
BRANCH   1   6
ATOM      6  O   UNL     1       8.323   1.533  20.741  0.00  0.00    -0.386 OA
ATOM      7  H   UNL     1       8.100   1.152  19.869  0.00  0.00    +0.210 HD
ENDBRANCH   1   6
BRANCH   2   8
ATOM      8  O   UNL     1      10.374   2.619  21.896  0.00  0.00    -0.383 OA
ATOM      9  H   UNL     1      11.105   2.598  21.245  0.00  0.00    +0.210 HD
ENDBRANCH   2   8
BRANCH   3  10
ATOM     10  O   UNL     1       9.258   2.526  24.231  0.00  0.00    -0.354 OA
ATOM     11  H   UNL     1       8.565   2.395  24.909  0.00  0.00    +0.213 HD
ENDBRANCH   3  10
BRANCH   3  12
ATOM     12  C   UNL     1      10.442   0.497  24.748  0.00  0.00    +0.368 C 
ATOM     13  O   UNL     1      11.663   0.530  24.744  0.00  0.00    -0.245 OA
BRANCH  12  14
ATOM     14  O   UNL     1       9.726  -0.208  25.662  0.00  0.00    -0.477 OA
ATOM     15  H   UNL     1       8.796   0.122  25.633  0.00  0.00    +0.295 HD
ENDBRANCH  12  14
ENDBRANCH   3  12
BRANCH   5  16
ATOM     16  C   UNL     1       8.735  -1.626  22.631  0.00  0.00    +0.206 C 
BRANCH  16  17
ATOM     17  O   UNL     1       8.116  -2.125  23.814  0.00  0.00    -0.284 OA
BRANCH  17  18
ATOM     18  P   UNL     1       8.821  -3.610  24.355  0.00  0.00    +0.472 P 
ATOM     19  O   UNL     1       9.452  -4.938  24.839  0.00  0.00    -0.228 OA
BRANCH  18  20
ATOM     20  O   UNL     1       8.829  -3.006  25.875  0.00  0.00    -0.303 OA
ATOM     21  H   UNL     1       9.516  -2.307  25.851  0.00  0.00    +0.222 HD
ENDBRANCH  18  20
BRANCH  18  22
ATOM     22  O   UNL     1      10.245  -2.930  23.926  0.00  0.00    -0.303 OA
ATOM     23  H   UNL     1      10.235  -2.769  22.970  0.00  0.00    +0.222 HD
ENDBRANCH  18  22
ENDBRANCH  17  18
ENDBRANCH  16  17
ENDBRANCH   5  16
TORSDOF 10
ENDMDL
MODEL 2
REMARK VINA RESULT:      -5.1      1.575      2.226
REMARK  Name = 
REMARK  10 active torsions:
REMARK  status: ('A' for Active; 'I' for Inactive)
REMARK    1  A    between atoms: O_1  and  C_2
REMARK    2  A    between atoms: C_4  and  C_6
REMARK    3  A    between atoms: C_6  and  O_7
REMARK    4  A    between atoms: O_7  and  P_8
REMARK    5  A    between atoms: P_8  and  O_9
REMARK    6  A    between atoms: P_8  and  O_10
REMARK    7  A    between atoms: C_13  and  O_14
REMARK    8  A    between atoms: C_13  and  C_18
REMARK    9  A    between atoms: C_15  and  O_17
REMARK   10  A    between atoms: C_18  and  O_19
REMARK                            x       y       z     vdW  Elec       q    Type
REMARK                         _______ _______ _______ _____ _____    ______ ____
ROOT
ATOM      1  C   UNL     1       9.910  -0.961  22.218  0.00  0.00    +0.180 C 
ATOM      2  C   UNL     1       9.788   0.494  22.669  0.00  0.00    +0.216 C 
ATOM      3  C   UNL     1       8.446   0.540  23.412  0.00  0.00    +0.297 C 
ATOM      4  O   UNL     1       7.883  -0.767  23.431  0.00  0.00    -0.330 OA
ATOM      5  C   UNL     1       8.922  -1.711  23.103  0.00  0.00    +0.179 C 
ENDROOT
BRANCH   1   6
ATOM      6  O   UNL     1       9.507  -1.118  20.854  0.00  0.00    -0.386 OA
ATOM      7  H   UNL     1      10.164  -1.699  20.424  0.00  0.00    +0.210 HD
ENDBRANCH   1   6
BRANCH   2   8
ATOM      8  O   UNL     1       9.779   1.372  21.524  0.00  0.00    -0.383 OA
ATOM      9  H   UNL     1       9.604   2.275  21.859  0.00  0.00    +0.210 HD
ENDBRANCH   2   8
BRANCH   3  10
ATOM     10  O   UNL     1       7.509   1.409  22.769  0.00  0.00    -0.354 OA
ATOM     11  H   UNL     1       8.058   2.104  22.354  0.00  0.00    +0.213 HD
ENDBRANCH   3  10
BRANCH   3  12
ATOM     12  C   UNL     1       8.622   1.052  24.870  0.00  0.00    +0.368 C 
ATOM     13  O   UNL     1       7.714   1.371  25.622  0.00  0.00    -0.245 OA
BRANCH  12  14
ATOM     14  O   UNL     1       9.933   1.131  25.222  0.00  0.00    -0.477 OA
ATOM     15  H   UNL     1       9.976   1.532  26.124  0.00  0.00    +0.295 HD
ENDBRANCH  12  14
ENDBRANCH   3  12
BRANCH   5  16
ATOM     16  C   UNL     1       9.555  -2.234  24.386  0.00  0.00    +0.206 C 
BRANCH  16  17
ATOM     17  O   UNL     1       9.925  -3.596  24.185  0.00  0.00    -0.284 OA
BRANCH  17  18
ATOM     18  P   UNL     1       9.029  -4.682  25.191  0.00  0.00    +0.472 P 
ATOM     19  O   UNL     1       8.228  -5.654  26.090  0.00  0.00    -0.228 OA
BRANCH  18  20
ATOM     20  O   UNL     1      10.388  -5.576  25.368  0.00  0.00    -0.303 OA
ATOM     21  H   UNL     1      10.677  -5.755  24.448  0.00  0.00    +0.222 HD
ENDBRANCH  18  20
BRANCH  18  22
ATOM     22  O   UNL     1       8.577  -5.390  23.788  0.00  0.00    -0.303 OA
ATOM     23  H   UNL     1       8.310  -6.304  23.976  0.00  0.00    +0.222 HD
ENDBRANCH  18  22
ENDBRANCH  17  18
ENDBRANCH  16  17
ENDBRANCH   5  16
TORSDOF 10
ENDMDL
MODEL 3
REMARK VINA RESULT:      -5.1      4.809      7.069
REMARK  Name = 
REMARK  10 active torsions:
REMARK  status: ('A' for Active; 'I' for Inactive)
REMARK    1  A    between atoms: O_1  and  C_2
REMARK    2  A    between atoms: C_4  and  C_6
REMARK    3  A    between atoms: C_6  and  O_7
REMARK    4  A    between atoms: O_7  and  P_8
REMARK    5  A    between atoms: P_8  and  O_9
REMARK    6  A    between atoms: P_8  and  O_10
REMARK    7  A    between atoms: C_13  and  O_14
REMARK    8  A    between atoms: C_13  and  C_18
REMARK    9  A    between atoms: C_15  and  O_17
REMARK   10  A    between atoms: C_18  and  O_19
REMARK                            x       y       z     vdW  Elec       q    Type
REMARK                         _______ _______ _______ _____ _____    ______ ____
ROOT
ATOM      1  C   UNL     1       6.579  -3.500  23.168  0.00  0.00    +0.180 C 
ATOM      2  C   UNL     1       5.436  -4.035  22.306  0.00  0.00    +0.216 C 
ATOM      3  C   UNL     1       5.470  -5.550  22.545  0.00  0.00    +0.297 C 
ATOM      4  O   UNL     1       6.494  -5.847  23.488  0.00  0.00    -0.330 OA
ATOM      5  C   UNL     1       6.857  -4.623  24.159  0.00  0.00    +0.179 C 
ENDROOT
BRANCH   1   6
ATOM      6  O   UNL     1       7.759  -3.280  22.388  0.00  0.00    -0.386 OA
ATOM      7  H   UNL     1       7.773  -2.333  22.147  0.00  0.00    +0.210 HD
ENDBRANCH   1   6
BRANCH   2   8
ATOM      8  O   UNL     1       5.671  -3.721  20.917  0.00  0.00    -0.383 OA
ATOM      9  H   UNL     1       5.075  -2.978  20.689  0.00  0.00    +0.210 HD
ENDBRANCH   2   8
BRANCH   3  10
ATOM     10  O   UNL     1       5.761  -6.274  21.345  0.00  0.00    -0.354 OA
ATOM     11  H   UNL     1       6.079  -7.146  21.653  0.00  0.00    +0.213 HD
ENDBRANCH   3  10
BRANCH   3  12
ATOM     12  C   UNL     1       4.105  -6.071  23.076  0.00  0.00    +0.368 C 
ATOM     13  O   UNL     1       3.021  -5.543  22.879  0.00  0.00    -0.245 OA
BRANCH  12  14
ATOM     14  O   UNL     1       4.251  -7.197  23.824  0.00  0.00    -0.477 OA
ATOM     15  H   UNL     1       4.610  -7.903  23.235  0.00  0.00    +0.295 HD
ENDBRANCH  12  14
ENDBRANCH   3  12
BRANCH   5  16
ATOM     16  C   UNL     1       6.053  -4.492  25.445  0.00  0.00    +0.206 C 
BRANCH  16  17
ATOM     17  O   UNL     1       5.990  -5.770  26.072  0.00  0.00    -0.284 OA
BRANCH  17  18
ATOM     18  P   UNL     1       6.098  -5.669  27.796  0.00  0.00    +0.472 P 
ATOM     19  O   UNL     1       6.195  -5.580  29.339  0.00  0.00    -0.228 OA
BRANCH  18  20
ATOM     20  O   UNL     1       7.675  -6.089  27.683  0.00  0.00    -0.303 OA
ATOM     21  H   UNL     1       7.821  -6.678  28.453  0.00  0.00    +0.222 HD
ENDBRANCH  18  20
BRANCH  18  22
ATOM     22  O   UNL     1       5.542  -7.207  27.784  0.00  0.00    -0.303 OA
ATOM     23  H   UNL     1       5.829  -7.632  26.960  0.00  0.00    +0.222 HD
ENDBRANCH  18  22
ENDBRANCH  17  18
ENDBRANCH  16  17
ENDBRANCH   5  16
TORSDOF 10
ENDMDL
MODEL 4
REMARK VINA RESULT:      -5.1      4.019      5.890
REMARK  Name = 
REMARK  10 active torsions:
REMARK  status: ('A' for Active; 'I' for Inactive)
REMARK    1  A    between atoms: O_1  and  C_2
REMARK    2  A    between atoms: C_4  and  C_6
REMARK    3  A    between atoms: C_6  and  O_7
REMARK    4  A    between atoms: O_7  and  P_8
REMARK    5  A    between atoms: P_8  and  O_9
REMARK    6  A    between atoms: P_8  and  O_10
REMARK    7  A    between atoms: C_13  and  O_14
REMARK    8  A    between atoms: C_13  and  C_18
REMARK    9  A    between atoms: C_15  and  O_17
REMARK   10  A    between atoms: C_18  and  O_19
REMARK                            x       y       z     vdW  Elec       q    Type
REMARK                         _______ _______ _______ _____ _____    ______ ____
ROOT
ATOM      1  C   UNL     1       8.826  -3.641  24.106  0.00  0.00    +0.180 C 
ATOM      2  C   UNL     1       8.868  -4.950  24.895  0.00  0.00    +0.216 C 
ATOM      3  C   UNL     1       8.553  -4.524  26.334  0.00  0.00    +0.297 C 
ATOM      4  O   UNL     1       8.302  -3.123  26.359  0.00  0.00    -0.330 OA
ATOM      5  C   UNL     1       8.053  -2.686  25.007  0.00  0.00    +0.179 C 
ENDROOT
BRANCH   1   6
ATOM      6  O   UNL     1      10.141  -3.113  23.905  0.00  0.00    -0.386 OA
ATOM      7  H   UNL     1      10.219  -2.887  22.957  0.00  0.00    +0.210 HD
ENDBRANCH   1   6
BRANCH   2   8
ATOM      8  O   UNL     1      10.180  -5.544  24.803  0.00  0.00    -0.383 OA
ATOM      9  H   UNL     1      10.088  -6.353  24.259  0.00  0.00    +0.210 HD
ENDBRANCH   2   8
BRANCH   3  10
ATOM     10  O   UNL     1       9.645  -4.786  27.221  0.00  0.00    -0.354 OA
ATOM     11  H   UNL     1      10.208  -5.424  26.739  0.00  0.00    +0.213 HD
ENDBRANCH   3  10
BRANCH   3  12
ATOM     12  C   UNL     1       7.315  -5.284  26.892  0.00  0.00    +0.368 C 
ATOM     13  O   UNL     1       6.957  -5.291  28.060  0.00  0.00    -0.245 OA
BRANCH  12  14
ATOM     14  O   UNL     1       6.669  -5.978  25.919  0.00  0.00    -0.477 OA
ATOM     15  H   UNL     1       6.318  -5.324  25.268  0.00  0.00    +0.295 HD
ENDBRANCH  12  14
ENDBRANCH   3  12
BRANCH   5  16
ATOM     16  C   UNL     1       6.555  -2.698  24.738  0.00  0.00    +0.206 C 
BRANCH  16  17
ATOM     17  O   UNL     1       6.342  -3.089  23.384  0.00  0.00    -0.284 OA
BRANCH  17  18
ATOM     18  P   UNL     1       4.895  -4.014  23.180  0.00  0.00    +0.472 P 
ATOM     19  O   UNL     1       3.600  -4.843  22.998  0.00  0.00    -0.228 OA
BRANCH  18  20
ATOM     20  O   UNL     1       4.740  -4.058  24.809  0.00  0.00    -0.303 OA
ATOM     21  H   UNL     1       5.267  -3.291  25.119  0.00  0.00    +0.222 HD
ENDBRANCH  18  20
BRANCH  18  22
ATOM     22  O   UNL     1       5.895  -5.306  23.099  0.00  0.00    -0.303 OA
ATOM     23  H   UNL     1       5.867  -5.662  22.197  0.00  0.00    +0.222 HD
ENDBRANCH  18  22
ENDBRANCH  17  18
ENDBRANCH  16  17
ENDBRANCH   5  16
TORSDOF 10
ENDMDL
MODEL 5
REMARK VINA RESULT:      -5.0      1.437      3.121
REMARK  Name = 
REMARK  10 active torsions:
REMARK  status: ('A' for Active; 'I' for Inactive)
REMARK    1  A    between atoms: O_1  and  C_2
REMARK    2  A    between atoms: C_4  and  C_6
REMARK    3  A    between atoms: C_6  and  O_7
REMARK    4  A    between atoms: O_7  and  P_8
REMARK    5  A    between atoms: P_8  and  O_9
REMARK    6  A    between atoms: P_8  and  O_10
REMARK    7  A    between atoms: C_13  and  O_14
REMARK    8  A    between atoms: C_13  and  C_18
REMARK    9  A    between atoms: C_15  and  O_17
REMARK   10  A    between atoms: C_18  and  O_19
REMARK                            x       y       z     vdW  Elec       q    Type
REMARK                         _______ _______ _______ _____ _____    ______ ____
ROOT
ATOM      1  C   UNL     1       8.793  -0.307  25.272  0.00  0.00    +0.180 C 
ATOM      2  C   UNL     1       8.743   0.943  24.393  0.00  0.00    +0.216 C 
ATOM      3  C   UNL     1      10.068   0.905  23.622  0.00  0.00    +0.297 C 
ATOM      4  O   UNL     1      10.780  -0.273  23.982  0.00  0.00    -0.330 OA
ATOM      5  C   UNL     1       9.859  -1.179  24.622  0.00  0.00    +0.179 C 
ENDROOT
BRANCH   1   6
ATOM      6  O   UNL     1       9.214   0.011  26.603  0.00  0.00    -0.386 OA
ATOM      7  H   UNL     1       9.152  -0.810  27.129  0.00  0.00    +0.210 HD
ENDBRANCH   1   6
BRANCH   2   8
ATOM      8  O   UNL     1       8.651   2.126  25.214  0.00  0.00    -0.383 OA
ATOM      9  H   UNL     1       9.321   2.034  25.922  0.00  0.00    +0.210 HD
ENDBRANCH   2   8
BRANCH   3  10
ATOM     10  O   UNL     1      10.899   2.029  23.932  0.00  0.00    -0.354 OA
ATOM     11  H   UNL     1      10.503   2.774  23.438  0.00  0.00    +0.213 HD
ENDBRANCH   3  10
BRANCH   3  12
ATOM     12  C   UNL     1       9.829   0.920  22.085  0.00  0.00    +0.368 C 
ATOM     13  O   UNL     1       9.571  -0.057  21.400  0.00  0.00    -0.245 OA
BRANCH  12  14
ATOM     14  O   UNL     1       9.965   2.169  21.565  0.00  0.00    -0.477 OA
ATOM     15  H   UNL     1      10.931   2.367  21.511  0.00  0.00    +0.295 HD
ENDBRANCH  12  14
ENDBRANCH   3  12
BRANCH   5  16
ATOM     16  C   UNL     1       9.289  -2.138  23.586  0.00  0.00    +0.206 C 
BRANCH  16  17
ATOM     17  O   UNL     1       9.887  -3.418  23.778  0.00  0.00    -0.284 OA
BRANCH  17  18
ATOM     18  P   UNL     1       9.100  -4.339  25.013  0.00  0.00    +0.472 P 
ATOM     19  O   UNL     1       8.396  -5.164  26.117  0.00  0.00    -0.228 OA
BRANCH  18  20
ATOM     20  O   UNL     1      10.441  -5.272  25.117  0.00  0.00    -0.303 OA
ATOM     21  H   UNL     1      11.177  -4.626  25.172  0.00  0.00    +0.222 HD
ENDBRANCH  18  20
BRANCH  18  22
ATOM     22  O   UNL     1       8.441  -5.179  23.774  0.00  0.00    -0.303 OA
ATOM     23  H   UNL     1       8.304  -4.573  23.029  0.00  0.00    +0.222 HD
ENDBRANCH  18  22
ENDBRANCH  17  18
ENDBRANCH  16  17
ENDBRANCH   5  16
TORSDOF 10
ENDMDL
MODEL 6
REMARK VINA RESULT:      -5.0      3.366      6.033
REMARK  Name = 
REMARK  10 active torsions:
REMARK  status: ('A' for Active; 'I' for Inactive)
REMARK    1  A    between atoms: O_1  and  C_2
REMARK    2  A    between atoms: C_4  and  C_6
REMARK    3  A    between atoms: C_6  and  O_7
REMARK    4  A    between atoms: O_7  and  P_8
REMARK    5  A    between atoms: P_8  and  O_9
REMARK    6  A    between atoms: P_8  and  O_10
REMARK    7  A    between atoms: C_13  and  O_14
REMARK    8  A    between atoms: C_13  and  C_18
REMARK    9  A    between atoms: C_15  and  O_17
REMARK   10  A    between atoms: C_18  and  O_19
REMARK                            x       y       z     vdW  Elec       q    Type
REMARK                         _______ _______ _______ _____ _____    ______ ____
ROOT
ATOM      1  C   UNL     1       8.503  -4.602  26.650  0.00  0.00    +0.180 C 
ATOM      2  C   UNL     1       9.369  -4.665  25.392  0.00  0.00    +0.216 C 
ATOM      3  C   UNL     1       8.388  -4.364  24.252  0.00  0.00    +0.297 C 
ATOM      4  O   UNL     1       7.102  -4.103  24.804  0.00  0.00    -0.330 OA
ATOM      5  C   UNL     1       7.262  -3.834  26.212  0.00  0.00    +0.179 C 
ENDROOT
BRANCH   1   6
ATOM      6  O   UNL     1       8.103  -5.910  27.071  0.00  0.00    -0.386 OA
ATOM      7  H   UNL     1       8.340  -5.995  28.015  0.00  0.00    +0.210 HD
ENDBRANCH   1   6
BRANCH   2   8
ATOM      8  O   UNL     1       9.946  -5.979  25.250  0.00  0.00    -0.383 OA
ATOM      9  H   UNL     1       9.730  -6.288  24.346  0.00  0.00    +0.210 HD
ENDBRANCH   2   8
BRANCH   3  10
ATOM     10  O   UNL     1       8.259  -5.469  23.352  0.00  0.00    -0.354 OA
ATOM     11  H   UNL     1       7.984  -6.219  23.918  0.00  0.00    +0.213 HD
ENDBRANCH   3  10
BRANCH   3  12
ATOM     12  C   UNL     1       8.852  -3.139  23.412  0.00  0.00    +0.368 C 
ATOM     13  O   UNL     1       8.177  -2.560  22.576  0.00  0.00    -0.245 OA
BRANCH  12  14
ATOM     14  O   UNL     1      10.132  -2.787  23.700  0.00  0.00    -0.477 OA
ATOM     15  H   UNL     1      10.218  -2.747  24.683  0.00  0.00    +0.295 HD
ENDBRANCH  12  14
ENDBRANCH   3  12
BRANCH   5  16
ATOM     16  C   UNL     1       7.387  -2.332  26.430  0.00  0.00    +0.206 C 
BRANCH  16  17
ATOM     17  O   UNL     1       6.139  -1.723  26.108  0.00  0.00    -0.284 OA
BRANCH  17  18
ATOM     18  P   UNL     1       6.301  -0.458  24.939  0.00  0.00    +0.472 P 
ATOM     19  O   UNL     1       6.445   0.674  23.893  0.00  0.00    -0.228 OA
BRANCH  18  20
ATOM     20  O   UNL     1       4.828   0.094  25.390  0.00  0.00    -0.303 OA
ATOM     21  H   UNL     1       4.264  -0.709  25.395  0.00  0.00    +0.222 HD
ENDBRANCH  18  20
BRANCH  18  22
ATOM     22  O   UNL     1       5.720  -1.555  23.874  0.00  0.00    -0.303 OA
ATOM     23  H   UNL     1       4.763  -1.639  24.009  0.00  0.00    +0.222 HD
ENDBRANCH  18  22
ENDBRANCH  17  18
ENDBRANCH  16  17
ENDBRANCH   5  16
TORSDOF 10
ENDMDL
MODEL 7
REMARK VINA RESULT:      -4.9      1.445      3.001
REMARK  Name = 
REMARK  10 active torsions:
REMARK  status: ('A' for Active; 'I' for Inactive)
REMARK    1  A    between atoms: O_1  and  C_2
REMARK    2  A    between atoms: C_4  and  C_6
REMARK    3  A    between atoms: C_6  and  O_7
REMARK    4  A    between atoms: O_7  and  P_8
REMARK    5  A    between atoms: P_8  and  O_9
REMARK    6  A    between atoms: P_8  and  O_10
REMARK    7  A    between atoms: C_13  and  O_14
REMARK    8  A    between atoms: C_13  and  C_18
REMARK    9  A    between atoms: C_15  and  O_17
REMARK   10  A    between atoms: C_18  and  O_19
REMARK                            x       y       z     vdW  Elec       q    Type
REMARK                         _______ _______ _______ _____ _____    ______ ____
ROOT
ATOM      1  C   UNL     1       8.294   2.346  24.384  0.00  0.00    +0.180 C 
ATOM      2  C   UNL     1       8.353   2.474  22.862  0.00  0.00    +0.216 C 
ATOM      3  C   UNL     1       9.650   1.751  22.480  0.00  0.00    +0.297 C 
ATOM      4  O   UNL     1      10.247   1.217  23.656  0.00  0.00    -0.330 OA
ATOM      5  C   UNL     1       9.252   1.204  24.700  0.00  0.00    +0.179 C 
ENDROOT
BRANCH   1   6
ATOM      6  O   UNL     1       8.774   3.532  25.024  0.00  0.00    -0.386 OA
ATOM      7  H   UNL     1       8.111   3.787  25.696  0.00  0.00    +0.210 HD
ENDBRANCH   1   6
BRANCH   2   8
ATOM      8  O   UNL     1       8.400   3.865  22.481  0.00  0.00    -0.383 OA
ATOM      9  H   UNL     1       9.339   4.138  22.515  0.00  0.00    +0.210 HD
ENDBRANCH   2   8
BRANCH   3  10
ATOM     10  O   UNL     1      10.598   2.637  21.875  0.00  0.00    -0.354 OA
ATOM     11  H   UNL     1      10.090   3.450  21.683  0.00  0.00    +0.213 HD
ENDBRANCH   3  10
BRANCH   3  12
ATOM     12  C   UNL     1       9.381   0.603  21.464  0.00  0.00    +0.368 C 
ATOM     13  O   UNL     1       9.875  -0.513  21.512  0.00  0.00    -0.245 OA
BRANCH  12  14
ATOM     14  O   UNL     1       8.533   0.992  20.477  0.00  0.00    -0.477 OA
ATOM     15  H   UNL     1       7.774   1.460  20.902  0.00  0.00    +0.295 HD
ENDBRANCH  12  14
ENDBRANCH   3  12
BRANCH   5  16
ATOM     16  C   UNL     1       8.565  -0.155  24.730  0.00  0.00    +0.206 C 
BRANCH  16  17
ATOM     17  O   UNL     1       9.542  -1.149  25.027  0.00  0.00    -0.284 OA
BRANCH  17  18
ATOM     18  P   UNL     1       9.112  -2.707  24.410  0.00  0.00    +0.472 P 
ATOM     19  O   UNL     1       8.726  -4.100  23.856  0.00  0.00    -0.228 OA
BRANCH  18  20
ATOM     20  O   UNL     1      10.386  -2.610  23.388  0.00  0.00    -0.303 OA
ATOM     21  H   UNL     1      10.931  -3.394  23.612  0.00  0.00    +0.222 HD
ENDBRANCH  18  20
BRANCH  18  22
ATOM     22  O   UNL     1       8.087  -1.886  23.435  0.00  0.00    -0.303 OA
ATOM     23  H   UNL     1       7.911  -2.425  22.648  0.00  0.00    +0.222 HD
ENDBRANCH  18  22
ENDBRANCH  17  18
ENDBRANCH  16  17
ENDBRANCH   5  16
TORSDOF 10
ENDMDL
MODEL 8
REMARK VINA RESULT:      -4.9      2.317      5.079
REMARK  Name = 
REMARK  10 active torsions:
REMARK  status: ('A' for Active; 'I' for Inactive)
REMARK    1  A    between atoms: O_1  and  C_2
REMARK    2  A    between atoms: C_4  and  C_6
REMARK    3  A    between atoms: C_6  and  O_7
REMARK    4  A    between atoms: O_7  and  P_8
REMARK    5  A    between atoms: P_8  and  O_9
REMARK    6  A    between atoms: P_8  and  O_10
REMARK    7  A    between atoms: C_13  and  O_14
REMARK    8  A    between atoms: C_13  and  C_18
REMARK    9  A    between atoms: C_15  and  O_17
REMARK   10  A    between atoms: C_18  and  O_19
REMARK                            x       y       z     vdW  Elec       q    Type
REMARK                         _______ _______ _______ _____ _____    ______ ____
ROOT
ATOM      1  C   UNL     1       8.048  -1.662  25.236  0.00  0.00    +0.180 C 
ATOM      2  C   UNL     1       8.826  -2.514  24.233  0.00  0.00    +0.216 C 
ATOM      3  C   UNL     1       8.460  -1.908  22.872  0.00  0.00    +0.297 C 
ATOM      4  O   UNL     1       7.603  -0.791  23.077  0.00  0.00    -0.330 OA
ATOM      5  C   UNL     1       7.699  -0.397  24.461  0.00  0.00    +0.179 C 
ENDROOT
BRANCH   1   6
ATOM      6  O   UNL     1       6.832  -2.304  25.630  0.00  0.00    -0.386 OA
ATOM      7  H   UNL     1       6.655  -3.012  24.980  0.00  0.00    +0.210 HD
ENDBRANCH   1   6
BRANCH   2   8
ATOM      8  O   UNL     1       8.407  -3.892  24.320  0.00  0.00    -0.383 OA
ATOM      9  H   UNL     1       9.117  -4.431  23.915  0.00  0.00    +0.210 HD
ENDBRANCH   2   8
BRANCH   3  10
ATOM     10  O   UNL     1       7.764  -2.843  22.041  0.00  0.00    -0.354 OA
ATOM     11  H   UNL     1       8.318  -2.923  21.239  0.00  0.00    +0.213 HD
ENDBRANCH   3  10
BRANCH   3  12
ATOM     12  C   UNL     1       9.728  -1.456  22.093  0.00  0.00    +0.368 C 
ATOM     13  O   UNL     1      10.867  -1.836  22.315  0.00  0.00    -0.245 OA
BRANCH  12  14
ATOM     14  O   UNL     1       9.429  -0.549  21.125  0.00  0.00    -0.477 OA
ATOM     15  H   UNL     1       9.298  -1.045  20.281  0.00  0.00    +0.295 HD
ENDBRANCH  12  14
ENDBRANCH   3  12
BRANCH   5  16
ATOM     16  C   UNL     1       8.749   0.696  24.606  0.00  0.00    +0.206 C 
BRANCH  16  17
ATOM     17  O   UNL     1       8.720   1.509  23.435  0.00  0.00    -0.284 OA
BRANCH  17  18
ATOM     18  P   UNL     1      10.066   2.591  23.346  0.00  0.00    +0.472 P 
ATOM     19  O   UNL     1      11.272   3.559  23.266  0.00  0.00    -0.228 OA
BRANCH  18  20
ATOM     20  O   UNL     1      10.246   2.175  21.774  0.00  0.00    -0.303 OA
ATOM     21  H   UNL     1       9.946   2.969  21.282  0.00  0.00    +0.222 HD
ENDBRANCH  18  20
BRANCH  18  22
ATOM     22  O   UNL     1      10.939   1.334  23.925  0.00  0.00    -0.303 OA
ATOM     23  H   UNL     1      10.327   0.627  24.184  0.00  0.00    +0.222 HD
ENDBRANCH  18  22
ENDBRANCH  17  18
ENDBRANCH  16  17
ENDBRANCH   5  16
TORSDOF 10
ENDMDL
MODEL 9
REMARK VINA RESULT:      -4.9      2.903      5.830
REMARK  Name = 
REMARK  10 active torsions:
REMARK  status: ('A' for Active; 'I' for Inactive)
REMARK    1  A    between atoms: O_1  and  C_2
REMARK    2  A    between atoms: C_4  and  C_6
REMARK    3  A    between atoms: C_6  and  O_7
REMARK    4  A    between atoms: O_7  and  P_8
REMARK    5  A    between atoms: P_8  and  O_9
REMARK    6  A    between atoms: P_8  and  O_10
REMARK    7  A    between atoms: C_13  and  O_14
REMARK    8  A    between atoms: C_13  and  C_18
REMARK    9  A    between atoms: C_15  and  O_17
REMARK   10  A    between atoms: C_18  and  O_19
REMARK                            x       y       z     vdW  Elec       q    Type
REMARK                         _______ _______ _______ _____ _____    ______ ____
ROOT
ATOM      1  C   UNL     1       8.867  -4.447  26.649  0.00  0.00    +0.180 C 
ATOM      2  C   UNL     1       9.488  -4.670  25.270  0.00  0.00    +0.216 C 
ATOM      3  C   UNL     1       8.410  -4.180  24.295  0.00  0.00    +0.297 C 
ATOM      4  O   UNL     1       7.305  -3.679  25.040  0.00  0.00    -0.330 OA
ATOM      5  C   UNL     1       7.741  -3.452  26.395  0.00  0.00    +0.179 C 
ENDROOT
BRANCH   1   6
ATOM      6  O   UNL     1       8.298  -5.655  27.164  0.00  0.00    -0.386 OA
ATOM      7  H   UNL     1       7.328  -5.532  27.184  0.00  0.00    +0.210 HD
ENDBRANCH   1   6
BRANCH   2   8
ATOM      8  O   UNL     1       9.772  -6.071  25.073  0.00  0.00    -0.383 OA
ATOM      9  H   UNL     1       8.919  -6.546  25.137  0.00  0.00    +0.210 HD
ENDBRANCH   2   8
BRANCH   3  10
ATOM     10  O   UNL     1       7.927  -5.236  23.458  0.00  0.00    -0.354 OA
ATOM     11  H   UNL     1       8.197  -6.058  23.915  0.00  0.00    +0.213 HD
ENDBRANCH   3  10
BRANCH   3  12
ATOM     12  C   UNL     1       8.956  -3.065  23.359  0.00  0.00    +0.368 C 
ATOM     13  O   UNL     1       8.333  -2.535  22.452  0.00  0.00    -0.245 OA
BRANCH  12  14
ATOM     14  O   UNL     1      10.246  -2.749  23.650  0.00  0.00    -0.477 OA
ATOM     15  H   UNL     1      10.824  -3.245  23.022  0.00  0.00    +0.295 HD
ENDBRANCH  12  14
ENDBRANCH   3  12
BRANCH   5  16
ATOM     16  C   UNL     1       8.185  -2.003  26.549  0.00  0.00    +0.206 C 
BRANCH  16  17
ATOM     17  O   UNL     1       7.316  -1.179  25.777  0.00  0.00    -0.284 OA
BRANCH  17  18
ATOM     18  P   UNL     1       8.012   0.362  25.414  0.00  0.00    +0.472 P 
ATOM     19  O   UNL     1       8.636   1.741  25.089  0.00  0.00    -0.228 OA
BRANCH  18  20
ATOM     20  O   UNL     1       7.740   0.069  23.828  0.00  0.00    -0.303 OA
ATOM     21  H   UNL     1       8.155   0.830  23.369  0.00  0.00    +0.222 HD
ENDBRANCH  18  20
BRANCH  18  22
ATOM     22  O   UNL     1       9.444  -0.427  25.459  0.00  0.00    -0.303 OA
ATOM     23  H   UNL     1       9.790  -0.490  24.554  0.00  0.00    +0.222 HD
ENDBRANCH  18  22
ENDBRANCH  17  18
ENDBRANCH  16  17
ENDBRANCH   5  16
TORSDOF 10
ENDMDL
