MODEL 1
REMARK VINA RESULT:      -6.7      0.000      0.000
REMARK  Name = 
REMARK  10 active torsions:
REMARK  status: ('A' for Active; 'I' for Inactive)
REMARK    1  A    between atoms: C_1  and  C_2
REMARK    2  A    between atoms: C_4  and  C_9
REMARK    3  A    between atoms: C_6  and  C_7
REMARK    4  A    between atoms: N_11  and  N_12
REMARK    5  A    between atoms: N_11  and  C_26
REMARK    6  A    between atoms: C_13  and  C_15
REMARK    7  A    between atoms: C_16  and  C_17
REMARK    8  A    between atoms: C_26  and  C_27
REMARK    9  A    between atoms: C_26  and  C_28
REMARK   10  A    between atoms: C_26  and  C_29
REMARK                            x       y       z     vdW  Elec       q    Type
REMARK                         _______ _______ _______ _____ _____    ______ ____
ROOT
ATOM      1  C   UNL     1       9.374  -1.197  23.036  0.00  0.00    +0.263 C 
ATOM      2  N   UNL     1       8.982  -0.037  23.748  0.00  0.00    -0.211 N 
ATOM      3  O   UNL     1      10.311  -1.170  22.230  0.00  0.00    -0.268 OA
ENDROOT
BRANCH   1  10
ATOM      4  C   UNL     1       9.251  -5.497  25.550  0.00  0.00    +0.044 C 
ATOM      5  C   UNL     1       8.714  -4.634  24.448  0.00  0.00    -0.049 A 
ATOM      6  C   UNL     1       7.714  -5.111  23.599  0.00  0.00    +0.006 A 
ATOM      7  C   UNL     1       7.213  -4.319  22.557  0.00  0.00    -0.049 A 
ATOM      8  C   UNL     1       6.143  -4.866  21.659  0.00  0.00    +0.044 C 
ATOM      9  C   UNL     1       7.749  -3.038  22.337  0.00  0.00    +0.016 A 
ATOM     10  C   UNL     1       8.725  -2.526  23.197  0.00  0.00    +0.039 A 
ATOM     11  C   UNL     1       9.212  -3.342  24.237  0.00  0.00    +0.016 A 
ENDBRANCH   1  10
BRANCH   2  12
ATOM     12  C   UNL     1       9.768   1.237  23.626  0.00  0.00    +0.048 C 
ATOM     13  C   UNL     1      11.163   1.084  24.270  0.00  0.00    +0.033 C 
ATOM     14  C   UNL     1       9.110   2.450  24.316  0.00  0.00    +0.033 C 
ATOM     15  C   UNL     1       9.937   1.641  22.140  0.00  0.00    +0.033 C 
ENDBRANCH   2  12
BRANCH   2  16
ATOM     16  N   UNL     1       7.890  -0.015  24.675  0.00  0.00    -0.227 N 
ATOM     17  H   UNL     1       6.988   0.218  24.282  0.00  0.00    +0.173 HD
ATOM     18  C   UNL     1       8.072  -0.314  26.020  0.00  0.00    +0.261 C 
ATOM     19  O   UNL     1       9.145  -0.706  26.473  0.00  0.00    -0.269 OA
BRANCH  18  20
ATOM     20  C   UNL     1       6.887  -0.209  26.961  0.00  0.00    +0.045 A 
ATOM     21  C   UNL     1       6.770   1.027  27.635  0.00  0.00    +0.017 A 
ATOM     22  C   UNL     1       5.658   1.334  28.430  0.00  0.00    +0.050 A 
ATOM     23  C   UNL     1       4.656   0.393  28.606  0.00  0.00    +0.162 A 
ATOM     24  O   UNL     1       3.579   0.772  29.368  0.00  0.00    -0.485 OA
ATOM     25  C   UNL     1       2.523  -0.198  29.349  0.00  0.00    +0.270 C 
ATOM     26  C   UNL     1       3.104  -1.595  29.444  0.00  0.00    +0.270 C 
ATOM     27  O   UNL     1       3.871  -1.871  28.266  0.00  0.00    -0.485 OA
ATOM     28  C   UNL     1       4.790  -0.873  28.022  0.00  0.00    +0.166 A 
ATOM     29  C   UNL     1       5.865  -1.172  27.147  0.00  0.00    +0.007 A 
ATOM     30  C   UNL     1       5.841  -2.500  26.448  0.00  0.00    +0.048 C 
ENDBRANCH  18  20
ENDBRANCH   2  16
TORSDOF 4
ENDMDL
MODEL 2
REMARK VINA RESULT:      -6.7      0.163      1.799
REMARK  Name = 
REMARK  10 active torsions:
REMARK  status: ('A' for Active; 'I' for Inactive)
REMARK    1  A    between atoms: C_1  and  C_2
REMARK    2  A    between atoms: C_4  and  C_9
REMARK    3  A    between atoms: C_6  and  C_7
REMARK    4  A    between atoms: N_11  and  N_12
REMARK    5  A    between atoms: N_11  and  C_26
REMARK    6  A    between atoms: C_13  and  C_15
REMARK    7  A    between atoms: C_16  and  C_17
REMARK    8  A    between atoms: C_26  and  C_27
REMARK    9  A    between atoms: C_26  and  C_28
REMARK   10  A    between atoms: C_26  and  C_29
REMARK                            x       y       z     vdW  Elec       q    Type
REMARK                         _______ _______ _______ _____ _____    ______ ____
ROOT
ATOM      1  C   UNL     1       9.422  -1.170  23.028  0.00  0.00    +0.263 C 
ATOM      2  N   UNL     1       8.938  -0.015  23.689  0.00  0.00    -0.211 N 
ATOM      3  O   UNL     1      10.345  -1.104  22.210  0.00  0.00    -0.268 OA
ENDROOT
BRANCH   1  10
ATOM      4  C   UNL     1       6.134  -4.654  21.655  0.00  0.00    +0.044 C 
ATOM      5  C   UNL     1       7.242  -4.217  22.565  0.00  0.00    -0.049 A 
ATOM      6  C   UNL     1       7.674  -5.044  23.603  0.00  0.00    +0.006 A 
ATOM      7  C   UNL     1       8.700  -4.642  24.469  0.00  0.00    -0.049 A 
ATOM      8  C   UNL     1       9.133  -5.553  25.579  0.00  0.00    +0.044 C 
ATOM      9  C   UNL     1       9.280  -3.371  24.316  0.00  0.00    +0.016 A 
ATOM     10  C   UNL     1       8.890  -2.541  23.261  0.00  0.00    +0.039 A 
ATOM     11  C   UNL     1       7.856  -2.968  22.405  0.00  0.00    +0.016 A 
ENDBRANCH   1  10
BRANCH   2  12
ATOM     12  C   UNL     1       9.611   1.314  23.496  0.00  0.00    +0.048 C 
ATOM     13  C   UNL     1       8.751   2.454  24.084  0.00  0.00    +0.033 C 
ATOM     14  C   UNL     1       9.860   1.684  22.019  0.00  0.00    +0.033 C 
ATOM     15  C   UNL     1      11.005   1.331  24.173  0.00  0.00    +0.033 C 
ENDBRANCH   2  12
BRANCH   2  16
ATOM     16  N   UNL     1       7.856  -0.040  24.627  0.00  0.00    -0.227 N 
ATOM     17  H   UNL     1       6.939   0.138  24.241  0.00  0.00    +0.173 HD
ATOM     18  C   UNL     1       8.069  -0.310  25.974  0.00  0.00    +0.261 C 
ATOM     19  O   UNL     1       9.167  -0.637  26.420  0.00  0.00    -0.269 OA
BRANCH  18  20
ATOM     20  C   UNL     1       6.890  -0.258  26.926  0.00  0.00    +0.045 A 
ATOM     21  C   UNL     1       6.747   0.959  27.630  0.00  0.00    +0.017 A 
ATOM     22  C   UNL     1       5.634   1.219  28.441  0.00  0.00    +0.050 A 
ATOM     23  C   UNL     1       4.659   0.248  28.603  0.00  0.00    +0.162 A 
ATOM     24  O   UNL     1       3.579   0.582  29.383  0.00  0.00    -0.485 OA
ATOM     25  C   UNL     1       2.549  -0.416  29.350  0.00  0.00    +0.270 C 
ATOM     26  C   UNL     1       3.166  -1.798  29.408  0.00  0.00    +0.270 C 
ATOM     27  O   UNL     1       3.930  -2.027  28.217  0.00  0.00    -0.485 OA
ATOM     28  C   UNL     1       4.820  -1.000  27.989  0.00  0.00    +0.166 A 
ATOM     29  C   UNL     1       5.895  -1.252  27.099  0.00  0.00    +0.007 A 
ATOM     30  C   UNL     1       5.899  -2.563  26.370  0.00  0.00    +0.048 C 
ENDBRANCH  18  20
ENDBRANCH   2  16
TORSDOF 4
ENDMDL
MODEL 3
REMARK VINA RESULT:      -6.6      2.159      5.915
REMARK  Name = 
REMARK  10 active torsions:
REMARK  status: ('A' for Active; 'I' for Inactive)
REMARK    1  A    between atoms: C_1  and  C_2
REMARK    2  A    between atoms: C_4  and  C_9
REMARK    3  A    between atoms: C_6  and  C_7
REMARK    4  A    between atoms: N_11  and  N_12
REMARK    5  A    between atoms: N_11  and  C_26
REMARK    6  A    between atoms: C_13  and  C_15
REMARK    7  A    between atoms: C_16  and  C_17
REMARK    8  A    between atoms: C_26  and  C_27
REMARK    9  A    between atoms: C_26  and  C_28
REMARK   10  A    between atoms: C_26  and  C_29
REMARK                            x       y       z     vdW  Elec       q    Type
REMARK                         _______ _______ _______ _____ _____    ______ ____
ROOT
ATOM      1  C   UNL     1       4.752  -4.110  25.860  0.00  0.00    +0.263 C 
ATOM      2  N   UNL     1       4.507  -2.736  26.107  0.00  0.00    -0.211 N 
ATOM      3  O   UNL     1       4.082  -4.991  26.408  0.00  0.00    -0.268 OA
ENDROOT
BRANCH   1  10
ATOM      4  C   UNL     1       9.557  -5.269  25.235  0.00  0.00    +0.044 C 
ATOM      5  C   UNL     1       8.178  -5.148  24.662  0.00  0.00    -0.049 A 
ATOM      6  C   UNL     1       7.943  -5.426  23.315  0.00  0.00    +0.006 A 
ATOM      7  C   UNL     1       6.660  -5.303  22.764  0.00  0.00    -0.049 A 
ATOM      8  C   UNL     1       6.446  -5.602  21.310  0.00  0.00    +0.044 C 
ATOM      9  C   UNL     1       5.598  -4.857  23.569  0.00  0.00    +0.016 A 
ATOM     10  C   UNL     1       5.802  -4.609  24.930  0.00  0.00    +0.039 A 
ATOM     11  C   UNL     1       7.100  -4.739  25.459  0.00  0.00    +0.016 A 
ENDBRANCH   1  10
BRANCH   2  12
ATOM     12  C   UNL     1       3.347  -2.308  26.960  0.00  0.00    +0.048 C 
ATOM     13  C   UNL     1       2.013  -2.801  26.358  0.00  0.00    +0.033 C 
ATOM     14  C   UNL     1       3.210  -0.780  27.112  0.00  0.00    +0.033 C 
ATOM     15  C   UNL     1       3.488  -2.862  28.400  0.00  0.00    +0.033 C 
ENDBRANCH   2  12
BRANCH   2  16
ATOM     16  N   UNL     1       5.272  -1.681  25.512  0.00  0.00    -0.227 N 
ATOM     17  H   UNL     1       4.864  -1.255  24.691  0.00  0.00    +0.173 HD
ATOM     18  C   UNL     1       6.485  -1.271  26.051  0.00  0.00    +0.261 C 
ATOM     19  O   UNL     1       6.925  -1.714  27.111  0.00  0.00    -0.269 OA
BRANCH  18  20
ATOM     20  C   UNL     1       7.278  -0.194  25.337  0.00  0.00    +0.045 A 
ATOM     21  C   UNL     1       7.148   1.103  25.884  0.00  0.00    +0.017 A 
ATOM     22  C   UNL     1       7.921   2.180  25.429  0.00  0.00    +0.050 A 
ATOM     23  C   UNL     1       8.810   1.995  24.383  0.00  0.00    +0.162 A 
ATOM     24  O   UNL     1       9.561   3.083  24.011  0.00  0.00    -0.485 OA
ATOM     25  C   UNL     1      10.567   2.751  23.045  0.00  0.00    +0.270 C 
ATOM     26  C   UNL     1      10.001   1.795  22.015  0.00  0.00    +0.270 C 
ATOM     27  O   UNL     1       9.683   0.550  22.649  0.00  0.00    -0.485 OA
ATOM     28  C   UNL     1       8.894   0.742  23.763  0.00  0.00    +0.166 A 
ATOM     29  C   UNL     1       8.184  -0.379  24.263  0.00  0.00    +0.007 A 
ATOM     30  C   UNL     1       8.455  -1.711  23.629  0.00  0.00    +0.048 C 
ENDBRANCH  18  20
ENDBRANCH   2  16
TORSDOF 4
ENDMDL
MODEL 4
REMARK VINA RESULT:      -6.4      2.769      5.798
REMARK  Name = 
REMARK  10 active torsions:
REMARK  status: ('A' for Active; 'I' for Inactive)
REMARK    1  A    between atoms: C_1  and  C_2
REMARK    2  A    between atoms: C_4  and  C_9
REMARK    3  A    between atoms: C_6  and  C_7
REMARK    4  A    between atoms: N_11  and  N_12
REMARK    5  A    between atoms: N_11  and  C_26
REMARK    6  A    between atoms: C_13  and  C_15
REMARK    7  A    between atoms: C_16  and  C_17
REMARK    8  A    between atoms: C_26  and  C_27
REMARK    9  A    between atoms: C_26  and  C_28
REMARK   10  A    between atoms: C_26  and  C_29
REMARK                            x       y       z     vdW  Elec       q    Type
REMARK                         _______ _______ _______ _____ _____    ______ ____
ROOT
ATOM      1  C   UNL     1       8.076   1.827  24.538  0.00  0.00    +0.263 C 
ATOM      2  N   UNL     1       8.475   0.793  23.656  0.00  0.00    -0.211 N 
ATOM      3  O   UNL     1       8.852   2.732  24.860  0.00  0.00    -0.268 OA
ENDROOT
BRANCH   1  10
ATOM      4  C   UNL     1       5.024   0.443  28.225  0.00  0.00    +0.044 C 
ATOM      5  C   UNL     1       5.243   1.206  26.954  0.00  0.00    -0.049 A 
ATOM      6  C   UNL     1       4.191   1.900  26.354  0.00  0.00    +0.006 A 
ATOM      7  C   UNL     1       4.380   2.606  25.158  0.00  0.00    -0.049 A 
ATOM      8  C   UNL     1       3.225   3.334  24.537  0.00  0.00    +0.044 C 
ATOM      9  C   UNL     1       5.637   2.586  24.530  0.00  0.00    +0.016 A 
ATOM     10  C   UNL     1       6.715   1.929  25.132  0.00  0.00    +0.039 A 
ATOM     11  C   UNL     1       6.499   1.226  26.333  0.00  0.00    +0.016 A 
ENDBRANCH   1  10
BRANCH   2  12
ATOM     12  C   UNL     1       9.824   0.828  22.997  0.00  0.00    +0.048 C 
ATOM     13  C   UNL     1      10.943   0.552  24.025  0.00  0.00    +0.033 C 
ATOM     14  C   UNL     1      10.169   2.182  22.343  0.00  0.00    +0.033 C 
ATOM     15  C   UNL     1       9.911  -0.221  21.860  0.00  0.00    +0.033 C 
ENDBRANCH   2  12
BRANCH   2  16
ATOM     16  N   UNL     1       7.617  -0.288  23.271  0.00  0.00    -0.227 N 
ATOM     17  H   UNL     1       7.059  -0.130  22.443  0.00  0.00    +0.173 HD
ATOM     18  C   UNL     1       7.578  -1.476  23.991  0.00  0.00    +0.261 C 
ATOM     19  O   UNL     1       8.337  -1.708  24.931  0.00  0.00    -0.269 OA
BRANCH  18  20
ATOM     20  C   UNL     1       6.601  -2.556  23.571  0.00  0.00    +0.045 A 
ATOM     21  C   UNL     1       7.006  -3.325  22.457  0.00  0.00    +0.017 A 
ATOM     22  C   UNL     1       6.285  -4.449  22.031  0.00  0.00    +0.050 A 
ATOM     23  C   UNL     1       5.115  -4.803  22.682  0.00  0.00    +0.162 A 
ATOM     24  O   UNL     1       4.478  -5.934  22.235  0.00  0.00    -0.485 OA
ATOM     25  C   UNL     1       3.380  -6.314  23.076  0.00  0.00    +0.270 C 
ATOM     26  C   UNL     1       2.600  -5.085  23.496  0.00  0.00    +0.270 C 
ATOM     27  O   UNL     1       3.426  -4.262  24.329  0.00  0.00    -0.485 OA
ATOM     28  C   UNL     1       4.642  -4.007  23.732  0.00  0.00    +0.166 A 
ATOM     29  C   UNL     1       5.400  -2.917  24.232  0.00  0.00    +0.007 A 
ATOM     30  C   UNL     1       4.887  -2.218  25.456  0.00  0.00    +0.048 C 
ENDBRANCH  18  20
ENDBRANCH   2  16
TORSDOF 4
ENDMDL
MODEL 5
REMARK VINA RESULT:      -6.4      0.711      2.304
REMARK  Name = 
REMARK  10 active torsions:
REMARK  status: ('A' for Active; 'I' for Inactive)
REMARK    1  A    between atoms: C_1  and  C_2
REMARK    2  A    between atoms: C_4  and  C_9
REMARK    3  A    between atoms: C_6  and  C_7
REMARK    4  A    between atoms: N_11  and  N_12
REMARK    5  A    between atoms: N_11  and  C_26
REMARK    6  A    between atoms: C_13  and  C_15
REMARK    7  A    between atoms: C_16  and  C_17
REMARK    8  A    between atoms: C_26  and  C_27
REMARK    9  A    between atoms: C_26  and  C_28
REMARK   10  A    between atoms: C_26  and  C_29
REMARK                            x       y       z     vdW  Elec       q    Type
REMARK                         _______ _______ _______ _____ _____    ______ ____
ROOT
ATOM      1  C   UNL     1       9.426  -1.229  23.060  0.00  0.00    +0.263 C 
ATOM      2  N   UNL     1       8.904  -0.060  23.665  0.00  0.00    -0.211 N 
ATOM      3  O   UNL     1      10.400  -1.180  22.302  0.00  0.00    -0.268 OA
ENDROOT
BRANCH   1  10
ATOM      4  C   UNL     1       6.171  -4.705  21.595  0.00  0.00    +0.044 C 
ATOM      5  C   UNL     1       7.246  -4.267  22.543  0.00  0.00    -0.049 A 
ATOM      6  C   UNL     1       7.632  -5.086  23.604  0.00  0.00    +0.006 A 
ATOM      7  C   UNL     1       8.626  -4.682  24.506  0.00  0.00    -0.049 A 
ATOM      8  C   UNL     1       9.011  -5.585  25.639  0.00  0.00    +0.044 C 
ATOM      9  C   UNL     1       9.220  -3.416  24.363  0.00  0.00    +0.016 A 
ATOM     10  C   UNL     1       8.876  -2.594  23.286  0.00  0.00    +0.039 A 
ATOM     11  C   UNL     1       7.874  -3.023  22.395  0.00  0.00    +0.016 A 
ENDBRANCH   1  10
BRANCH   2  12
ATOM     12  C   UNL     1       9.591   1.264  23.490  0.00  0.00    +0.048 C 
ATOM     13  C   UNL     1      10.950   1.278  24.223  0.00  0.00    +0.033 C 
ATOM     14  C   UNL     1       8.795   2.464  24.043  0.00  0.00    +0.033 C 
ATOM     15  C   UNL     1       9.822   1.571  21.989  0.00  0.00    +0.033 C 
ENDBRANCH   2  12
BRANCH   2  16
ATOM     16  N   UNL     1       7.763  -0.065  24.533  0.00  0.00    -0.227 N 
ATOM     17  H   UNL     1       6.872   0.100  24.084  0.00  0.00    +0.173 HD
ATOM     18  C   UNL     1       7.889  -0.300  25.896  0.00  0.00    +0.261 C 
ATOM     19  O   UNL     1       8.957  -0.611  26.421  0.00  0.00    -0.269 OA
BRANCH  18  20
ATOM     20  C   UNL     1       6.651  -0.228  26.770  0.00  0.00    +0.045 A 
ATOM     21  C   UNL     1       5.938  -1.442  26.893  0.00  0.00    +0.017 A 
ATOM     22  C   UNL     1       4.856  -1.578  27.773  0.00  0.00    +0.050 A 
ATOM     23  C   UNL     1       4.432  -0.488  28.517  0.00  0.00    +0.162 A 
ATOM     24  O   UNL     1       3.389  -0.701  29.384  0.00  0.00    -0.485 OA
ATOM     25  C   UNL     1       3.138   0.431  30.229  0.00  0.00    +0.270 C 
ATOM     26  C   UNL     1       3.245   1.710  29.424  0.00  0.00    +0.270 C 
ATOM     27  O   UNL     1       4.599   1.881  28.984  0.00  0.00    -0.485 OA
ATOM     28  C   UNL     1       5.063   0.750  28.347  0.00  0.00    +0.166 A 
ATOM     29  C   UNL     1       6.212   0.887  27.527  0.00  0.00    +0.007 A 
ATOM     30  C   UNL     1       6.911   2.214  27.527  0.00  0.00    +0.048 C 
ENDBRANCH  18  20
ENDBRANCH   2  16
TORSDOF 4
ENDMDL
MODEL 6
REMARK VINA RESULT:      -6.3      2.349      6.391
REMARK  Name = 
REMARK  10 active torsions:
REMARK  status: ('A' for Active; 'I' for Inactive)
REMARK    1  A    between atoms: C_1  and  C_2
REMARK    2  A    between atoms: C_4  and  C_9
REMARK    3  A    between atoms: C_6  and  C_7
REMARK    4  A    between atoms: N_11  and  N_12
REMARK    5  A    between atoms: N_11  and  C_26
REMARK    6  A    between atoms: C_13  and  C_15
REMARK    7  A    between atoms: C_16  and  C_17
REMARK    8  A    between atoms: C_26  and  C_27
REMARK    9  A    between atoms: C_26  and  C_28
REMARK   10  A    between atoms: C_26  and  C_29
REMARK                            x       y       z     vdW  Elec       q    Type
REMARK                         _______ _______ _______ _____ _____    ______ ____
ROOT
ATOM      1  C   UNL     1       7.472   2.395  25.508  0.00  0.00    +0.263 C 
ATOM      2  N   UNL     1       6.439   1.471  25.798  0.00  0.00    -0.211 N 
ATOM      3  O   UNL     1       7.617   3.426  26.173  0.00  0.00    -0.268 OA
ENDROOT
BRANCH   1  10
ATOM      4  C   UNL     1      11.636   4.060  23.336  0.00  0.00    +0.044 C 
ATOM      5  C   UNL     1      10.506   3.076  23.367  0.00  0.00    -0.049 A 
ATOM      6  C   UNL     1      10.385   2.103  22.374  0.00  0.00    +0.006 A 
ATOM      7  C   UNL     1       9.325   1.186  22.385  0.00  0.00    -0.049 A 
ATOM      8  C   UNL     1       9.223   0.159  21.297  0.00  0.00    +0.044 C 
ATOM      9  C   UNL     1       8.346   1.268  23.390  0.00  0.00    +0.016 A 
ATOM     10  C   UNL     1       8.466   2.210  24.416  0.00  0.00    +0.039 A 
ATOM     11  C   UNL     1       9.540   3.121  24.382  0.00  0.00    +0.016 A 
ENDBRANCH   1  10
BRANCH   2  12
ATOM     12  C   UNL     1       5.554   1.663  26.996  0.00  0.00    +0.048 C 
ATOM     13  C   UNL     1       4.450   0.584  27.041  0.00  0.00    +0.033 C 
ATOM     14  C   UNL     1       4.825   3.022  27.026  0.00  0.00    +0.033 C 
ATOM     15  C   UNL     1       6.378   1.600  28.307  0.00  0.00    +0.033 C 
ENDBRANCH   2  12
BRANCH   2  16
ATOM     16  N   UNL     1       6.219   0.274  25.041  0.00  0.00    -0.227 N 
ATOM     17  H   UNL     1       5.635   0.376  24.222  0.00  0.00    +0.173 HD
ATOM     18  C   UNL     1       6.792  -0.936  25.412  0.00  0.00    +0.261 C 
ATOM     19  O   UNL     1       7.592  -1.034  26.341  0.00  0.00    -0.269 OA
BRANCH  18  20
ATOM     20  C   UNL     1       6.468  -2.179  24.606  0.00  0.00    +0.045 A 
ATOM     21  C   UNL     1       5.104  -2.549  24.607  0.00  0.00    +0.017 A 
ATOM     22  C   UNL     1       4.619  -3.588  23.801  0.00  0.00    +0.050 A 
ATOM     23  C   UNL     1       5.495  -4.311  23.008  0.00  0.00    +0.162 A 
ATOM     24  O   UNL     1       4.948  -5.291  22.217  0.00  0.00    -0.485 OA
ATOM     25  C   UNL     1       5.902  -5.862  21.311  0.00  0.00    +0.270 C 
ATOM     26  C   UNL     1       7.226  -6.068  22.017  0.00  0.00    +0.270 C 
ATOM     27  O   UNL     1       7.779  -4.793  22.368  0.00  0.00    -0.485 OA
ATOM     28  C   UNL     1       6.865  -4.023  23.055  0.00  0.00    +0.166 A 
ATOM     29  C   UNL     1       7.363  -2.923  23.799  0.00  0.00    +0.007 A 
ATOM     30  C   UNL     1       8.822  -2.601  23.666  0.00  0.00    +0.048 C 
ENDBRANCH  18  20
ENDBRANCH   2  16
TORSDOF 4
ENDMDL
MODEL 7
REMARK VINA RESULT:      -6.3      1.504      2.255
REMARK  Name = 
REMARK  10 active torsions:
REMARK  status: ('A' for Active; 'I' for Inactive)
REMARK    1  A    between atoms: C_1  and  C_2
REMARK    2  A    between atoms: C_4  and  C_9
REMARK    3  A    between atoms: C_6  and  C_7
REMARK    4  A    between atoms: N_11  and  N_12
REMARK    5  A    between atoms: N_11  and  C_26
REMARK    6  A    between atoms: C_13  and  C_15
REMARK    7  A    between atoms: C_16  and  C_17
REMARK    8  A    between atoms: C_26  and  C_27
REMARK    9  A    between atoms: C_26  and  C_28
REMARK   10  A    between atoms: C_26  and  C_29
REMARK                            x       y       z     vdW  Elec       q    Type
REMARK                         _______ _______ _______ _____ _____    ______ ____
ROOT
ATOM      1  C   UNL     1       9.458  -1.230  23.083  0.00  0.00    +0.263 C 
ATOM      2  N   UNL     1       9.081  -0.069  23.803  0.00  0.00    -0.211 N 
ATOM      3  O   UNL     1      10.398  -1.213  22.282  0.00  0.00    -0.268 OA
ENDROOT
BRANCH   1  10
ATOM      4  C   UNL     1       9.205  -5.513  25.617  0.00  0.00    +0.044 C 
ATOM      5  C   UNL     1       8.712  -4.651  24.495  0.00  0.00    -0.049 A 
ATOM      6  C   UNL     1       7.731  -5.119  23.619  0.00  0.00    +0.006 A 
ATOM      7  C   UNL     1       7.272  -4.328  22.558  0.00  0.00    -0.049 A 
ATOM      8  C   UNL     1       6.223  -4.867  21.631  0.00  0.00    +0.044 C 
ATOM      9  C   UNL     1       7.831  -3.055  22.347  0.00  0.00    +0.016 A 
ATOM     10  C   UNL     1       8.787  -2.551  23.233  0.00  0.00    +0.039 A 
ATOM     11  C   UNL     1       9.233  -3.366  24.291  0.00  0.00    +0.016 A 
ENDBRANCH   1  10
BRANCH   2  12
ATOM     12  C   UNL     1       9.887   1.193  23.693  0.00  0.00    +0.048 C 
ATOM     13  C   UNL     1       9.197   2.351  24.448  0.00  0.00    +0.033 C 
ATOM     14  C   UNL     1      10.088   1.687  22.246  0.00  0.00    +0.033 C 
ATOM     15  C   UNL     1      11.311   0.991  24.269  0.00  0.00    +0.033 C 
ENDBRANCH   2  12
BRANCH   2  16
ATOM     16  N   UNL     1       7.985  -0.037  24.725  0.00  0.00    -0.227 N 
ATOM     17  H   UNL     1       8.237  -0.069  25.704  0.00  0.00    +0.173 HD
ATOM     18  C   UNL     1       6.669   0.051  24.287  0.00  0.00    +0.261 C 
ATOM     19  O   UNL     1       6.372   0.203  23.103  0.00  0.00    -0.269 OA
BRANCH  18  20
ATOM     20  C   UNL     1       5.552   0.016  25.311  0.00  0.00    +0.045 A 
ATOM     21  C   UNL     1       5.134  -1.279  25.692  0.00  0.00    +0.017 A 
ATOM     22  C   UNL     1       4.213  -1.486  26.728  0.00  0.00    +0.050 A 
ATOM     23  C   UNL     1       3.652  -0.397  27.377  0.00  0.00    +0.162 A 
ATOM     24  O   UNL     1       2.783  -0.671  28.404  0.00  0.00    -0.485 OA
ATOM     25  C   UNL     1       2.393   0.507  29.122  0.00  0.00    +0.270 C 
ATOM     26  C   UNL     1       2.132   1.641  28.152  0.00  0.00    +0.270 C 
ATOM     27  O   UNL     1       3.359   2.002  27.504  0.00  0.00    -0.485 OA
ATOM     28  C   UNL     1       3.980   0.898  26.960  0.00  0.00    +0.166 A 
ATOM     29  C   UNL     1       4.973   1.127  25.973  0.00  0.00    +0.007 A 
ATOM     30  C   UNL     1       5.366   2.549  25.702  0.00  0.00    +0.048 C 
ENDBRANCH  18  20
ENDBRANCH   2  16
TORSDOF 4
ENDMDL
MODEL 8
REMARK VINA RESULT:      -6.3      2.525      5.476
REMARK  Name = 
REMARK  10 active torsions:
REMARK  status: ('A' for Active; 'I' for Inactive)
REMARK    1  A    between atoms: C_1  and  C_2
REMARK    2  A    between atoms: C_4  and  C_9
REMARK    3  A    between atoms: C_6  and  C_7
REMARK    4  A    between atoms: N_11  and  N_12
REMARK    5  A    between atoms: N_11  and  C_26
REMARK    6  A    between atoms: C_13  and  C_15
REMARK    7  A    between atoms: C_16  and  C_17
REMARK    8  A    between atoms: C_26  and  C_27
REMARK    9  A    between atoms: C_26  and  C_28
REMARK   10  A    between atoms: C_26  and  C_29
REMARK                            x       y       z     vdW  Elec       q    Type
REMARK                         _______ _______ _______ _____ _____    ______ ____
ROOT
ATOM      1  C   UNL     1       8.249   1.792  24.862  0.00  0.00    +0.263 C 
ATOM      2  N   UNL     1       8.788   0.539  24.477  0.00  0.00    -0.211 N 
ATOM      3  O   UNL     1       8.808   2.852  24.560  0.00  0.00    -0.268 OA
ENDROOT
BRANCH   1  10
ATOM      4  C   UNL     1       3.410   2.970  24.731  0.00  0.00    +0.044 C 
ATOM      5  C   UNL     1       4.612   2.554  25.523  0.00  0.00    -0.049 A 
ATOM      6  C   UNL     1       4.530   2.401  26.908  0.00  0.00    +0.006 A 
ATOM      7  C   UNL     1       5.651   2.026  27.662  0.00  0.00    -0.049 A 
ATOM      8  C   UNL     1       5.528   1.878  29.149  0.00  0.00    +0.044 C 
ATOM      9  C   UNL     1       6.887   1.836  27.021  0.00  0.00    +0.016 A 
ATOM     10  C   UNL     1       6.985   1.947  25.631  0.00  0.00    +0.039 A 
ATOM     11  C   UNL     1       5.844   2.326  24.897  0.00  0.00    +0.016 A 
ENDBRANCH   1  10
BRANCH   2  12
ATOM     12  C   UNL     1      10.000   0.468  23.592  0.00  0.00    +0.048 C 
ATOM     13  C   UNL     1      11.264   0.918  24.357  0.00  0.00    +0.033 C 
ATOM     14  C   UNL     1       9.917   1.363  22.339  0.00  0.00    +0.033 C 
ATOM     15  C   UNL     1      10.214  -0.973  23.065  0.00  0.00    +0.033 C 
ENDBRANCH   2  12
BRANCH   2  16
ATOM     16  N   UNL     1       8.188  -0.715  24.822  0.00  0.00    -0.227 N 
ATOM     17  H   UNL     1       7.605  -1.132  24.109  0.00  0.00    +0.173 HD
ATOM     18  C   UNL     1       8.417  -1.315  26.055  0.00  0.00    +0.261 C 
ATOM     19  O   UNL     1       9.214  -0.863  26.875  0.00  0.00    -0.269 OA
BRANCH  18  20
ATOM     20  C   UNL     1       7.701  -2.610  26.384  0.00  0.00    +0.045 A 
ATOM     21  C   UNL     1       8.514  -3.765  26.351  0.00  0.00    +0.017 A 
ATOM     22  C   UNL     1       8.040  -5.016  26.766  0.00  0.00    +0.050 A 
ATOM     23  C   UNL     1       6.724  -5.151  27.180  0.00  0.00    +0.162 A 
ATOM     24  O   UNL     1       6.335  -6.397  27.606  0.00  0.00    -0.485 OA
ATOM     25  C   UNL     1       5.018  -6.397  28.174  0.00  0.00    +0.270 C 
ATOM     26  C   UNL     1       4.098  -5.525  27.345  0.00  0.00    +0.270 C 
ATOM     27  O   UNL     1       4.530  -4.161  27.434  0.00  0.00    -0.485 OA
ATOM     28  C   UNL     1       5.871  -4.042  27.137  0.00  0.00    +0.166 A 
ATOM     29  C   UNL     1       6.354  -2.751  26.802  0.00  0.00    +0.007 A 
ATOM     30  C   UNL     1       5.403  -1.598  26.932  0.00  0.00    +0.048 C 
ENDBRANCH  18  20
ENDBRANCH   2  16
TORSDOF 4
ENDMDL
MODEL 9
REMARK VINA RESULT:      -5.9      2.767      5.894
REMARK  Name = 
REMARK  10 active torsions:
REMARK  status: ('A' for Active; 'I' for Inactive)
REMARK    1  A    between atoms: C_1  and  C_2
REMARK    2  A    between atoms: C_4  and  C_9
REMARK    3  A    between atoms: C_6  and  C_7
REMARK    4  A    between atoms: N_11  and  N_12
REMARK    5  A    between atoms: N_11  and  C_26
REMARK    6  A    between atoms: C_13  and  C_15
REMARK    7  A    between atoms: C_16  and  C_17
REMARK    8  A    between atoms: C_26  and  C_27
REMARK    9  A    between atoms: C_26  and  C_28
REMARK   10  A    between atoms: C_26  and  C_29
REMARK                            x       y       z     vdW  Elec       q    Type
REMARK                         _______ _______ _______ _____ _____    ______ ____
ROOT
ATOM      1  C   UNL     1       8.229   1.616  24.560  0.00  0.00    +0.263 C 
ATOM      2  N   UNL     1       8.231   0.468  23.730  0.00  0.00    -0.211 N 
ATOM      3  O   UNL     1       9.187   2.395  24.583  0.00  0.00    -0.268 OA
ENDROOT
BRANCH   1  10
ATOM      4  C   UNL     1       4.238   4.525  25.219  0.00  0.00    +0.044 C 
ATOM      5  C   UNL     1       5.152   3.457  25.739  0.00  0.00    -0.049 A 
ATOM      6  C   UNL     1       4.963   2.922  27.014  0.00  0.00    +0.006 A 
ATOM      7  C   UNL     1       5.820   1.933  27.517  0.00  0.00    -0.049 A 
ATOM      8  C   UNL     1       5.591   1.386  28.895  0.00  0.00    +0.044 C 
ATOM      9  C   UNL     1       6.908   1.497  26.743  0.00  0.00    +0.016 A 
ATOM     10  C   UNL     1       7.096   1.992  25.449  0.00  0.00    +0.039 A 
ATOM     11  C   UNL     1       6.222   2.986  24.967  0.00  0.00    +0.016 A 
ENDBRANCH   1  10
BRANCH   2  12
ATOM     12  C   UNL     1       9.357   0.224  22.766  0.00  0.00    +0.048 C 
ATOM     13  C   UNL     1      10.662  -0.112  23.522  0.00  0.00    +0.033 C 
ATOM     14  C   UNL     1       9.685   1.431  21.864  0.00  0.00    +0.033 C 
ATOM     15  C   UNL     1       9.017  -0.941  21.802  0.00  0.00    +0.033 C 
ENDBRANCH   2  12
BRANCH   2  16
ATOM     16  N   UNL     1       7.153  -0.474  23.687  0.00  0.00    -0.227 N 
ATOM     17  H   UNL     1       6.456  -0.308  22.974  0.00  0.00    +0.173 HD
ATOM     18  C   UNL     1       7.094  -1.551  24.564  0.00  0.00    +0.261 C 
ATOM     19  O   UNL     1       8.000  -1.815  25.354  0.00  0.00    -0.269 OA
BRANCH  18  20
ATOM     20  C   UNL     1       5.894  -2.475  24.510  0.00  0.00    +0.045 A 
ATOM     21  C   UNL     1       4.955  -2.293  25.550  0.00  0.00    +0.017 A 
ATOM     22  C   UNL     1       3.727  -2.968  25.566  0.00  0.00    +0.050 A 
ATOM     23  C   UNL     1       3.428  -3.878  24.565  0.00  0.00    +0.162 A 
ATOM     24  O   UNL     1       2.194  -4.477  24.623  0.00  0.00    -0.485 OA
ATOM     25  C   UNL     1       1.911  -5.264  23.458  0.00  0.00    +0.270 C 
ATOM     26  C   UNL     1       3.146  -6.040  23.045  0.00  0.00    +0.270 C 
ATOM     27  O   UNL     1       4.163  -5.122  22.623  0.00  0.00    -0.485 OA
ATOM     28  C   UNL     1       4.377  -4.144  23.570  0.00  0.00    +0.166 A 
ATOM     29  C   UNL     1       5.588  -3.410  23.490  0.00  0.00    +0.007 A 
ATOM     30  C   UNL     1       6.472  -3.659  22.303  0.00  0.00    +0.048 C 
ENDBRANCH  18  20
ENDBRANCH   2  16
TORSDOF 4
ENDMDL
