MODEL 1
REMARK VINA RESULT:      -6.3      0.000      0.000
REMARK  Name = 
REMARK  5 active torsions:
REMARK  status: ('A' for Active; 'I' for Inactive)
REMARK    1  A    between atoms: C_2  and  C_25
REMARK    2  A    between atoms: C_7  and  C_9
REMARK    3  A    between atoms: C_15  and  O_17
REMARK    4  A    between atoms: O_17  and  C_18
REMARK    5  A    between atoms: C_18  and  C_19
REMARK                            x       y       z     vdW  Elec       q    Type
REMARK                         _______ _______ _______ _____ _____    ______ ____
ROOT
ATOM      1  C   UNL     1       6.792  -2.727  25.138  0.00  0.00    +0.165 C 
ATOM      2  N   UNL     1       8.027  -3.491  25.294  0.00  0.00    -0.256 N 
ATOM      3  C   UNL     1       9.113  -3.473  24.456  0.00  0.00    +0.404 C 
ATOM      4  O   UNL     1      10.056  -4.247  24.577  0.00  0.00    -0.226 OA
ATOM      5  C   UNL     1       7.919  -4.490  26.338  0.00  0.00    +0.112 C 
ATOM      6  C   UNL     1       6.517  -4.324  26.907  0.00  0.00    +0.021 C 
ATOM      7  C   UNL     1       5.747  -3.653  25.768  0.00  0.00    +0.033 C 
ENDROOT
BRANCH   1  10
ATOM      8  C   UNL     1       6.539   1.114  25.730  0.00  0.00    +0.139 C 
ATOM      9  N   UNL     1       6.548  -0.228  25.135  0.00  0.00    -0.290 N 
ATOM     10  C   UNL     1       6.790  -1.364  25.891  0.00  0.00    +0.237 C 
ATOM     11  O   UNL     1       6.884  -1.290  27.118  0.00  0.00    -0.274 OA
ATOM     12  C   UNL     1       6.605  -0.152  23.682  0.00  0.00    +0.108 C 
ATOM     13  C   UNL     1       6.444   1.324  23.355  0.00  0.00    +0.021 C 
ATOM     14  C   UNL     1       6.995   2.023  24.592  0.00  0.00    +0.031 C 
BRANCH   8  15
ATOM     15  C   UNL     1       5.138   1.468  26.225  0.00  0.00    +0.245 C 
ATOM     16  O   UNL     1       4.132   0.797  25.994  0.00  0.00    -0.299 OA
ENDBRANCH   8  15
ENDBRANCH   1  10
BRANCH   3  17
ATOM     17  O   UNL     1       9.018  -2.529  23.481  0.00  0.00    -0.445 OA
BRANCH  17  18
ATOM     18  C   UNL     1      10.273  -1.997  23.029  0.00  0.00    +0.269 C 
BRANCH  18  19
ATOM     19  C   UNL     1      10.232  -0.488  23.011  0.00  0.00    -0.010 A 
ATOM     20  C   UNL     1       9.830   0.199  21.856  0.00  0.00    +0.007 A 
ATOM     21  C   UNL     1       9.839   1.596  21.821  0.00  0.00    +0.000 A 
ATOM     22  C   UNL     1      10.241   2.319  22.942  0.00  0.00    +0.000 A 
ATOM     23  C   UNL     1      10.631   1.648  24.099  0.00  0.00    +0.000 A 
ATOM     24  C   UNL     1      10.623   0.252  24.136  0.00  0.00    +0.007 A 
ENDBRANCH  18  19
ENDBRANCH  17  18
ENDBRANCH   3  17
TORSDOF 5
ENDMDL
MODEL 2
REMARK VINA RESULT:      -5.9      2.578      5.362
REMARK  Name = 
REMARK  5 active torsions:
REMARK  status: ('A' for Active; 'I' for Inactive)
REMARK    1  A    between atoms: C_2  and  C_25
REMARK    2  A    between atoms: C_7  and  C_9
REMARK    3  A    between atoms: C_15  and  O_17
REMARK    4  A    between atoms: O_17  and  C_18
REMARK    5  A    between atoms: C_18  and  C_19
REMARK                            x       y       z     vdW  Elec       q    Type
REMARK                         _______ _______ _______ _____ _____    ______ ____
ROOT
ATOM      1  C   UNL     1       8.267  -3.196  24.331  0.00  0.00    +0.165 C 
ATOM      2  N   UNL     1       8.208  -4.557  23.804  0.00  0.00    -0.256 N 
ATOM      3  C   UNL     1       7.464  -4.991  22.735  0.00  0.00    +0.404 C 
ATOM      4  O   UNL     1       7.359  -6.177  22.440  0.00  0.00    -0.226 OA
ATOM      5  C   UNL     1       8.860  -5.508  24.681  0.00  0.00    +0.112 C 
ATOM      6  C   UNL     1       9.398  -4.679  25.839  0.00  0.00    +0.021 C 
ATOM      7  C   UNL     1       8.517  -3.429  25.824  0.00  0.00    +0.033 C 
ENDROOT
BRANCH   1  10
ATOM      8  C   UNL     1      10.123  -0.146  22.777  0.00  0.00    +0.139 C 
ATOM      9  N   UNL     1       9.117  -1.042  23.359  0.00  0.00    -0.290 N 
ATOM     10  C   UNL     1       9.426  -2.339  23.744  0.00  0.00    +0.237 C 
ATOM     11  O   UNL     1      10.592  -2.736  23.722  0.00  0.00    -0.274 OA
ATOM     12  C   UNL     1       7.774  -0.518  23.161  0.00  0.00    +0.108 C 
ATOM     13  C   UNL     1       7.973   0.872  22.577  0.00  0.00    +0.021 C 
ATOM     14  C   UNL     1       9.313   0.765  21.858  0.00  0.00    +0.031 C 
BRANCH   8  15
ATOM     15  C   UNL     1      10.840   0.636  23.875  0.00  0.00    +0.245 C 
ATOM     16  O   UNL     1      10.763   0.372  25.076  0.00  0.00    -0.299 OA
ENDBRANCH   8  15
ENDBRANCH   1  10
BRANCH   3  17
ATOM     17  O   UNL     1       6.851  -3.978  22.066  0.00  0.00    -0.445 OA
BRANCH  17  18
ATOM     18  C   UNL     1       5.451  -4.175  21.816  0.00  0.00    +0.269 C 
BRANCH  18  19
ATOM     19  C   UNL     1       4.668  -4.108  23.105  0.00  0.00    -0.010 A 
ATOM     20  C   UNL     1       4.878  -3.056  24.010  0.00  0.00    +0.007 A 
ATOM     21  C   UNL     1       4.191  -3.017  25.225  0.00  0.00    +0.000 A 
ATOM     22  C   UNL     1       3.281  -4.023  25.545  0.00  0.00    +0.000 A 
ATOM     23  C   UNL     1       3.055  -5.066  24.649  0.00  0.00    +0.000 A 
ATOM     24  C   UNL     1       3.742  -5.107  23.433  0.00  0.00    +0.007 A 
ENDBRANCH  18  19
ENDBRANCH  17  18
ENDBRANCH   3  17
TORSDOF 5
ENDMDL
MODEL 3
REMARK VINA RESULT:      -5.8      2.016      5.161
REMARK  Name = 
REMARK  5 active torsions:
REMARK  status: ('A' for Active; 'I' for Inactive)
REMARK    1  A    between atoms: C_2  and  C_25
REMARK    2  A    between atoms: C_7  and  C_9
REMARK    3  A    between atoms: C_15  and  O_17
REMARK    4  A    between atoms: O_17  and  C_18
REMARK    5  A    between atoms: C_18  and  C_19
REMARK                            x       y       z     vdW  Elec       q    Type
REMARK                         _______ _______ _______ _____ _____    ______ ____
ROOT
ATOM      1  C   UNL     1       6.042  -0.804  24.587  0.00  0.00    +0.165 C 
ATOM      2  N   UNL     1       5.104  -1.565  25.407  0.00  0.00    -0.256 N 
ATOM      3  C   UNL     1       4.537  -2.775  25.094  0.00  0.00    +0.404 C 
ATOM      4  O   UNL     1       3.650  -3.285  25.771  0.00  0.00    -0.226 OA
ATOM      5  C   UNL     1       4.620  -0.796  26.536  0.00  0.00    +0.112 C 
ATOM      6  C   UNL     1       5.332   0.546  26.439  0.00  0.00    +0.021 C 
ATOM      7  C   UNL     1       5.709   0.644  24.960  0.00  0.00    +0.033 C 
ENDROOT
BRANCH   1  10
ATOM      8  C   UNL     1       9.893  -1.094  24.080  0.00  0.00    +0.139 C 
ATOM      9  N   UNL     1       8.457  -0.849  23.899  0.00  0.00    -0.290 N 
ATOM     10  C   UNL     1       7.539  -1.085  24.911  0.00  0.00    +0.237 C 
ATOM     11  O   UNL     1       7.921  -1.394  26.041  0.00  0.00    -0.274 OA
ATOM     12  C   UNL     1       8.133  -0.666  22.491  0.00  0.00    +0.108 C 
ATOM     13  C   UNL     1       9.475  -0.621  21.778  0.00  0.00    +0.021 C 
ATOM     14  C   UNL     1      10.383  -1.450  22.679  0.00  0.00    +0.031 C 
BRANCH   8  15
ATOM     15  C   UNL     1      10.581   0.153  24.632  0.00  0.00    +0.245 C 
ATOM     16  O   UNL     1      10.033   1.249  24.754  0.00  0.00    -0.299 OA
ENDBRANCH   8  15
ENDBRANCH   1  10
BRANCH   3  17
ATOM     17  O   UNL     1       5.047  -3.325  23.960  0.00  0.00    -0.445 OA
BRANCH  17  18
ATOM     18  C   UNL     1       5.464  -4.694  24.085  0.00  0.00    +0.269 C 
BRANCH  18  19
ATOM     19  C   UNL     1       6.799  -4.780  24.784  0.00  0.00    -0.010 A 
ATOM     20  C   UNL     1       6.866  -5.063  26.156  0.00  0.00    +0.007 A 
ATOM     21  C   UNL     1       8.097  -5.095  26.816  0.00  0.00    +0.000 A 
ATOM     22  C   UNL     1       9.274  -4.853  26.109  0.00  0.00    +0.000 A 
ATOM     23  C   UNL     1       9.220  -4.582  24.743  0.00  0.00    +0.000 A 
ATOM     24  C   UNL     1       7.990  -4.550  24.082  0.00  0.00    +0.007 A 
ENDBRANCH  18  19
ENDBRANCH  17  18
ENDBRANCH   3  17
TORSDOF 5
ENDMDL
MODEL 4
REMARK VINA RESULT:      -5.8      2.390      6.382
REMARK  Name = 
REMARK  5 active torsions:
REMARK  status: ('A' for Active; 'I' for Inactive)
REMARK    1  A    between atoms: C_2  and  C_25
REMARK    2  A    between atoms: C_7  and  C_9
REMARK    3  A    between atoms: C_15  and  O_17
REMARK    4  A    between atoms: O_17  and  C_18
REMARK    5  A    between atoms: C_18  and  C_19
REMARK                            x       y       z     vdW  Elec       q    Type
REMARK                         _______ _______ _______ _____ _____    ______ ____
ROOT
ATOM      1  C   UNL     1       7.828  -1.997  23.266  0.00  0.00    +0.165 C 
ATOM      2  N   UNL     1       8.511  -1.418  24.419  0.00  0.00    -0.256 N 
ATOM      3  C   UNL     1       7.927  -0.965  25.575  0.00  0.00    +0.404 C 
ATOM      4  O   UNL     1       8.554  -0.363  26.441  0.00  0.00    -0.226 OA
ATOM      5  C   UNL     1       9.905  -1.139  24.140  0.00  0.00    +0.112 C 
ATOM      6  C   UNL     1      10.128  -1.606  22.709  0.00  0.00    +0.021 C 
ATOM      7  C   UNL     1       8.726  -1.572  22.100  0.00  0.00    +0.033 C 
ENDROOT
BRANCH   1  10
ATOM      8  C   UNL     1       6.255  -5.559  23.184  0.00  0.00    +0.139 C 
ATOM      9  N   UNL     1       6.471  -4.107  23.151  0.00  0.00    -0.290 N 
ATOM     10  C   UNL     1       7.733  -3.551  23.300  0.00  0.00    +0.237 C 
ATOM     11  O   UNL     1       8.732  -4.270  23.341  0.00  0.00    -0.274 OA
ATOM     12  C   UNL     1       5.211  -3.389  23.277  0.00  0.00    +0.108 C 
ATOM     13  C   UNL     1       4.135  -4.461  23.207  0.00  0.00    +0.021 C 
ATOM     14  C   UNL     1       4.840  -5.705  23.737  0.00  0.00    +0.031 C 
BRANCH   8  15
ATOM     15  C   UNL     1       6.389  -6.150  21.782  0.00  0.00    +0.245 C 
ATOM     16  O   UNL     1       6.011  -5.587  20.754  0.00  0.00    -0.299 OA
ENDBRANCH   8  15
ENDBRANCH   1  10
BRANCH   3  17
ATOM     17  O   UNL     1       6.597  -1.237  25.643  0.00  0.00    -0.445 OA
BRANCH  17  18
ATOM     18  C   UNL     1       6.121  -1.618  26.943  0.00  0.00    +0.269 C 
BRANCH  18  19
ATOM     19  C   UNL     1       5.981  -3.118  27.038  0.00  0.00    -0.010 A 
ATOM     20  C   UNL     1       7.098  -3.949  26.862  0.00  0.00    +0.007 A 
ATOM     21  C   UNL     1       6.964  -5.338  26.900  0.00  0.00    +0.000 A 
ATOM     22  C   UNL     1       5.713  -5.912  27.124  0.00  0.00    +0.000 A 
ATOM     23  C   UNL     1       4.599  -5.097  27.313  0.00  0.00    +0.000 A 
ATOM     24  C   UNL     1       4.732  -3.707  27.274  0.00  0.00    +0.007 A 
ENDBRANCH  18  19
ENDBRANCH  17  18
ENDBRANCH   3  17
TORSDOF 5
ENDMDL
MODEL 5
REMARK VINA RESULT:      -5.8      2.549      4.526
REMARK  Name = 
REMARK  5 active torsions:
REMARK  status: ('A' for Active; 'I' for Inactive)
REMARK    1  A    between atoms: C_2  and  C_25
REMARK    2  A    between atoms: C_7  and  C_9
REMARK    3  A    between atoms: C_15  and  O_17
REMARK    4  A    between atoms: O_17  and  C_18
REMARK    5  A    between atoms: C_18  and  C_19
REMARK                            x       y       z     vdW  Elec       q    Type
REMARK                         _______ _______ _______ _____ _____    ______ ____
ROOT
ATOM      1  C   UNL     1       5.892  -4.122  24.051  0.00  0.00    +0.165 C 
ATOM      2  N   UNL     1       7.009  -3.925  23.131  0.00  0.00    -0.256 N 
ATOM      3  C   UNL     1       7.759  -2.785  22.986  0.00  0.00    +0.404 C 
ATOM      4  O   UNL     1       8.590  -2.648  22.094  0.00  0.00    -0.226 OA
ATOM      5  C   UNL     1       7.125  -5.009  22.177  0.00  0.00    +0.112 C 
ATOM      6  C   UNL     1       6.013  -5.982  22.541  0.00  0.00    +0.021 C 
ATOM      7  C   UNL     1       5.004  -5.109  23.287  0.00  0.00    +0.033 C 
ENDROOT
BRANCH   1  10
ATOM      8  C   UNL     1       5.655  -5.205  27.784  0.00  0.00    +0.139 C 
ATOM      9  N   UNL     1       5.377  -4.666  26.448  0.00  0.00    -0.290 N 
ATOM     10  C   UNL     1       6.300  -4.750  25.416  0.00  0.00    +0.237 C 
ATOM     11  O   UNL     1       7.340  -5.396  25.559  0.00  0.00    -0.274 OA
ATOM     12  C   UNL     1       4.215  -3.789  26.472  0.00  0.00    +0.108 C 
ATOM     13  C   UNL     1       3.636  -3.935  27.870  0.00  0.00    +0.021 C 
ATOM     14  C   UNL     1       4.848  -4.307  28.717  0.00  0.00    +0.031 C 
BRANCH   8  15
ATOM     15  C   UNL     1       5.219  -6.666  27.871  0.00  0.00    +0.245 C 
ATOM     16  O   UNL     1       5.759  -7.509  28.589  0.00  0.00    -0.299 OA
ENDBRANCH   8  15
ENDBRANCH   1  10
BRANCH   3  17
ATOM     17  O   UNL     1       7.469  -1.834  23.913  0.00  0.00    -0.445 OA
BRANCH  17  18
ATOM     18  C   UNL     1       7.045  -0.572  23.376  0.00  0.00    +0.269 C 
BRANCH  18  19
ATOM     19  C   UNL     1       8.205   0.393  23.309  0.00  0.00    -0.010 A 
ATOM     20  C   UNL     1       8.660   0.873  22.072  0.00  0.00    +0.007 A 
ATOM     21  C   UNL     1       9.763   1.726  22.003  0.00  0.00    +0.000 A 
ATOM     22  C   UNL     1      10.417   2.116  23.171  0.00  0.00    +0.000 A 
ATOM     23  C   UNL     1       9.966   1.656  24.406  0.00  0.00    +0.000 A 
ATOM     24  C   UNL     1       8.863   0.802  24.476  0.00  0.00    +0.007 A 
ENDBRANCH  18  19
ENDBRANCH  17  18
ENDBRANCH   3  17
TORSDOF 5
ENDMDL
MODEL 6
REMARK VINA RESULT:      -5.7      1.618      5.109
REMARK  Name = 
REMARK  5 active torsions:
REMARK  status: ('A' for Active; 'I' for Inactive)
REMARK    1  A    between atoms: C_2  and  C_25
REMARK    2  A    between atoms: C_7  and  C_9
REMARK    3  A    between atoms: C_15  and  O_17
REMARK    4  A    between atoms: O_17  and  C_18
REMARK    5  A    between atoms: C_18  and  C_19
REMARK                            x       y       z     vdW  Elec       q    Type
REMARK                         _______ _______ _______ _____ _____    ______ ____
ROOT
ATOM      1  C   UNL     1       9.003   0.723  24.291  0.00  0.00    +0.165 C 
ATOM      2  N   UNL     1       9.635  -0.014  23.200  0.00  0.00    -0.256 N 
ATOM      3  C   UNL     1      10.050  -1.322  23.226  0.00  0.00    +0.404 C 
ATOM      4  O   UNL     1      10.699  -1.829  22.317  0.00  0.00    -0.226 OA
ATOM      5  C   UNL     1      10.011   0.855  22.104  0.00  0.00    +0.112 C 
ATOM      6  C   UNL     1       9.554   2.246  22.522  0.00  0.00    +0.021 C 
ATOM      7  C   UNL     1       9.486   2.156  24.047  0.00  0.00    +0.033 C 
ENDROOT
BRANCH   1  10
ATOM      8  C   UNL     1       5.345  -0.054  25.379  0.00  0.00    +0.139 C 
ATOM      9  N   UNL     1       6.807   0.053  25.309  0.00  0.00    -0.290 N 
ATOM     10  C   UNL     1       7.447   0.693  24.258  0.00  0.00    +0.237 C 
ATOM     11  O   UNL     1       6.795   1.302  23.408  0.00  0.00    -0.274 OA
ATOM     12  C   UNL     1       7.441  -0.848  26.260  0.00  0.00    +0.108 C 
ATOM     13  C   UNL     1       6.301  -1.418  27.088  0.00  0.00    +0.021 C 
ATOM     14  C   UNL     1       5.109  -1.356  26.139  0.00  0.00    +0.031 C 
BRANCH   8  15
ATOM     15  C   UNL     1       4.756   1.153  26.105  0.00  0.00    +0.245 C 
ATOM     16  O   UNL     1       3.666   1.660  25.834  0.00  0.00    -0.299 OA
ENDBRANCH   8  15
ENDBRANCH   1  10
BRANCH   3  17
ATOM     17  O   UNL     1       9.684  -1.975  24.362  0.00  0.00    -0.445 OA
BRANCH  17  18
ATOM     18  C   UNL     1       9.750  -3.407  24.286  0.00  0.00    +0.269 C 
BRANCH  18  19
ATOM     19  C   UNL     1       8.576  -4.030  25.003  0.00  0.00    -0.010 A 
ATOM     20  C   UNL     1       8.727  -4.546  26.298  0.00  0.00    +0.007 A 
ATOM     21  C   UNL     1       7.656  -5.167  26.945  0.00  0.00    +0.000 A 
ATOM     22  C   UNL     1       6.422  -5.271  26.307  0.00  0.00    +0.000 A 
ATOM     23  C   UNL     1       6.256  -4.751  25.025  0.00  0.00    +0.000 A 
ATOM     24  C   UNL     1       7.327  -4.130  24.377  0.00  0.00    +0.007 A 
ENDBRANCH  18  19
ENDBRANCH  17  18
ENDBRANCH   3  17
TORSDOF 5
ENDMDL
MODEL 7
REMARK VINA RESULT:      -5.7      2.655      4.958
REMARK  Name = 
REMARK  5 active torsions:
REMARK  status: ('A' for Active; 'I' for Inactive)
REMARK    1  A    between atoms: C_2  and  C_25
REMARK    2  A    between atoms: C_7  and  C_9
REMARK    3  A    between atoms: C_15  and  O_17
REMARK    4  A    between atoms: O_17  and  C_18
REMARK    5  A    between atoms: C_18  and  C_19
REMARK                            x       y       z     vdW  Elec       q    Type
REMARK                         _______ _______ _______ _____ _____    ______ ____
ROOT
ATOM      1  C   UNL     1       7.438  -1.311  24.788  0.00  0.00    +0.165 C 
ATOM      2  N   UNL     1       7.367  -2.132  25.994  0.00  0.00    -0.256 N 
ATOM      3  C   UNL     1       7.914  -3.379  26.169  0.00  0.00    +0.404 C 
ATOM      4  O   UNL     1       7.692  -4.065  27.162  0.00  0.00    -0.226 OA
ATOM      5  C   UNL     1       6.435  -1.594  26.964  0.00  0.00    +0.112 C 
ATOM      6  C   UNL     1       5.898  -0.316  26.335  0.00  0.00    +0.021 C 
ATOM      7  C   UNL     1       6.119  -0.535  24.838  0.00  0.00    +0.033 C 
ENDROOT
BRANCH   1  10
ATOM      8  C   UNL     1       9.824   1.503  23.540  0.00  0.00    +0.139 C 
ATOM      9  N   UNL     1       8.737   0.526  23.671  0.00  0.00    -0.290 N 
ATOM     10  C   UNL     1       8.626  -0.303  24.777  0.00  0.00    +0.237 C 
ATOM     11  O   UNL     1       9.373  -0.157  25.746  0.00  0.00    -0.274 OA
ATOM     12  C   UNL     1       8.050   0.337  22.402  0.00  0.00    +0.108 C 
ATOM     13  C   UNL     1       8.634   1.390  21.474  0.00  0.00    +0.021 C 
ATOM     14  C   UNL     1      10.035   1.616  22.033  0.00  0.00    +0.031 C 
BRANCH   8  15
ATOM     15  C   UNL     1       9.421   2.836  24.167  0.00  0.00    +0.245 C 
ATOM     16  O   UNL     1       9.798   3.935  23.759  0.00  0.00    -0.299 OA
ENDBRANCH   8  15
ENDBRANCH   1  10
BRANCH   3  17
ATOM     17  O   UNL     1       8.699  -3.768  25.129  0.00  0.00    -0.445 OA
BRANCH  17  18
ATOM     18  C   UNL     1       8.578  -5.151  24.763  0.00  0.00    +0.269 C 
BRANCH  18  19
ATOM     19  C   UNL     1       7.451  -5.342  23.777  0.00  0.00    -0.010 A 
ATOM     20  C   UNL     1       6.117  -5.348  24.214  0.00  0.00    +0.007 A 
ATOM     21  C   UNL     1       5.075  -5.573  23.312  0.00  0.00    +0.000 A 
ATOM     22  C   UNL     1       5.354  -5.786  21.963  0.00  0.00    +0.000 A 
ATOM     23  C   UNL     1       6.673  -5.771  21.516  0.00  0.00    +0.000 A 
ATOM     24  C   UNL     1       7.717  -5.546  22.417  0.00  0.00    +0.007 A 
ENDBRANCH  18  19
ENDBRANCH  17  18
ENDBRANCH   3  17
TORSDOF 5
ENDMDL
MODEL 8
REMARK VINA RESULT:      -5.6      2.485      5.009
REMARK  Name = 
REMARK  5 active torsions:
REMARK  status: ('A' for Active; 'I' for Inactive)
REMARK    1  A    between atoms: C_2  and  C_25
REMARK    2  A    between atoms: C_7  and  C_9
REMARK    3  A    between atoms: C_15  and  O_17
REMARK    4  A    between atoms: O_17  and  C_18
REMARK    5  A    between atoms: C_18  and  C_19
REMARK                            x       y       z     vdW  Elec       q    Type
REMARK                         _______ _______ _______ _____ _____    ______ ____
ROOT
ATOM      1  C   UNL     1       8.185   0.399  23.768  0.00  0.00    +0.165 C 
ATOM      2  N   UNL     1       9.274  -0.387  23.193  0.00  0.00    -0.256 N 
ATOM      3  C   UNL     1       9.163  -1.596  22.554  0.00  0.00    +0.404 C 
ATOM      4  O   UNL     1      10.138  -2.262  22.222  0.00  0.00    -0.226 OA
ATOM      5  C   UNL     1      10.574   0.131  23.567  0.00  0.00    +0.112 C 
ATOM      6  C   UNL     1      10.285   1.358  24.420  0.00  0.00    +0.021 C 
ATOM      7  C   UNL     1       8.870   1.105  24.942  0.00  0.00    +0.033 C 
ENDROOT
BRANCH   1  10
ATOM      8  C   UNL     1       5.822   3.178  22.406  0.00  0.00    +0.139 C 
ATOM      9  N   UNL     1       6.476   2.160  23.236  0.00  0.00    -0.290 N 
ATOM     10  C   UNL     1       7.595   1.467  22.801  0.00  0.00    +0.237 C 
ATOM     11  O   UNL     1       8.150   1.776  21.745  0.00  0.00    -0.274 OA
ATOM     12  C   UNL     1       5.628   1.776  24.355  0.00  0.00    +0.108 C 
ATOM     13  C   UNL     1       4.453   2.741  24.312  0.00  0.00    +0.021 C 
ATOM     14  C   UNL     1       4.359   3.118  22.837  0.00  0.00    +0.031 C 
BRANCH   8  15
ATOM     15  C   UNL     1       6.441   4.551  22.657  0.00  0.00    +0.245 C 
ATOM     16  O   UNL     1       7.334   5.044  21.968  0.00  0.00    -0.299 OA
ENDBRANCH   8  15
ENDBRANCH   1  10
BRANCH   3  17
ATOM     17  O   UNL     1       7.873  -1.976  22.351  0.00  0.00    -0.445 OA
BRANCH  17  18
ATOM     18  C   UNL     1       7.620  -3.379  22.519  0.00  0.00    +0.269 C 
BRANCH  18  19
ATOM     19  C   UNL     1       7.668  -3.756  23.980  0.00  0.00    -0.010 A 
ATOM     20  C   UNL     1       6.930  -3.029  24.926  0.00  0.00    +0.007 A 
ATOM     21  C   UNL     1       7.011  -3.344  26.285  0.00  0.00    +0.000 A 
ATOM     22  C   UNL     1       7.822  -4.395  26.710  0.00  0.00    +0.000 A 
ATOM     23  C   UNL     1       8.550  -5.132  25.778  0.00  0.00    +0.000 A 
ATOM     24  C   UNL     1       8.470  -4.817  24.419  0.00  0.00    +0.007 A 
ENDBRANCH  18  19
ENDBRANCH  17  18
ENDBRANCH   3  17
TORSDOF 5
ENDMDL
MODEL 9
REMARK VINA RESULT:      -5.5      2.517      5.378
REMARK  Name = 
REMARK  5 active torsions:
REMARK  status: ('A' for Active; 'I' for Inactive)
REMARK    1  A    between atoms: C_2  and  C_25
REMARK    2  A    between atoms: C_7  and  C_9
REMARK    3  A    between atoms: C_15  and  O_17
REMARK    4  A    between atoms: O_17  and  C_18
REMARK    5  A    between atoms: C_18  and  C_19
REMARK                            x       y       z     vdW  Elec       q    Type
REMARK                         _______ _______ _______ _____ _____    ______ ____
ROOT
ATOM      1  C   UNL     1       6.436  -1.815  25.363  0.00  0.00    +0.165 C 
ATOM      2  N   UNL     1       5.871  -2.207  26.651  0.00  0.00    -0.256 N 
ATOM      3  C   UNL     1       5.700  -3.487  27.116  0.00  0.00    +0.404 C 
ATOM      4  O   UNL     1       5.089  -3.740  28.149  0.00  0.00    -0.226 OA
ATOM      5  C   UNL     1       5.268  -1.086  27.343  0.00  0.00    +0.112 C 
ATOM      6  C   UNL     1       5.496   0.114  26.435  0.00  0.00    +0.021 C 
ATOM      7  C   UNL     1       5.688  -0.515  25.054  0.00  0.00    +0.033 C 
ENDROOT
BRANCH   1  10
ATOM      8  C   UNL     1      10.040  -1.054  24.098  0.00  0.00    +0.139 C 
ATOM      9  N   UNL     1       8.599  -1.316  24.187  0.00  0.00    -0.290 N 
ATOM     10  C   UNL     1       7.967  -1.530  25.403  0.00  0.00    +0.237 C 
ATOM     11  O   UNL     1       8.581  -1.383  26.461  0.00  0.00    -0.274 OA
ATOM     12  C   UNL     1       8.045  -1.635  22.880  0.00  0.00    +0.108 C 
ATOM     13  C   UNL     1       9.177  -1.385  21.897  0.00  0.00    +0.021 C 
ATOM     14  C   UNL     1      10.430  -1.618  22.734  0.00  0.00    +0.031 C 
BRANCH   8  15
ATOM     15  C   UNL     1      10.318   0.443  24.204  0.00  0.00    +0.245 C 
ATOM     16  O   UNL     1       9.450   1.298  24.387  0.00  0.00    -0.299 OA
ENDBRANCH   8  15
ENDBRANCH   1  10
BRANCH   3  17
ATOM     17  O   UNL     1       6.257  -4.427  26.306  0.00  0.00    -0.445 OA
BRANCH  17  18
ATOM     18  C   UNL     1       5.323  -5.170  25.508  0.00  0.00    +0.269 C 
BRANCH  18  19
ATOM     19  C   UNL     1       5.875  -5.399  24.121  0.00  0.00    -0.010 A 
ATOM     20  C   UNL     1       7.233  -5.171  23.850  0.00  0.00    +0.007 A 
ATOM     21  C   UNL     1       7.736  -5.334  22.558  0.00  0.00    +0.000 A 
ATOM     22  C   UNL     1       6.890  -5.735  21.525  0.00  0.00    +0.000 A 
ATOM     23  C   UNL     1       5.543  -5.976  21.785  0.00  0.00    +0.000 A 
ATOM     24  C   UNL     1       5.038  -5.813  23.077  0.00  0.00    +0.007 A 
ENDBRANCH  18  19
ENDBRANCH  17  18
ENDBRANCH   3  17
TORSDOF 5
ENDMDL
