MODEL 1
REMARK VINA RESULT:      -4.4      0.000      0.000
REMARK  Name = 
REMARK  6 active torsions:
REMARK  status: ('A' for Active; 'I' for Inactive)
REMARK    1  A    between atoms: O_1  and  C_2
REMARK    2  A    between atoms: C_2  and  C_3
REMARK    3  A    between atoms: C_6  and  S_8
REMARK    4  A    between atoms: C_9  and  O_11
REMARK    5  A    between atoms: C_12  and  O_14
REMARK    6  A    between atoms: C_15  and  O_17
REMARK                            x       y       z     vdW  Elec       q    Type
REMARK                         _______ _______ _______ _____ _____    ______ ____
ROOT
ATOM      1  C   UNL     1       8.777   0.305  21.944  0.00  0.00    +0.176 C 
ATOM      2  C   UNL     1      10.099   1.050  22.227  0.00  0.00    +0.176 C 
ATOM      3  C   UNL     1      10.353   1.187  23.738  0.00  0.00    +0.177 C 
ATOM      4  C   UNL     1       9.132   1.834  24.421  0.00  0.00    +0.184 C 
ATOM      5  C   UNL     1       7.835   1.079  24.094  0.00  0.00    +0.204 C 
ATOM      6  O   UNL     1       7.655   0.776  22.715  0.00  0.00    -0.356 OA
ENDROOT
BRANCH   2   7
ATOM      7  O   UNL     1      10.090   2.330  21.580  0.00  0.00    -0.386 OA
ATOM      8  H   UNL     1      10.808   2.879  21.962  0.00  0.00    +0.210 HD
ENDBRANCH   2   7
BRANCH   3   9
ATOM      9  O   UNL     1      10.671  -0.095  24.288  0.00  0.00    -0.386 OA
ATOM     10  H   UNL     1      10.963   0.029  25.210  0.00  0.00    +0.210 HD
ENDBRANCH   3   9
BRANCH   4  11
ATOM     11  O   UNL     1       9.068   3.214  23.989  0.00  0.00    -0.386 OA
ATOM     12  H   UNL     1       8.141   3.417  23.750  0.00  0.00    +0.210 HD
ENDBRANCH   4  11
BRANCH   5  13
ATOM     13  S   UNL     1       7.532  -0.328  25.209  0.00  0.00    -0.145 S 
ATOM     14  H   UNL     1       6.357   0.103  25.684  0.00  0.00    +0.104 HD
ENDBRANCH   5  13
BRANCH   1  15
ATOM     15  C   UNL     1       8.959  -1.224  22.024  0.00  0.00    +0.190 C 
BRANCH  15  16
ATOM     16  O   UNL     1      10.280  -1.598  21.633  0.00  0.00    -0.392 OA
ATOM     17  H   UNL     1      10.824  -0.791  21.650  0.00  0.00    +0.210 HD
ENDBRANCH  15  16
ENDBRANCH   1  15
TORSDOF 6
ENDMDL
MODEL 2
REMARK VINA RESULT:      -4.3      1.406      3.410
REMARK  Name = 
REMARK  6 active torsions:
REMARK  status: ('A' for Active; 'I' for Inactive)
REMARK    1  A    between atoms: O_1  and  C_2
REMARK    2  A    between atoms: C_2  and  C_3
REMARK    3  A    between atoms: C_6  and  S_8
REMARK    4  A    between atoms: C_9  and  O_11
REMARK    5  A    between atoms: C_12  and  O_14
REMARK    6  A    between atoms: C_15  and  O_17
REMARK                            x       y       z     vdW  Elec       q    Type
REMARK                         _______ _______ _______ _____ _____    ______ ____
ROOT
ATOM      1  C   UNL     1      10.262   0.448  22.818  0.00  0.00    +0.176 C 
ATOM      2  C   UNL     1       9.506  -0.521  21.885  0.00  0.00    +0.176 C 
ATOM      3  C   UNL     1       8.202  -1.019  22.532  0.00  0.00    +0.177 C 
ATOM      4  C   UNL     1       8.498  -1.618  23.921  0.00  0.00    +0.184 C 
ATOM      5  C   UNL     1       9.273  -0.633  24.808  0.00  0.00    +0.204 C 
ATOM      6  O   UNL     1      10.389  -0.014  24.176  0.00  0.00    -0.356 OA
ENDROOT
BRANCH   2   7
ATOM      7  O   UNL     1      10.358  -1.615  21.518  0.00  0.00    -0.386 OA
ATOM      8  H   UNL     1      11.075  -1.274  20.941  0.00  0.00    +0.210 HD
ENDBRANCH   2   7
BRANCH   3   9
ATOM      9  O   UNL     1       7.257   0.054  22.590  0.00  0.00    -0.386 OA
ATOM     10  H   UNL     1       7.391   0.539  23.424  0.00  0.00    +0.210 HD
ENDBRANCH   3   9
BRANCH   4  11
ATOM     11  O   UNL     1       9.235  -2.847  23.720  0.00  0.00    -0.386 OA
ATOM     12  H   UNL     1       8.614  -3.597  23.818  0.00  0.00    +0.210 HD
ENDBRANCH   4  11
BRANCH   5  13
ATOM     13  S   UNL     1       8.188   0.526  25.699  0.00  0.00    -0.145 S 
ATOM     14  H   UNL     1       9.130   1.435  25.977  0.00  0.00    +0.104 HD
ENDBRANCH   5  13
BRANCH   1  15
ATOM     15  C   UNL     1       9.702   1.881  22.723  0.00  0.00    +0.190 C 
BRANCH  15  16
ATOM     16  O   UNL     1       9.243   2.158  21.400  0.00  0.00    -0.392 OA
ATOM     17  H   UNL     1       8.694   1.405  21.122  0.00  0.00    +0.210 HD
ENDBRANCH  15  16
ENDBRANCH   1  15
TORSDOF 6
ENDMDL
MODEL 3
REMARK VINA RESULT:      -4.3      5.500      6.931
REMARK  Name = 
REMARK  6 active torsions:
REMARK  status: ('A' for Active; 'I' for Inactive)
REMARK    1  A    between atoms: O_1  and  C_2
REMARK    2  A    between atoms: C_2  and  C_3
REMARK    3  A    between atoms: C_6  and  S_8
REMARK    4  A    between atoms: C_9  and  O_11
REMARK    5  A    between atoms: C_12  and  O_14
REMARK    6  A    between atoms: C_15  and  O_17
REMARK                            x       y       z     vdW  Elec       q    Type
REMARK                         _______ _______ _______ _____ _____    ______ ____
ROOT
ATOM      1  C   UNL     1       6.437  -4.841  25.918  0.00  0.00    +0.176 C 
ATOM      2  C   UNL     1       7.534  -4.730  26.998  0.00  0.00    +0.176 C 
ATOM      3  C   UNL     1       8.778  -4.004  26.459  0.00  0.00    +0.177 C 
ATOM      4  C   UNL     1       9.266  -4.682  25.164  0.00  0.00    +0.184 C 
ATOM      5  C   UNL     1       8.139  -4.797  24.127  0.00  0.00    +0.204 C 
ATOM      6  O   UNL     1       6.910  -5.301  24.638  0.00  0.00    -0.356 OA
ENDROOT
BRANCH   2   7
ATOM      7  O   UNL     1       7.865  -6.033  27.498  0.00  0.00    -0.386 OA
ATOM      8  H   UNL     1       7.579  -6.702  26.841  0.00  0.00    +0.210 HD
ENDBRANCH   2   7
BRANCH   3   9
ATOM      9  O   UNL     1       8.480  -2.617  26.270  0.00  0.00    -0.386 OA
ATOM     10  H   UNL     1       8.508  -2.422  25.315  0.00  0.00    +0.210 HD
ENDBRANCH   3   9
BRANCH   4  11
ATOM     11  O   UNL     1       9.794  -5.981  25.521  0.00  0.00    -0.386 OA
ATOM     12  H   UNL     1       9.503  -6.627  24.846  0.00  0.00    +0.210 HD
ENDBRANCH   4  11
BRANCH   5  13
ATOM     13  S   UNL     1       7.961  -3.301  23.104  0.00  0.00    -0.145 S 
ATOM     14  H   UNL     1       6.654  -3.117  23.329  0.00  0.00    +0.104 HD
ENDBRANCH   5  13
BRANCH   1  15
ATOM     15  C   UNL     1       5.604  -3.548  25.819  0.00  0.00    +0.190 C 
BRANCH  15  16
ATOM     16  O   UNL     1       5.571  -2.870  27.076  0.00  0.00    -0.392 OA
ATOM     17  H   UNL     1       4.710  -2.422  27.138  0.00  0.00    +0.210 HD
ENDBRANCH  15  16
ENDBRANCH   1  15
TORSDOF 6
ENDMDL
MODEL 4
REMARK VINA RESULT:      -4.3      1.734      3.274
REMARK  Name = 
REMARK  6 active torsions:
REMARK  status: ('A' for Active; 'I' for Inactive)
REMARK    1  A    between atoms: O_1  and  C_2
REMARK    2  A    between atoms: C_2  and  C_3
REMARK    3  A    between atoms: C_6  and  S_8
REMARK    4  A    between atoms: C_9  and  O_11
REMARK    5  A    between atoms: C_12  and  O_14
REMARK    6  A    between atoms: C_15  and  O_17
REMARK                            x       y       z     vdW  Elec       q    Type
REMARK                         _______ _______ _______ _____ _____    ______ ____
ROOT
ATOM      1  C   UNL     1      10.212   0.631  24.579  0.00  0.00    +0.176 C 
ATOM      2  C   UNL     1       9.384   1.900  24.284  0.00  0.00    +0.176 C 
ATOM      3  C   UNL     1       8.378   1.659  23.146  0.00  0.00    +0.177 C 
ATOM      4  C   UNL     1       9.107   1.107  21.905  0.00  0.00    +0.184 C 
ATOM      5  C   UNL     1       9.939  -0.138  22.247  0.00  0.00    +0.204 C 
ATOM      6  O   UNL     1      10.752  -0.009  23.408  0.00  0.00    -0.356 OA
ENDROOT
BRANCH   2   7
ATOM      7  O   UNL     1      10.256   2.998  23.988  0.00  0.00    -0.386 OA
ATOM      8  H   UNL     1      10.942   3.051  24.687  0.00  0.00    +0.210 HD
ENDBRANCH   2   7
BRANCH   3   9
ATOM      9  O   UNL     1       7.338   0.788  23.601  0.00  0.00    -0.386 OA
ATOM     10  H   UNL     1       7.098   0.186  22.873  0.00  0.00    +0.210 HD
ENDBRANCH   3   9
BRANCH   4  11
ATOM     11  O   UNL     1       9.933   2.169  21.372  0.00  0.00    -0.386 OA
ATOM     12  H   UNL     1      10.444   2.560  22.110  0.00  0.00    +0.210 HD
ENDBRANCH   4  11
BRANCH   5  13
ATOM     13  S   UNL     1       8.971  -1.679  22.184  0.00  0.00    -0.145 S 
ATOM     14  H   UNL     1       9.224  -1.966  20.902  0.00  0.00    +0.104 HD
ENDBRANCH   5  13
BRANCH   1  15
ATOM     15  C   UNL     1       9.449  -0.344  25.497  0.00  0.00    +0.190 C 
BRANCH  15  16
ATOM     16  O   UNL     1       8.575   0.366  26.375  0.00  0.00    -0.392 OA
ATOM     17  H   UNL     1       9.131   0.800  27.045  0.00  0.00    +0.210 HD
ENDBRANCH  15  16
ENDBRANCH   1  15
TORSDOF 6
ENDMDL
MODEL 5
REMARK VINA RESULT:      -4.2      4.403      5.930
REMARK  Name = 
REMARK  6 active torsions:
REMARK  status: ('A' for Active; 'I' for Inactive)
REMARK    1  A    between atoms: O_1  and  C_2
REMARK    2  A    between atoms: C_2  and  C_3
REMARK    3  A    between atoms: C_6  and  S_8
REMARK    4  A    between atoms: C_9  and  O_11
REMARK    5  A    between atoms: C_12  and  O_14
REMARK    6  A    between atoms: C_15  and  O_17
REMARK                            x       y       z     vdW  Elec       q    Type
REMARK                         _______ _______ _______ _____ _____    ______ ____
ROOT
ATOM      1  C   UNL     1       8.298  -2.549  25.364  0.00  0.00    +0.176 C 
ATOM      2  C   UNL     1       8.738  -3.235  24.054  0.00  0.00    +0.176 C 
ATOM      3  C   UNL     1       8.403  -4.736  24.068  0.00  0.00    +0.177 C 
ATOM      4  C   UNL     1       8.995  -5.397  25.328  0.00  0.00    +0.184 C 
ATOM      5  C   UNL     1       8.555  -4.669  26.607  0.00  0.00    +0.204 C 
ATOM      6  O   UNL     1       8.684  -3.253  26.560  0.00  0.00    -0.356 OA
ENDROOT
BRANCH   2   7
ATOM      7  O   UNL     1      10.136  -3.013  23.828  0.00  0.00    -0.386 OA
ATOM      8  H   UNL     1      10.241  -2.483  23.010  0.00  0.00    +0.210 HD
ENDBRANCH   2   7
BRANCH   3   9
ATOM      9  O   UNL     1       6.986  -4.912  23.973  0.00  0.00    -0.386 OA
ATOM     10  H   UNL     1       6.696  -4.619  23.089  0.00  0.00    +0.210 HD
ENDBRANCH   3   9
BRANCH   4  11
ATOM     11  O   UNL     1      10.435  -5.400  25.186  0.00  0.00    -0.386 OA
ATOM     12  H   UNL     1      10.675  -6.068  24.512  0.00  0.00    +0.210 HD
ENDBRANCH   4  11
BRANCH   5  13
ATOM     13  S   UNL     1       6.947  -5.248  27.236  0.00  0.00    -0.145 S 
ATOM     14  H   UNL     1       6.202  -4.720  26.257  0.00  0.00    +0.104 HD
ENDBRANCH   5  13
BRANCH   1  15
ATOM     15  C   UNL     1       6.800  -2.186  25.341  0.00  0.00    +0.190 C 
BRANCH  15  16
ATOM     16  O   UNL     1       6.364  -1.923  24.007  0.00  0.00    -0.392 OA
ATOM     17  H   UNL     1       7.118  -1.535  23.529  0.00  0.00    +0.210 HD
ENDBRANCH  15  16
ENDBRANCH   1  15
TORSDOF 6
ENDMDL
MODEL 6
REMARK VINA RESULT:      -4.2      2.123      3.982
REMARK  Name = 
REMARK  6 active torsions:
REMARK  status: ('A' for Active; 'I' for Inactive)
REMARK    1  A    between atoms: O_1  and  C_2
REMARK    2  A    between atoms: C_2  and  C_3
REMARK    3  A    between atoms: C_6  and  S_8
REMARK    4  A    between atoms: C_9  and  O_11
REMARK    5  A    between atoms: C_12  and  O_14
REMARK    6  A    between atoms: C_15  and  O_17
REMARK                            x       y       z     vdW  Elec       q    Type
REMARK                         _______ _______ _______ _____ _____    ______ ____
ROOT
ATOM      1  C   UNL     1       9.810  -0.883  24.389  0.00  0.00    +0.176 C 
ATOM      2  C   UNL     1      10.171  -1.987  23.373  0.00  0.00    +0.176 C 
ATOM      3  C   UNL     1       9.320  -1.873  22.097  0.00  0.00    +0.177 C 
ATOM      4  C   UNL     1       7.823  -1.848  22.461  0.00  0.00    +0.184 C 
ATOM      5  C   UNL     1       7.510  -0.754  23.493  0.00  0.00    +0.204 C 
ATOM      6  O   UNL     1       8.396  -0.718  24.607  0.00  0.00    -0.356 OA
ENDROOT
BRANCH   2   7
ATOM      7  O   UNL     1      10.032  -3.279  23.980  0.00  0.00    -0.386 OA
ATOM      8  H   UNL     1       9.312  -3.236  24.646  0.00  0.00    +0.210 HD
ENDBRANCH   2   7
BRANCH   3   9
ATOM      9  O   UNL     1       9.722  -0.717  21.355  0.00  0.00    -0.386 OA
ATOM     10  H   UNL     1      10.139  -0.085  21.969  0.00  0.00    +0.210 HD
ENDBRANCH   3   9
BRANCH   4  11
ATOM     11  O   UNL     1       7.469  -3.162  22.954  0.00  0.00    -0.386 OA
ATOM     12  H   UNL     1       6.529  -3.328  22.739  0.00  0.00    +0.210 HD
ENDBRANCH   4  11
BRANCH   5  13
ATOM     13  S   UNL     1       7.204   0.872  22.733  0.00  0.00    -0.145 S 
ATOM     14  H   UNL     1       8.323   0.911  22.001  0.00  0.00    +0.104 HD
ENDBRANCH   5  13
BRANCH   1  15
ATOM     15  C   UNL     1      10.525   0.444  24.065  0.00  0.00    +0.190 C 
BRANCH  15  16
ATOM     16  O   UNL     1      10.058   1.491  24.915  0.00  0.00    -0.392 OA
ATOM     17  H   UNL     1      10.204   2.330  24.444  0.00  0.00    +0.210 HD
ENDBRANCH  15  16
ENDBRANCH   1  15
TORSDOF 6
ENDMDL
MODEL 7
REMARK VINA RESULT:      -4.2      1.552      2.136
REMARK  Name = 
REMARK  6 active torsions:
REMARK  status: ('A' for Active; 'I' for Inactive)
REMARK    1  A    between atoms: O_1  and  C_2
REMARK    2  A    between atoms: C_2  and  C_3
REMARK    3  A    between atoms: C_6  and  S_8
REMARK    4  A    between atoms: C_9  and  O_11
REMARK    5  A    between atoms: C_12  and  O_14
REMARK    6  A    between atoms: C_15  and  O_17
REMARK                            x       y       z     vdW  Elec       q    Type
REMARK                         _______ _______ _______ _____ _____    ______ ____
ROOT
ATOM      1  C   UNL     1       8.261  -0.617  23.113  0.00  0.00    +0.176 C 
ATOM      2  C   UNL     1       9.754  -0.655  22.725  0.00  0.00    +0.176 C 
ATOM      3  C   UNL     1      10.522   0.528  23.338  0.00  0.00    +0.177 C 
ATOM      4  C   UNL     1       9.831   1.855  22.967  0.00  0.00    +0.184 C 
ATOM      5  C   UNL     1       8.342   1.842  23.346  0.00  0.00    +0.204 C 
ATOM      6  O   UNL     1       7.638   0.671  22.947  0.00  0.00    -0.356 OA
ENDROOT
BRANCH   2   7
ATOM      7  O   UNL     1       9.891  -0.683  21.298  0.00  0.00    -0.386 OA
ATOM      8  H   UNL     1      10.281   0.167  21.004  0.00  0.00    +0.210 HD
ENDBRANCH   2   7
BRANCH   3   9
ATOM      9  O   UNL     1      10.632   0.346  24.753  0.00  0.00    -0.386 OA
ATOM     10  H   UNL     1      11.537   0.585  25.026  0.00  0.00    +0.210 HD
ENDBRANCH   3   9
BRANCH   4  11
ATOM     11  O   UNL     1      10.017   2.065  21.548  0.00  0.00    -0.386 OA
ATOM     12  H   UNL     1       9.701   1.268  21.075  0.00  0.00    +0.210 HD
ENDBRANCH   4  11
BRANCH   5  13
ATOM     13  S   UNL     1       8.044   2.337  25.072  0.00  0.00    -0.145 S 
ATOM     14  H   UNL     1       8.203   3.652  24.884  0.00  0.00    +0.104 HD
ENDBRANCH   5  13
BRANCH   1  15
ATOM     15  C   UNL     1       8.022  -1.223  24.510  0.00  0.00    +0.190 C 
BRANCH  15  16
ATOM     16  O   UNL     1       9.000  -2.220  24.804  0.00  0.00    -0.392 OA
ATOM     17  H   UNL     1       8.645  -3.071  24.492  0.00  0.00    +0.210 HD
ENDBRANCH  15  16
ENDBRANCH   1  15
TORSDOF 6
ENDMDL
MODEL 8
REMARK VINA RESULT:      -4.1      1.671      3.579
REMARK  Name = 
REMARK  6 active torsions:
REMARK  status: ('A' for Active; 'I' for Inactive)
REMARK    1  A    between atoms: O_1  and  C_2
REMARK    2  A    between atoms: C_2  and  C_3
REMARK    3  A    between atoms: C_6  and  S_8
REMARK    4  A    between atoms: C_9  and  O_11
REMARK    5  A    between atoms: C_12  and  O_14
REMARK    6  A    between atoms: C_15  and  O_17
REMARK                            x       y       z     vdW  Elec       q    Type
REMARK                         _______ _______ _______ _____ _____    ______ ____
ROOT
ATOM      1  C   UNL     1       9.463   2.497  24.459  0.00  0.00    +0.176 C 
ATOM      2  C   UNL     1      10.553   1.678  23.735  0.00  0.00    +0.176 C 
ATOM      3  C   UNL     1      10.018   1.060  22.433  0.00  0.00    +0.177 C 
ATOM      4  C   UNL     1       8.739   0.250  22.720  0.00  0.00    +0.184 C 
ATOM      5  C   UNL     1       7.690   1.093  23.463  0.00  0.00    +0.204 C 
ATOM      6  O   UNL     1       8.196   1.824  24.574  0.00  0.00    -0.356 OA
ENDROOT
BRANCH   2   7
ATOM      7  O   UNL     1      11.077   0.673  24.614  0.00  0.00    -0.386 OA
ATOM      8  H   UNL     1      10.848   0.914  25.537  0.00  0.00    +0.210 HD
ENDBRANCH   2   7
BRANCH   3   9
ATOM      9  O   UNL     1       9.805   2.092  21.465  0.00  0.00    -0.386 OA
ATOM     10  H   UNL     1       9.896   1.705  20.575  0.00  0.00    +0.210 HD
ENDBRANCH   3   9
BRANCH   4  11
ATOM     11  O   UNL     1       9.121  -0.918  23.485  0.00  0.00    -0.386 OA
ATOM     12  H   UNL     1       8.449  -1.614  23.337  0.00  0.00    +0.210 HD
ENDBRANCH   4  11
BRANCH   5  13
ATOM     13  S   UNL     1       6.644   2.074  22.341  0.00  0.00    -0.145 S 
ATOM     14  H   UNL     1       5.595   1.242  22.344  0.00  0.00    +0.104 HD
ENDBRANCH   5  13
BRANCH   1  15
ATOM     15  C   UNL     1       9.336   3.917  23.871  0.00  0.00    +0.190 C 
BRANCH  15  16
ATOM     16  O   UNL     1      10.572   4.337  23.292  0.00  0.00    -0.392 OA
ATOM     17  H   UNL     1      10.356   4.957  22.573  0.00  0.00    +0.210 HD
ENDBRANCH  15  16
ENDBRANCH   1  15
TORSDOF 6
ENDMDL
MODEL 9
REMARK VINA RESULT:      -4.1      1.697      2.601
REMARK  Name = 
REMARK  6 active torsions:
REMARK  status: ('A' for Active; 'I' for Inactive)
REMARK    1  A    between atoms: O_1  and  C_2
REMARK    2  A    between atoms: C_2  and  C_3
REMARK    3  A    between atoms: C_6  and  S_8
REMARK    4  A    between atoms: C_9  and  O_11
REMARK    5  A    between atoms: C_12  and  O_14
REMARK    6  A    between atoms: C_15  and  O_17
REMARK                            x       y       z     vdW  Elec       q    Type
REMARK                         _______ _______ _______ _____ _____    ______ ____
ROOT
ATOM      1  C   UNL     1       8.312   1.432  23.174  0.00  0.00    +0.176 C 
ATOM      2  C   UNL     1       9.376   1.890  24.194  0.00  0.00    +0.176 C 
ATOM      3  C   UNL     1      10.196   0.700  24.720  0.00  0.00    +0.177 C 
ATOM      4  C   UNL     1       9.254  -0.389  25.271  0.00  0.00    +0.184 C 
ATOM      5  C   UNL     1       8.196  -0.797  24.235  0.00  0.00    +0.204 C 
ATOM      6  O   UNL     1       7.540   0.292  23.595  0.00  0.00    -0.356 OA
ENDROOT
BRANCH   2   7
ATOM      7  O   UNL     1       8.751   2.608  25.266  0.00  0.00    -0.386 OA
ATOM      8  H   UNL     1       7.922   2.146  25.512  0.00  0.00    +0.210 HD
ENDBRANCH   2   7
BRANCH   3   9
ATOM      9  O   UNL     1      11.049   0.209  23.680  0.00  0.00    -0.386 OA
ATOM     10  H   UNL     1      11.960   0.507  23.861  0.00  0.00    +0.210 HD
ENDBRANCH   3   9
BRANCH   4  11
ATOM     11  O   UNL     1       8.646   0.128  26.478  0.00  0.00    -0.386 OA
ATOM     12  H   UNL     1       8.361  -0.631  27.026  0.00  0.00    +0.210 HD
ENDBRANCH   4  11
BRANCH   5  13
ATOM     13  S   UNL     1       8.782  -2.088  23.092  0.00  0.00    -0.145 S 
ATOM     14  H   UNL     1       7.572  -2.520  22.717  0.00  0.00    +0.104 HD
ENDBRANCH   5  13
BRANCH   1  15
ATOM     15  C   UNL     1       8.913   1.260  21.765  0.00  0.00    +0.190 C 
BRANCH  15  16
ATOM     16  O   UNL     1      10.007   2.156  21.569  0.00  0.00    -0.392 OA
ATOM     17  H   UNL     1       9.653   3.060  21.628  0.00  0.00    +0.210 HD
ENDBRANCH  15  16
ENDBRANCH   1  15
TORSDOF 6
ENDMDL
