MODEL 1
REMARK VINA RESULT:      -7.9      0.000      0.000
REMARK  Name = 
REMARK  7 active torsions:
REMARK  status: ('A' for Active; 'I' for Inactive)
REMARK    1  A    between atoms: C_1  and  O_2
REMARK    2  A    between atoms: O_2  and  C_3
REMARK    3  A    between atoms: C_8  and  C_9
REMARK    4  A    between atoms: C_15  and  C_18
REMARK    5  A    between atoms: C_20  and  C_24
REMARK    6  A    between atoms: N_26  and  C_27
REMARK    7  A    between atoms: N_26  and  C_28
REMARK                            x       y       z     vdW  Elec       q    Type
REMARK                         _______ _______ _______ _____ _____    ______ ____
ROOT
ATOM      1  C   UNL     1       9.077   5.454  23.367  0.00  0.00    +0.012 A 
ATOM      2  C   UNL     1       8.600   4.113  23.183  0.00  0.00    +0.027 A 
ATOM      3  C   UNL     1       8.941   2.836  23.666  0.00  0.00    +0.022 A 
ATOM      4  C   UNL     1       8.100   1.737  23.417  0.00  0.00    +0.002 A 
ATOM      5  C   UNL     1       7.020   1.979  22.561  0.00  0.00    +0.121 A 
ATOM      6  N   UNL     1       6.698   3.156  21.957  0.00  0.00    -0.237 NA
ATOM      7  C   UNL     1       7.504   4.167  22.327  0.00  0.00    +0.139 A 
ATOM      8  N   UNL     1       7.377   5.458  21.900  0.00  0.00    -0.345 N 
ATOM      9  H   UNL     1       6.668   5.764  21.249  0.00  0.00    +0.167 HD
ATOM     10  C   UNL     1       8.310   6.248  22.523  0.00  0.00    +0.093 A 
ENDROOT
BRANCH   1  12
ATOM     11  C   UNL     1      11.510   5.934  23.956  0.00  0.00    +0.128 A 
ATOM     12  C   UNL     1      10.124   6.000  24.249  0.00  0.00    +0.026 A 
ATOM     13  C   UNL     1       9.744   6.588  25.472  0.00  0.00    +0.012 A 
ATOM     14  C   UNL     1      10.686   7.108  26.362  0.00  0.00    +0.001 A 
ATOM     15  C   UNL     1      12.033   7.095  26.032  0.00  0.00    +0.004 A 
ATOM     16  C   UNL     1      12.438   6.526  24.828  0.00  0.00    +0.046 A 
BRANCH  11  18
ATOM     17  C   UNL     1      13.210   5.608  22.325  0.00  0.00    +0.277 C 
ATOM     18  O   UNL     1      11.914   5.277  22.819  0.00  0.00    -0.495 OA
ENDBRANCH  11  18
ENDBRANCH   1  12
BRANCH   4  19
ATOM     19  C   UNL     1       8.347   0.438  24.078  0.00  0.00    +0.002 A 
ATOM     20  C   UNL     1       8.866   0.305  25.362  0.00  0.00    +0.119 A 
ATOM     21  N   UNL     1       9.027  -0.877  26.014  0.00  0.00    -0.262 NA
ATOM     22  C   UNL     1       8.649  -2.006  25.356  0.00  0.00    +0.123 A 
ATOM     23  C   UNL     1       8.198  -2.023  24.051  0.00  0.00    +0.056 A 
ATOM     24  C   UNL     1       8.042  -0.774  23.427  0.00  0.00    +0.024 A 
BRANCH  23  25
ATOM     25  C   UNL     1       7.734  -3.221  23.304  0.00  0.00    +0.248 C 
ATOM     26  N   UNL     1       8.016  -4.536  23.677  0.00  0.00    -0.304 N 
ATOM     27  C   UNL     1       7.539  -5.603  22.807  0.00  0.00    +0.132 C 
ATOM     28  C   UNL     1       8.812  -5.004  24.809  0.00  0.00    +0.132 C 
ATOM     29  O   UNL     1       7.091  -2.981  22.275  0.00  0.00    -0.270 OA
ENDBRANCH  23  25
ENDBRANCH   4  19
TORSDOF 4
ENDMDL
MODEL 2
REMARK VINA RESULT:      -7.6      3.177     10.038
REMARK  Name = 
REMARK  7 active torsions:
REMARK  status: ('A' for Active; 'I' for Inactive)
REMARK    1  A    between atoms: C_1  and  O_2
REMARK    2  A    between atoms: O_2  and  C_3
REMARK    3  A    between atoms: C_8  and  C_9
REMARK    4  A    between atoms: C_15  and  C_18
REMARK    5  A    between atoms: C_20  and  C_24
REMARK    6  A    between atoms: N_26  and  C_27
REMARK    7  A    between atoms: N_26  and  C_28
REMARK                            x       y       z     vdW  Elec       q    Type
REMARK                         _______ _______ _______ _____ _____    ______ ____
ROOT
ATOM      1  C   UNL     1       5.647  -5.302  25.652  0.00  0.00    +0.012 A 
ATOM      2  C   UNL     1       6.843  -4.544  25.418  0.00  0.00    +0.027 A 
ATOM      3  C   UNL     1       7.315  -3.669  24.421  0.00  0.00    +0.022 A 
ATOM      4  C   UNL     1       8.494  -2.931  24.627  0.00  0.00    +0.002 A 
ATOM      5  C   UNL     1       9.207  -3.236  25.792  0.00  0.00    +0.121 A 
ATOM      6  N   UNL     1       8.878  -4.157  26.739  0.00  0.00    -0.237 NA
ATOM      7  C   UNL     1       7.692  -4.746  26.502  0.00  0.00    +0.139 A 
ATOM      8  N   UNL     1       7.110  -5.676  27.315  0.00  0.00    -0.345 N 
ATOM      9  H   UNL     1       7.534  -6.019  28.165  0.00  0.00    +0.167 HD
ATOM     10  C   UNL     1       5.875  -6.016  26.823  0.00  0.00    +0.093 A 
ENDROOT
BRANCH   1  12
ATOM     11  C   UNL     1       4.252  -5.973  23.628  0.00  0.00    +0.128 A 
ATOM     12  C   UNL     1       4.378  -5.371  24.906  0.00  0.00    +0.026 A 
ATOM     13  C   UNL     1       3.229  -4.775  25.463  0.00  0.00    +0.012 A 
ATOM     14  C   UNL     1       2.000  -4.788  24.800  0.00  0.00    +0.001 A 
ATOM     15  C   UNL     1       1.876  -5.438  23.581  0.00  0.00    +0.004 A 
ATOM     16  C   UNL     1       2.993  -6.040  23.008  0.00  0.00    +0.046 A 
BRANCH  11  18
ATOM     17  C   UNL     1       5.778  -5.827  21.811  0.00  0.00    +0.277 C 
ATOM     18  O   UNL     1       5.377  -6.471  23.018  0.00  0.00    -0.495 OA
ENDBRANCH  11  18
ENDBRANCH   1  12
BRANCH   4  19
ATOM     19  C   UNL     1       8.892  -1.873  23.675  0.00  0.00    +0.002 A 
ATOM     20  C   UNL     1       9.000  -2.064  22.301  0.00  0.00    +0.119 A 
ATOM     21  N   UNL     1       9.290  -1.084  21.404  0.00  0.00    -0.262 NA
ATOM     22  C   UNL     1       9.484   0.170  21.893  0.00  0.00    +0.123 A 
ATOM     23  C   UNL     1       9.489   0.480  23.239  0.00  0.00    +0.056 A 
ATOM     24  C   UNL     1       9.175  -0.567  24.122  0.00  0.00    +0.024 A 
BRANCH  23  25
ATOM     25  C   UNL     1       9.654   1.837  23.821  0.00  0.00    +0.248 C 
ATOM     26  N   UNL     1       8.609   2.744  24.003  0.00  0.00    -0.304 N 
ATOM     27  C   UNL     1       8.941   4.060  24.534  0.00  0.00    +0.132 C 
ATOM     28  C   UNL     1       7.199   2.582  23.656  0.00  0.00    +0.132 C 
ATOM     29  O   UNL     1      10.816   2.145  24.112  0.00  0.00    -0.270 OA
ENDBRANCH  23  25
ENDBRANCH   4  19
TORSDOF 4
ENDMDL
MODEL 3
REMARK VINA RESULT:      -7.6      3.354      5.236
REMARK  Name = 
REMARK  7 active torsions:
REMARK  status: ('A' for Active; 'I' for Inactive)
REMARK    1  A    between atoms: C_1  and  O_2
REMARK    2  A    between atoms: O_2  and  C_3
REMARK    3  A    between atoms: C_8  and  C_9
REMARK    4  A    between atoms: C_15  and  C_18
REMARK    5  A    between atoms: C_20  and  C_24
REMARK    6  A    between atoms: N_26  and  C_27
REMARK    7  A    between atoms: N_26  and  C_28
REMARK                            x       y       z     vdW  Elec       q    Type
REMARK                         _______ _______ _______ _____ _____    ______ ____
ROOT
ATOM      1  C   UNL     1       8.568   0.828  22.332  0.00  0.00    +0.012 A 
ATOM      2  C   UNL     1       8.029  -0.432  22.758  0.00  0.00    +0.027 A 
ATOM      3  C   UNL     1       6.965  -0.861  23.574  0.00  0.00    +0.022 A 
ATOM      4  C   UNL     1       6.601  -2.219  23.606  0.00  0.00    +0.002 A 
ATOM      5  C   UNL     1       7.441  -3.091  22.906  0.00  0.00    +0.121 A 
ATOM      6  N   UNL     1       8.558  -2.766  22.198  0.00  0.00    -0.237 NA
ATOM      7  C   UNL     1       8.773  -1.439  22.149  0.00  0.00    +0.139 A 
ATOM      8  N   UNL     1       9.799  -0.842  21.473  0.00  0.00    -0.345 N 
ATOM      9  H   UNL     1      10.504  -1.354  20.962  0.00  0.00    +0.167 HD
ATOM     10  C   UNL     1       9.687   0.522  21.566  0.00  0.00    +0.093 A 
ENDROOT
BRANCH   1  12
ATOM     11  C   UNL     1       8.850   3.168  23.300  0.00  0.00    +0.128 A 
ATOM     12  C   UNL     1       8.109   2.209  22.564  0.00  0.00    +0.026 A 
ATOM     13  C   UNL     1       6.849   2.600  22.067  0.00  0.00    +0.012 A 
ATOM     14  C   UNL     1       6.347   3.887  22.268  0.00  0.00    +0.001 A 
ATOM     15  C   UNL     1       7.112   4.835  22.933  0.00  0.00    +0.004 A 
ATOM     16  C   UNL     1       8.362   4.479  23.430  0.00  0.00    +0.046 A 
BRANCH  11  18
ATOM     17  C   UNL     1      11.208   3.452  23.424  0.00  0.00    +0.277 C 
ATOM     18  O   UNL     1      10.035   2.784  23.881  0.00  0.00    -0.495 OA
ENDBRANCH  11  18
ENDBRANCH   1  12
BRANCH   4  19
ATOM     19  C   UNL     1       5.372  -2.649  24.305  0.00  0.00    +0.002 A 
ATOM     20  C   UNL     1       4.791  -1.949  25.358  0.00  0.00    +0.119 A 
ATOM     21  N   UNL     1       3.620  -2.288  25.960  0.00  0.00    -0.262 NA
ATOM     22  C   UNL     1       2.976  -3.391  25.492  0.00  0.00    +0.123 A 
ATOM     23  C   UNL     1       3.483  -4.221  24.512  0.00  0.00    +0.056 A 
ATOM     24  C   UNL     1       4.691  -3.819  23.916  0.00  0.00    +0.024 A 
BRANCH  23  25
ATOM     25  C   UNL     1       2.801  -5.410  23.937  0.00  0.00    +0.248 C 
ATOM     26  N   UNL     1       2.939  -6.707  24.433  0.00  0.00    -0.304 N 
ATOM     27  C   UNL     1       2.251  -7.778  23.722  0.00  0.00    +0.132 C 
ATOM     28  C   UNL     1       3.760  -7.167  25.550  0.00  0.00    +0.132 C 
ATOM     29  O   UNL     1       2.110  -5.186  22.936  0.00  0.00    -0.270 OA
ENDBRANCH  23  25
ENDBRANCH   4  19
TORSDOF 4
ENDMDL
MODEL 4
REMARK VINA RESULT:      -7.5      3.341      9.583
REMARK  Name = 
REMARK  7 active torsions:
REMARK  status: ('A' for Active; 'I' for Inactive)
REMARK    1  A    between atoms: C_1  and  O_2
REMARK    2  A    between atoms: O_2  and  C_3
REMARK    3  A    between atoms: C_8  and  C_9
REMARK    4  A    between atoms: C_15  and  C_18
REMARK    5  A    between atoms: C_20  and  C_24
REMARK    6  A    between atoms: N_26  and  C_27
REMARK    7  A    between atoms: N_26  and  C_28
REMARK                            x       y       z     vdW  Elec       q    Type
REMARK                         _______ _______ _______ _____ _____    ______ ____
ROOT
ATOM      1  C   UNL     1       5.114  -5.530  24.947  0.00  0.00    +0.012 A 
ATOM      2  C   UNL     1       5.803  -4.737  23.970  0.00  0.00    +0.027 A 
ATOM      3  C   UNL     1       6.598  -3.576  23.978  0.00  0.00    +0.022 A 
ATOM      4  C   UNL     1       7.293  -3.185  22.820  0.00  0.00    +0.002 A 
ATOM      5  C   UNL     1       7.021  -3.931  21.667  0.00  0.00    +0.121 A 
ATOM      6  N   UNL     1       6.170  -4.987  21.553  0.00  0.00    -0.237 NA
ATOM      7  C   UNL     1       5.623  -5.343  22.730  0.00  0.00    +0.139 A 
ATOM      8  N   UNL     1       4.767  -6.393  22.903  0.00  0.00    -0.345 N 
ATOM      9  H   UNL     1       4.452  -6.988  22.150  0.00  0.00    +0.167 HD
ATOM     10  C   UNL     1       4.456  -6.525  24.233  0.00  0.00    +0.093 A 
ENDROOT
BRANCH   1  12
ATOM     11  C   UNL     1       6.183  -5.643  27.258  0.00  0.00    +0.128 A 
ATOM     12  C   UNL     1       5.061  -5.431  26.417  0.00  0.00    +0.026 A 
ATOM     13  C   UNL     1       3.825  -5.151  27.036  0.00  0.00    +0.012 A 
ATOM     14  C   UNL     1       3.703  -5.062  28.423  0.00  0.00    +0.001 A 
ATOM     15  C   UNL     1       4.821  -5.206  29.231  0.00  0.00    +0.004 A 
ATOM     16  C   UNL     1       6.056  -5.478  28.648  0.00  0.00    +0.046 A 
BRANCH  11  18
ATOM     17  C   UNL     1       8.422  -5.051  26.723  0.00  0.00    +0.277 C 
ATOM     18  O   UNL     1       7.375  -6.017  26.688  0.00  0.00    -0.495 OA
ENDBRANCH  11  18
ENDBRANCH   1  12
BRANCH   4  19
ATOM     19  C   UNL     1       8.277  -2.084  22.871  0.00  0.00    +0.002 A 
ATOM     20  C   UNL     1       9.637  -2.267  23.100  0.00  0.00    +0.119 A 
ATOM     21  N   UNL     1      10.567  -1.275  23.073  0.00  0.00    -0.262 NA
ATOM     22  C   UNL     1      10.127  -0.017  22.799  0.00  0.00    +0.123 A 
ATOM     23  C   UNL     1       8.797   0.315  22.636  0.00  0.00    +0.056 A 
ATOM     24  C   UNL     1       7.879  -0.749  22.664  0.00  0.00    +0.024 A 
BRANCH  23  25
ATOM     25  C   UNL     1       8.270   1.662  22.294  0.00  0.00    +0.248 C 
ATOM     26  N   UNL     1       8.100   2.694  23.218  0.00  0.00    -0.304 N 
ATOM     27  C   UNL     1       7.516   3.940  22.739  0.00  0.00    +0.132 C 
ATOM     28  C   UNL     1       8.361   2.675  24.655  0.00  0.00    +0.132 C 
ATOM     29  O   UNL     1       7.944   1.813  21.111  0.00  0.00    -0.270 OA
ENDBRANCH  23  25
ENDBRANCH   4  19
TORSDOF 4
ENDMDL
MODEL 5
REMARK VINA RESULT:      -7.4      3.262      4.678
REMARK  Name = 
REMARK  7 active torsions:
REMARK  status: ('A' for Active; 'I' for Inactive)
REMARK    1  A    between atoms: C_1  and  O_2
REMARK    2  A    between atoms: O_2  and  C_3
REMARK    3  A    between atoms: C_8  and  C_9
REMARK    4  A    between atoms: C_15  and  C_18
REMARK    5  A    between atoms: C_20  and  C_24
REMARK    6  A    between atoms: N_26  and  C_27
REMARK    7  A    between atoms: N_26  and  C_28
REMARK                            x       y       z     vdW  Elec       q    Type
REMARK                         _______ _______ _______ _____ _____    ______ ____
ROOT
ATOM      1  C   UNL     1       8.129   2.224  23.603  0.00  0.00    +0.012 A 
ATOM      2  C   UNL     1       8.577   0.904  23.261  0.00  0.00    +0.027 A 
ATOM      3  C   UNL     1       8.640  -0.348  23.901  0.00  0.00    +0.022 A 
ATOM      4  C   UNL     1       8.966  -1.503  23.168  0.00  0.00    +0.002 A 
ATOM      5  C   UNL     1       9.350  -1.292  21.840  0.00  0.00    +0.121 A 
ATOM      6  N   UNL     1       9.433  -0.099  21.187  0.00  0.00    -0.237 NA
ATOM      7  C   UNL     1       9.016   0.934  21.940  0.00  0.00    +0.139 A 
ATOM      8  N   UNL     1       8.959   2.232  21.516  0.00  0.00    -0.345 N 
ATOM      9  H   UNL     1       9.246   2.532  20.596  0.00  0.00    +0.167 HD
ATOM     10  C   UNL     1       8.420   3.020  22.501  0.00  0.00    +0.093 A 
ENDROOT
BRANCH   1  12
ATOM     11  C   UNL     1       6.267   2.197  25.343  0.00  0.00    +0.128 A 
ATOM     12  C   UNL     1       7.464   2.741  24.812  0.00  0.00    +0.026 A 
ATOM     13  C   UNL     1       8.015   3.863  25.464  0.00  0.00    +0.012 A 
ATOM     14  C   UNL     1       7.425   4.414  26.603  0.00  0.00    +0.001 A 
ATOM     15  C   UNL     1       6.292   3.831  27.149  0.00  0.00    +0.004 A 
ATOM     16  C   UNL     1       5.727   2.719  26.530  0.00  0.00    +0.046 A 
BRANCH  11  18
ATOM     17  C   UNL     1       5.348   0.006  25.436  0.00  0.00    +0.277 C 
ATOM     18  O   UNL     1       5.653   1.168  24.670  0.00  0.00    -0.495 OA
ENDBRANCH  11  18
ENDBRANCH   1  12
BRANCH   4  19
ATOM     19  C   UNL     1       8.847  -2.840  23.785  0.00  0.00    +0.002 A 
ATOM     20  C   UNL     1       9.910  -3.524  24.369  0.00  0.00    +0.119 A 
ATOM     21  N   UNL     1       9.803  -4.719  25.009  0.00  0.00    -0.262 NA
ATOM     22  C   UNL     1       8.565  -5.278  25.079  0.00  0.00    +0.123 A 
ATOM     23  C   UNL     1       7.444  -4.749  24.471  0.00  0.00    +0.056 A 
ATOM     24  C   UNL     1       7.608  -3.508  23.832  0.00  0.00    +0.024 A 
BRANCH  23  25
ATOM     25  C   UNL     1       6.065  -5.297  24.554  0.00  0.00    +0.248 C 
ATOM     26  N   UNL     1       5.374  -5.846  23.473  0.00  0.00    -0.304 N 
ATOM     27  C   UNL     1       4.005  -6.288  23.701  0.00  0.00    +0.132 C 
ATOM     28  C   UNL     1       5.816  -5.972  22.086  0.00  0.00    +0.132 C 
ATOM     29  O   UNL     1       5.530  -5.204  25.665  0.00  0.00    -0.270 OA
ENDBRANCH  23  25
ENDBRANCH   4  19
TORSDOF 4
ENDMDL
MODEL 6
REMARK VINA RESULT:      -7.4      3.682      5.289
REMARK  Name = 
REMARK  7 active torsions:
REMARK  status: ('A' for Active; 'I' for Inactive)
REMARK    1  A    between atoms: C_1  and  O_2
REMARK    2  A    between atoms: O_2  and  C_3
REMARK    3  A    between atoms: C_8  and  C_9
REMARK    4  A    between atoms: C_15  and  C_18
REMARK    5  A    between atoms: C_20  and  C_24
REMARK    6  A    between atoms: N_26  and  C_27
REMARK    7  A    between atoms: N_26  and  C_28
REMARK                            x       y       z     vdW  Elec       q    Type
REMARK                         _______ _______ _______ _____ _____    ______ ____
ROOT
ATOM      1  C   UNL     1       7.602   2.063  22.816  0.00  0.00    +0.012 A 
ATOM      2  C   UNL     1       7.961   0.679  22.690  0.00  0.00    +0.027 A 
ATOM      3  C   UNL     1       7.437  -0.552  23.124  0.00  0.00    +0.022 A 
ATOM      4  C   UNL     1       7.961  -1.759  22.629  0.00  0.00    +0.002 A 
ATOM      5  C   UNL     1       9.095  -1.642  21.817  0.00  0.00    +0.121 A 
ATOM      6  N   UNL     1       9.732  -0.495  21.456  0.00  0.00    -0.237 NA
ATOM      7  C   UNL     1       9.106   0.609  21.902  0.00  0.00    +0.139 A 
ATOM      8  N   UNL     1       9.512   1.889  21.648  0.00  0.00    -0.345 N 
ATOM      9  H   UNL     1      10.337   2.118  21.113  0.00  0.00    +0.167 HD
ATOM     10  C   UNL     1       8.613   2.777  22.184  0.00  0.00    +0.093 A 
ENDROOT
BRANCH   1  12
ATOM     11  C   UNL     1       6.332   3.005  24.815  0.00  0.00    +0.128 A 
ATOM     12  C   UNL     1       6.429   2.710  23.431  0.00  0.00    +0.026 A 
ATOM     13  C   UNL     1       5.320   3.023  22.618  0.00  0.00    +0.012 A 
ATOM     14  C   UNL     1       4.171   3.619  23.141  0.00  0.00    +0.001 A 
ATOM     15  C   UNL     1       4.116   3.962  24.484  0.00  0.00    +0.004 A 
ATOM     16  C   UNL     1       5.198   3.670  25.310  0.00  0.00    +0.046 A 
BRANCH  11  18
ATOM     17  C   UNL     1       7.090   1.508  26.499  0.00  0.00    +0.277 C 
ATOM     18  O   UNL     1       7.355   2.619  25.646  0.00  0.00    -0.495 OA
ENDBRANCH  11  18
ENDBRANCH   1  12
BRANCH   4  19
ATOM     19  C   UNL     1       7.296  -3.044  22.928  0.00  0.00    +0.002 A 
ATOM     20  C   UNL     1       6.650  -3.826  21.975  0.00  0.00    +0.119 A 
ATOM     21  N   UNL     1       6.101  -5.046  22.217  0.00  0.00    -0.262 NA
ATOM     22  C   UNL     1       6.198  -5.531  23.484  0.00  0.00    +0.123 A 
ATOM     23  C   UNL     1       6.737  -4.825  24.540  0.00  0.00    +0.056 A 
ATOM     24  C   UNL     1       7.298  -3.573  24.233  0.00  0.00    +0.024 A 
BRANCH  23  25
ATOM     25  C   UNL     1       6.904  -5.325  25.930  0.00  0.00    +0.248 C 
ATOM     26  N   UNL     1       5.910  -5.268  26.908  0.00  0.00    -0.304 N 
ATOM     27  C   UNL     1       6.247  -5.747  28.243  0.00  0.00    +0.132 C 
ATOM     28  C   UNL     1       4.564  -4.710  26.799  0.00  0.00    +0.132 C 
ATOM     29  O   UNL     1       8.025  -5.776  26.194  0.00  0.00    -0.270 OA
ENDBRANCH  23  25
ENDBRANCH   4  19
TORSDOF 4
ENDMDL
MODEL 7
REMARK VINA RESULT:      -7.3      2.612      3.853
REMARK  Name = 
REMARK  7 active torsions:
REMARK  status: ('A' for Active; 'I' for Inactive)
REMARK    1  A    between atoms: C_1  and  O_2
REMARK    2  A    between atoms: O_2  and  C_3
REMARK    3  A    between atoms: C_8  and  C_9
REMARK    4  A    between atoms: C_15  and  C_18
REMARK    5  A    between atoms: C_20  and  C_24
REMARK    6  A    between atoms: N_26  and  C_27
REMARK    7  A    between atoms: N_26  and  C_28
REMARK                            x       y       z     vdW  Elec       q    Type
REMARK                         _______ _______ _______ _____ _____    ______ ____
ROOT
ATOM      1  C   UNL     1       8.946   3.779  24.288  0.00  0.00    +0.012 A 
ATOM      2  C   UNL     1       9.304   2.401  24.470  0.00  0.00    +0.027 A 
ATOM      3  C   UNL     1       8.697   1.256  25.018  0.00  0.00    +0.022 A 
ATOM      4  C   UNL     1       9.283  -0.010  24.839  0.00  0.00    +0.002 A 
ATOM      5  C   UNL     1      10.540  -0.017  24.225  0.00  0.00    +0.121 A 
ATOM      6  N   UNL     1      11.244   1.060  23.781  0.00  0.00    -0.237 NA
ATOM      7  C   UNL     1      10.565   2.214  23.913  0.00  0.00    +0.139 A 
ATOM      8  N   UNL     1      11.024   3.436  23.511  0.00  0.00    -0.345 N 
ATOM      9  H   UNL     1      11.932   3.582  23.092  0.00  0.00    +0.167 HD
ATOM     10  C   UNL     1      10.059   4.388  23.722  0.00  0.00    +0.093 A 
ENDROOT
BRANCH   1  12
ATOM     11  C   UNL     1       6.620   4.604  23.650  0.00  0.00    +0.128 A 
ATOM     12  C   UNL     1       7.694   4.504  24.571  0.00  0.00    +0.026 A 
ATOM     13  C   UNL     1       7.559   5.171  25.806  0.00  0.00    +0.012 A 
ATOM     14  C   UNL     1       6.407   5.890  26.129  0.00  0.00    +0.001 A 
ATOM     15  C   UNL     1       5.338   5.925  25.246  0.00  0.00    +0.004 A 
ATOM     16  C   UNL     1       5.440   5.271  24.021  0.00  0.00    +0.046 A 
BRANCH  11  18
ATOM     17  C   UNL     1       6.258   2.728  22.235  0.00  0.00    +0.277 C 
ATOM     18  O   UNL     1       6.766   4.049  22.402  0.00  0.00    -0.495 OA
ENDBRANCH  11  18
ENDBRANCH   1  12
BRANCH   4  19
ATOM     19  C   UNL     1       8.560  -1.234  25.242  0.00  0.00    +0.002 A 
ATOM     20  C   UNL     1       7.781  -1.335  26.390  0.00  0.00    +0.119 A 
ATOM     21  N   UNL     1       7.048  -2.428  26.735  0.00  0.00    -0.262 NA
ATOM     22  C   UNL     1       7.084  -3.493  25.890  0.00  0.00    +0.123 A 
ATOM     23  C   UNL     1       7.879  -3.556  24.763  0.00  0.00    +0.056 A 
ATOM     24  C   UNL     1       8.609  -2.397  24.448  0.00  0.00    +0.024 A 
BRANCH  23  25
ATOM     25  C   UNL     1       7.922  -4.676  23.787  0.00  0.00    +0.248 C 
ATOM     26  N   UNL     1       7.063  -4.796  22.693  0.00  0.00    -0.304 N 
ATOM     27  C   UNL     1       7.193  -5.985  21.860  0.00  0.00    +0.132 C 
ATOM     28  C   UNL     1       5.971  -3.910  22.299  0.00  0.00    +0.132 C 
ATOM     29  O   UNL     1       8.767  -5.547  24.026  0.00  0.00    -0.270 OA
ENDBRANCH  23  25
ENDBRANCH   4  19
TORSDOF 4
ENDMDL
MODEL 8
REMARK VINA RESULT:      -7.3      2.094      9.117
REMARK  Name = 
REMARK  7 active torsions:
REMARK  status: ('A' for Active; 'I' for Inactive)
REMARK    1  A    between atoms: C_1  and  O_2
REMARK    2  A    between atoms: O_2  and  C_3
REMARK    3  A    between atoms: C_8  and  C_9
REMARK    4  A    between atoms: C_15  and  C_18
REMARK    5  A    between atoms: C_20  and  C_24
REMARK    6  A    between atoms: N_26  and  C_27
REMARK    7  A    between atoms: N_26  and  C_28
REMARK                            x       y       z     vdW  Elec       q    Type
REMARK                         _______ _______ _______ _____ _____    ______ ____
ROOT
ATOM      1  C   UNL     1       7.643  -2.911  23.970  0.00  0.00    +0.012 A 
ATOM      2  C   UNL     1       8.251  -1.656  23.631  0.00  0.00    +0.027 A 
ATOM      3  C   UNL     1       7.804  -0.385  23.225  0.00  0.00    +0.022 A 
ATOM      4  C   UNL     1       8.700   0.698  23.173  0.00  0.00    +0.002 A 
ATOM      5  C   UNL     1      10.045   0.386  23.405  0.00  0.00    +0.121 A 
ATOM      6  N   UNL     1      10.569  -0.840  23.679  0.00  0.00    -0.237 NA
ATOM      7  C   UNL     1       9.626  -1.793  23.798  0.00  0.00    +0.139 A 
ATOM      8  N   UNL     1       9.877  -3.099  24.109  0.00  0.00    -0.345 N 
ATOM      9  H   UNL     1      10.804  -3.470  24.259  0.00  0.00    +0.167 HD
ATOM     10  C   UNL     1       8.694  -3.785  24.224  0.00  0.00    +0.093 A 
ENDROOT
BRANCH   1  12
ATOM     11  C   UNL     1       5.523  -4.008  23.077  0.00  0.00    +0.128 A 
ATOM     12  C   UNL     1       6.228  -3.305  24.087  0.00  0.00    +0.026 A 
ATOM     13  C   UNL     1       5.512  -2.934  25.244  0.00  0.00    +0.012 A 
ATOM     14  C   UNL     1       4.164  -3.259  25.409  0.00  0.00    +0.001 A 
ATOM     15  C   UNL     1       3.506  -4.004  24.443  0.00  0.00    +0.004 A 
ATOM     16  C   UNL     1       4.188  -4.389  23.292  0.00  0.00    +0.046 A 
BRANCH  11  18
ATOM     17  C   UNL     1       6.470  -5.665  21.659  0.00  0.00    +0.277 C 
ATOM     18  O   UNL     1       6.168  -4.293  21.898  0.00  0.00    -0.495 OA
ENDBRANCH  11  18
ENDBRANCH   1  12
BRANCH   4  19
ATOM     19  C   UNL     1       8.206   2.070  22.936  0.00  0.00    +0.002 A 
ATOM     20  C   UNL     1       7.062   2.369  22.203  0.00  0.00    +0.119 A 
ATOM     21  N   UNL     1       6.550   3.618  22.041  0.00  0.00    -0.262 NA
ATOM     22  C   UNL     1       7.210   4.643  22.644  0.00  0.00    +0.123 A 
ATOM     23  C   UNL     1       8.400   4.497  23.329  0.00  0.00    +0.056 A 
ATOM     24  C   UNL     1       8.879   3.184  23.475  0.00  0.00    +0.024 A 
BRANCH  23  25
ATOM     25  C   UNL     1       9.136   5.575  24.040  0.00  0.00    +0.248 C 
ATOM     26  N   UNL     1       8.912   5.930  25.371  0.00  0.00    -0.304 N 
ATOM     27  C   UNL     1       9.675   7.050  25.908  0.00  0.00    +0.132 C 
ATOM     28  C   UNL     1       7.939   5.371  26.306  0.00  0.00    +0.132 C 
ATOM     29  O   UNL     1       9.961   6.187  23.352  0.00  0.00    -0.270 OA
ENDBRANCH  23  25
ENDBRANCH   4  19
TORSDOF 4
ENDMDL
MODEL 9
REMARK VINA RESULT:      -7.2      3.318      4.525
REMARK  Name = 
REMARK  7 active torsions:
REMARK  status: ('A' for Active; 'I' for Inactive)
REMARK    1  A    between atoms: C_1  and  O_2
REMARK    2  A    between atoms: O_2  and  C_3
REMARK    3  A    between atoms: C_8  and  C_9
REMARK    4  A    between atoms: C_15  and  C_18
REMARK    5  A    between atoms: C_20  and  C_24
REMARK    6  A    between atoms: N_26  and  C_27
REMARK    7  A    between atoms: N_26  and  C_28
REMARK                            x       y       z     vdW  Elec       q    Type
REMARK                         _______ _______ _______ _____ _____    ______ ____
ROOT
ATOM      1  C   UNL     1       8.576   2.327  23.356  0.00  0.00    +0.012 A 
ATOM      2  C   UNL     1       8.496   0.925  23.059  0.00  0.00    +0.027 A 
ATOM      3  C   UNL     1       7.728  -0.167  23.503  0.00  0.00    +0.022 A 
ATOM      4  C   UNL     1       7.787  -1.397  22.823  0.00  0.00    +0.002 A 
ATOM      5  C   UNL     1       8.742  -1.483  21.804  0.00  0.00    +0.121 A 
ATOM      6  N   UNL     1       9.605  -0.510  21.402  0.00  0.00    -0.237 NA
ATOM      7  C   UNL     1       9.412   0.654  22.046  0.00  0.00    +0.139 A 
ATOM      8  N   UNL     1      10.114   1.801  21.807  0.00  0.00    -0.345 N 
ATOM      9  H   UNL     1      10.860   1.868  21.129  0.00  0.00    +0.167 HD
ATOM     10  C   UNL     1       9.619   2.820  22.580  0.00  0.00    +0.093 A 
ENDROOT
BRANCH   1  12
ATOM     11  C   UNL     1       6.924   4.220  23.784  0.00  0.00    +0.128 A 
ATOM     12  C   UNL     1       7.768   3.179  24.247  0.00  0.00    +0.026 A 
ATOM     13  C   UNL     1       7.860   2.986  25.640  0.00  0.00    +0.012 A 
ATOM     14  C   UNL     1       7.136   3.770  26.540  0.00  0.00    +0.001 A 
ATOM     15  C   UNL     1       6.265   4.742  26.070  0.00  0.00    +0.004 A 
ATOM     16  C   UNL     1       6.149   4.952  24.699  0.00  0.00    +0.046 A 
BRANCH  11  18
ATOM     17  C   UNL     1       7.286   5.813  22.056  0.00  0.00    +0.277 C 
ATOM     18  O   UNL     1       6.894   4.497  22.438  0.00  0.00    -0.495 OA
ENDBRANCH  11  18
ENDBRANCH   1  12
BRANCH   4  19
ATOM     19  C   UNL     1       6.847  -2.486  23.161  0.00  0.00    +0.002 A 
ATOM     20  C   UNL     1       5.802  -2.894  22.338  0.00  0.00    +0.119 A 
ATOM     21  N   UNL     1       4.977  -3.944  22.597  0.00  0.00    -0.262 NA
ATOM     22  C   UNL     1       5.198  -4.640  23.744  0.00  0.00    +0.123 A 
ATOM     23  C   UNL     1       6.145  -4.292  24.687  0.00  0.00    +0.056 A 
ATOM     24  C   UNL     1       6.976  -3.205  24.366  0.00  0.00    +0.024 A 
BRANCH  23  25
ATOM     25  C   UNL     1       6.453  -5.041  25.933  0.00  0.00    +0.248 C 
ATOM     26  N   UNL     1       5.682  -4.982  27.094  0.00  0.00    -0.304 N 
ATOM     27  C   UNL     1       6.150  -5.731  28.254  0.00  0.00    +0.132 C 
ATOM     28  C   UNL     1       4.479  -4.192  27.343  0.00  0.00    +0.132 C 
ATOM     29  O   UNL     1       7.489  -5.717  25.895  0.00  0.00    -0.270 OA
ENDBRANCH  23  25
ENDBRANCH   4  19
TORSDOF 4
ENDMDL
