MODEL 1
REMARK VINA RESULT:      -6.5      0.000      0.000
REMARK  Name = 
REMARK  5 active torsions:
REMARK  status: ('A' for Active; 'I' for Inactive)
REMARK    1  A    between atoms: C_1  and  C_2
REMARK    2  A    between atoms: C_2  and  C_3
REMARK    3  A    between atoms: C_3  and  O_4
REMARK    4  A    between atoms: O_4  and  C_5
REMARK    5  A    between atoms: C_10  and  C_11
REMARK                            x       y       z     vdW  Elec       q    Type
REMARK                         _______ _______ _______ _____ _____    ______ ____
ROOT
ATOM      1  C   UNL     1       8.743  -1.574  22.653  0.00  0.00    +0.133 A 
ATOM      2  C   UNL     1       9.270  -0.762  21.638  0.00  0.00    +0.066 A 
ATOM      3  C   UNL     1       9.844   0.451  21.971  0.00  0.00    +0.117 A 
ATOM      4  N   UNL     1       9.926   0.955  23.216  0.00  0.00    -0.237 NA
ATOM      5  C   UNL     1       9.467   0.113  24.159  0.00  0.00    +0.142 A 
ATOM      6  N   UNL     1       9.452   0.436  25.485  0.00  0.00    -0.345 N 
ATOM      7  H   UNL     1       9.754   1.330  25.840  0.00  0.00    +0.167 HD
ATOM      8  C   UNL     1       9.010  -0.629  26.216  0.00  0.00    +0.095 A 
ATOM      9  C   UNL     1       8.735  -1.677  25.346  0.00  0.00    +0.031 A 
ATOM     10  C   UNL     1       8.932  -1.167  24.003  0.00  0.00    +0.069 A 
ENDROOT
BRANCH   9  11
ATOM     11  C   UNL     1       8.354  -3.000  25.845  0.00  0.00    +0.078 A 
ATOM     12  C   UNL     1       7.204  -3.186  26.586  0.00  0.00    +0.048 A 
ATOM     13  C   UNL     1       6.942  -4.476  26.973  0.00  0.00    +0.116 A 
ATOM     14  N   UNL     1       7.721  -5.519  26.647  0.00  0.00    -0.223 NA
ATOM     15  C   UNL     1       8.817  -5.242  25.937  0.00  0.00    +0.213 A 
ATOM     16  N   UNL     1       9.551  -6.319  25.481  0.00  0.00    -0.327 N 
ATOM     17  H   UNL     1       8.968  -7.145  25.503  0.00  0.00    +0.145 HD
ATOM     18  H   UNL     1       9.969  -6.082  24.590  0.00  0.00    +0.145 HD
ATOM     19  N   UNL     1       9.174  -4.021  25.527  0.00  0.00    -0.215 NA
ENDBRANCH   9  11
BRANCH   1  20
ATOM     20  O   UNL     1       8.096  -2.705  22.173  0.00  0.00    -0.491 OA
BRANCH  20  21
ATOM     21  C   UNL     1       6.699  -2.762  22.445  0.00  0.00    +0.229 C 
BRANCH  21  23
ATOM     22  C   UNL     1       7.310  -5.162  22.558  0.00  0.00    +0.007 C 
ATOM     23  C   UNL     1       6.273  -4.124  22.972  0.00  0.00    +0.038 C 
ENDBRANCH  21  23
ENDBRANCH  20  21
ENDBRANCH   1  20
TORSDOF 4
ENDMDL
MODEL 2
REMARK VINA RESULT:      -6.2      1.985      3.174
REMARK  Name = 
REMARK  5 active torsions:
REMARK  status: ('A' for Active; 'I' for Inactive)
REMARK    1  A    between atoms: C_1  and  C_2
REMARK    2  A    between atoms: C_2  and  C_3
REMARK    3  A    between atoms: C_3  and  O_4
REMARK    4  A    between atoms: O_4  and  C_5
REMARK    5  A    between atoms: C_10  and  C_11
REMARK                            x       y       z     vdW  Elec       q    Type
REMARK                         _______ _______ _______ _____ _____    ______ ____
ROOT
ATOM      1  C   UNL     1       7.098   0.197  23.408  0.00  0.00    +0.133 A 
ATOM      2  C   UNL     1       6.716   1.401  22.800  0.00  0.00    +0.066 A 
ATOM      3  C   UNL     1       7.505   1.934  21.797  0.00  0.00    +0.117 A 
ATOM      4  N   UNL     1       8.657   1.401  21.352  0.00  0.00    -0.237 NA
ATOM      5  C   UNL     1       8.947   0.216  21.919  0.00  0.00    +0.142 A 
ATOM      6  N   UNL     1      10.076  -0.486  21.613  0.00  0.00    -0.345 N 
ATOM      7  H   UNL     1      10.777  -0.153  20.968  0.00  0.00    +0.167 HD
ATOM      8  C   UNL     1      10.073  -1.680  22.274  0.00  0.00    +0.095 A 
ATOM      9  C   UNL     1       8.908  -1.762  23.027  0.00  0.00    +0.031 A 
ATOM     10  C   UNL     1       8.225  -0.492  22.881  0.00  0.00    +0.069 A 
ENDROOT
BRANCH   9  11
ATOM     11  C   UNL     1       8.560  -2.983  23.759  0.00  0.00    +0.078 A 
ATOM     12  C   UNL     1       7.272  -3.481  23.756  0.00  0.00    +0.048 A 
ATOM     13  C   UNL     1       7.078  -4.645  24.456  0.00  0.00    +0.116 A 
ATOM     14  N   UNL     1       8.063  -5.298  25.093  0.00  0.00    -0.223 NA
ATOM     15  C   UNL     1       9.273  -4.737  25.048  0.00  0.00    +0.213 A 
ATOM     16  N   UNL     1      10.317  -5.467  25.582  0.00  0.00    -0.327 N 
ATOM     17  H   UNL     1      10.040  -6.437  25.644  0.00  0.00    +0.145 HD
ATOM     18  H   UNL     1      11.161  -5.268  25.060  0.00  0.00    +0.145 HD
ATOM     19  N   UNL     1       9.565  -3.598  24.413  0.00  0.00    -0.215 NA
ENDBRANCH   9  11
BRANCH   1  20
ATOM     20  O   UNL     1       6.283  -0.165  24.473  0.00  0.00    -0.491 OA
BRANCH  20  21
ATOM     21  C   UNL     1       6.764   0.219  25.758  0.00  0.00    +0.229 C 
BRANCH  21  23
ATOM     22  C   UNL     1       8.729  -0.885  26.792  0.00  0.00    +0.007 C 
ATOM     23  C   UNL     1       7.222  -0.977  26.579  0.00  0.00    +0.038 C 
ENDBRANCH  21  23
ENDBRANCH  20  21
ENDBRANCH   1  20
TORSDOF 4
ENDMDL
MODEL 3
REMARK VINA RESULT:      -6.2      1.745      5.064
REMARK  Name = 
REMARK  5 active torsions:
REMARK  status: ('A' for Active; 'I' for Inactive)
REMARK    1  A    between atoms: C_1  and  C_2
REMARK    2  A    between atoms: C_2  and  C_3
REMARK    3  A    between atoms: C_3  and  O_4
REMARK    4  A    between atoms: O_4  and  C_5
REMARK    5  A    between atoms: C_10  and  C_11
REMARK                            x       y       z     vdW  Elec       q    Type
REMARK                         _______ _______ _______ _____ _____    ______ ____
ROOT
ATOM      1  C   UNL     1       5.765  -4.328  24.734  0.00  0.00    +0.133 A 
ATOM      2  C   UNL     1       4.688  -5.147  25.100  0.00  0.00    +0.066 A 
ATOM      3  C   UNL     1       4.874  -6.119  26.066  0.00  0.00    +0.117 A 
ATOM      4  N   UNL     1       6.037  -6.378  26.691  0.00  0.00    -0.237 NA
ATOM      5  C   UNL     1       7.021  -5.526  26.355  0.00  0.00    +0.142 A 
ATOM      6  N   UNL     1       8.282  -5.622  26.869  0.00  0.00    -0.345 N 
ATOM      7  H   UNL     1       8.564  -6.349  27.508  0.00  0.00    +0.167 HD
ATOM      8  C   UNL     1       9.047  -4.587  26.415  0.00  0.00    +0.095 A 
ATOM      9  C   UNL     1       8.264  -3.790  25.588  0.00  0.00    +0.031 A 
ATOM     10  C   UNL     1       6.981  -4.452  25.464  0.00  0.00    +0.069 A 
ENDROOT
BRANCH   9  11
ATOM     11  C   UNL     1       8.775  -2.531  25.041  0.00  0.00    +0.078 A 
ATOM     12  C   UNL     1       8.867  -1.393  25.819  0.00  0.00    +0.048 A 
ATOM     13  C   UNL     1       9.386  -0.284  25.199  0.00  0.00    +0.116 A 
ATOM     14  N   UNL     1       9.809  -0.279  23.925  0.00  0.00    -0.223 NA
ATOM     15  C   UNL     1       9.672  -1.422  23.249  0.00  0.00    +0.213 A 
ATOM     16  N   UNL     1      10.228  -1.467  21.985  0.00  0.00    -0.327 N 
ATOM     17  H   UNL     1      10.911  -0.727  21.902  0.00  0.00    +0.145 HD
ATOM     18  H   UNL     1      10.551  -2.407  21.799  0.00  0.00    +0.145 HD
ATOM     19  N   UNL     1       9.162  -2.550  23.751  0.00  0.00    -0.215 NA
ENDBRANCH   9  11
BRANCH   1  20
ATOM     20  O   UNL     1       5.475  -3.475  23.678  0.00  0.00    -0.491 OA
BRANCH  20  21
ATOM     21  C   UNL     1       5.398  -4.101  22.401  0.00  0.00    +0.229 C 
BRANCH  21  23
ATOM     22  C   UNL     1       6.745  -5.991  21.527  0.00  0.00    +0.007 C 
ATOM     23  C   UNL     1       6.769  -4.509  21.879  0.00  0.00    +0.038 C 
ENDBRANCH  21  23
ENDBRANCH  20  21
ENDBRANCH   1  20
TORSDOF 4
ENDMDL
MODEL 4
REMARK VINA RESULT:      -6.2      1.903      3.285
REMARK  Name = 
REMARK  5 active torsions:
REMARK  status: ('A' for Active; 'I' for Inactive)
REMARK    1  A    between atoms: C_1  and  C_2
REMARK    2  A    between atoms: C_2  and  C_3
REMARK    3  A    between atoms: C_3  and  O_4
REMARK    4  A    between atoms: O_4  and  C_5
REMARK    5  A    between atoms: C_10  and  C_11
REMARK                            x       y       z     vdW  Elec       q    Type
REMARK                         _______ _______ _______ _____ _____    ______ ____
ROOT
ATOM      1  C   UNL     1       9.584   0.326  24.575  0.00  0.00    +0.133 A 
ATOM      2  C   UNL     1       9.719   1.720  24.498  0.00  0.00    +0.066 A 
ATOM      3  C   UNL     1       9.821   2.322  23.257  0.00  0.00    +0.117 A 
ATOM      4  N   UNL     1       9.827   1.673  22.078  0.00  0.00    -0.237 NA
ATOM      5  C   UNL     1       9.630   0.348  22.202  0.00  0.00    +0.142 A 
ATOM      6  N   UNL     1       9.611  -0.493  21.127  0.00  0.00    -0.345 N 
ATOM      7  H   UNL     1       9.771  -0.185  20.181  0.00  0.00    +0.167 HD
ATOM      8  C   UNL     1       9.316  -1.761  21.537  0.00  0.00    +0.095 A 
ATOM      9  C   UNL     1       9.130  -1.746  22.914  0.00  0.00    +0.031 A 
ATOM     10  C   UNL     1       9.434  -0.402  23.363  0.00  0.00    +0.069 A 
ENDROOT
BRANCH   9  11
ATOM     11  C   UNL     1       8.683  -2.942  23.634  0.00  0.00    +0.078 A 
ATOM     12  C   UNL     1       7.380  -3.390  23.545  0.00  0.00    +0.048 A 
ATOM     13  C   UNL     1       7.091  -4.535  24.244  0.00  0.00    +0.116 A 
ATOM     14  N   UNL     1       8.002  -5.215  24.959  0.00  0.00    -0.223 NA
ATOM     15  C   UNL     1       9.233  -4.700  24.994  0.00  0.00    +0.213 A 
ATOM     16  N   UNL     1      10.206  -5.461  25.611  0.00  0.00    -0.327 N 
ATOM     17  H   UNL     1       9.888  -6.419  25.666  0.00  0.00    +0.145 HD
ATOM     18  H   UNL     1      11.093  -5.302  25.149  0.00  0.00    +0.145 HD
ATOM     19  N   UNL     1       9.613  -3.583  24.368  0.00  0.00    -0.215 NA
ENDBRANCH   9  11
BRANCH   1  20
ATOM     20  O   UNL     1       9.608  -0.158  25.877  0.00  0.00    -0.491 OA
BRANCH  20  21
ATOM     21  C   UNL     1       8.350  -0.157  26.544  0.00  0.00    +0.229 C 
BRANCH  21  23
ATOM     22  C   UNL     1       6.287  -1.530  26.632  0.00  0.00    +0.007 C 
ATOM     23  C   UNL     1       7.807  -1.565  26.743  0.00  0.00    +0.038 C 
ENDBRANCH  21  23
ENDBRANCH  20  21
ENDBRANCH   1  20
TORSDOF 4
ENDMDL
MODEL 5
REMARK VINA RESULT:      -5.8      1.622      5.282
REMARK  Name = 
REMARK  5 active torsions:
REMARK  status: ('A' for Active; 'I' for Inactive)
REMARK    1  A    between atoms: C_1  and  C_2
REMARK    2  A    between atoms: C_2  and  C_3
REMARK    3  A    between atoms: C_3  and  O_4
REMARK    4  A    between atoms: O_4  and  C_5
REMARK    5  A    between atoms: C_10  and  C_11
REMARK                            x       y       z     vdW  Elec       q    Type
REMARK                         _______ _______ _______ _____ _____    ______ ____
ROOT
ATOM      1  C   UNL     1       6.535  -3.233  26.279  0.00  0.00    +0.133 A 
ATOM      2  C   UNL     1       5.795  -3.804  27.325  0.00  0.00    +0.066 A 
ATOM      3  C   UNL     1       6.243  -4.972  27.914  0.00  0.00    +0.117 A 
ATOM      4  N   UNL     1       7.348  -5.649  27.550  0.00  0.00    -0.237 NA
ATOM      5  C   UNL     1       8.057  -5.030  26.589  0.00  0.00    +0.142 A 
ATOM      6  N   UNL     1       9.206  -5.555  26.072  0.00  0.00    -0.345 N 
ATOM      7  H   UNL     1       9.580  -6.448  26.352  0.00  0.00    +0.167 HD
ATOM      8  C   UNL     1       9.752  -4.682  25.177  0.00  0.00    +0.095 A 
ATOM      9  C   UNL     1       8.943  -3.554  25.112  0.00  0.00    +0.031 A 
ATOM     10  C   UNL     1       7.789  -3.819  25.948  0.00  0.00    +0.069 A 
ENDROOT
BRANCH   9  11
ATOM     11  C   UNL     1       9.332  -2.384  24.321  0.00  0.00    +0.078 A 
ATOM     12  C   UNL     1       9.310  -2.409  22.940  0.00  0.00    +0.048 A 
ATOM     13  C   UNL     1       9.671  -1.242  22.314  0.00  0.00    +0.116 A 
ATOM     14  N   UNL     1      10.004  -0.121  22.974  0.00  0.00    -0.223 NA
ATOM     15  C   UNL     1      10.006  -0.195  24.306  0.00  0.00    +0.213 A 
ATOM     16  N   UNL     1      10.213   0.985  24.993  0.00  0.00    -0.327 N 
ATOM     17  H   UNL     1      10.027   1.762  24.374  0.00  0.00    +0.145 HD
ATOM     18  H   UNL     1       9.692   0.959  25.860  0.00  0.00    +0.145 HD
ATOM     19  N   UNL     1       9.691  -1.285  25.012  0.00  0.00    -0.215 NA
ENDBRANCH   9  11
BRANCH   1  20
ATOM     20  O   UNL     1       5.917  -2.132  25.704  0.00  0.00    -0.491 OA
BRANCH  20  21
ATOM     21  C   UNL     1       5.691  -2.232  24.301  0.00  0.00    +0.229 C 
BRANCH  21  23
ATOM     22  C   UNL     1       5.305  -4.123  22.744  0.00  0.00    +0.007 C 
ATOM     23  C   UNL     1       4.751  -3.376  23.952  0.00  0.00    +0.038 C 
ENDBRANCH  21  23
ENDBRANCH  20  21
ENDBRANCH   1  20
TORSDOF 4
ENDMDL
MODEL 6
REMARK VINA RESULT:      -5.7      3.466      4.894
REMARK  Name = 
REMARK  5 active torsions:
REMARK  status: ('A' for Active; 'I' for Inactive)
REMARK    1  A    between atoms: C_1  and  C_2
REMARK    2  A    between atoms: C_2  and  C_3
REMARK    3  A    between atoms: C_3  and  O_4
REMARK    4  A    between atoms: O_4  and  C_5
REMARK    5  A    between atoms: C_10  and  C_11
REMARK                            x       y       z     vdW  Elec       q    Type
REMARK                         _______ _______ _______ _____ _____    ______ ____
ROOT
ATOM      1  C   UNL     1       6.592  -3.478  23.882  0.00  0.00    +0.133 A 
ATOM      2  C   UNL     1       6.579  -2.922  22.596  0.00  0.00    +0.066 A 
ATOM      3  C   UNL     1       5.991  -3.624  21.560  0.00  0.00    +0.117 A 
ATOM      4  N   UNL     1       5.434  -4.844  21.669  0.00  0.00    -0.237 NA
ATOM      5  C   UNL     1       5.413  -5.307  22.932  0.00  0.00    +0.142 A 
ATOM      6  N   UNL     1       4.900  -6.529  23.256  0.00  0.00    -0.345 N 
ATOM      7  H   UNL     1       4.532  -7.173  22.574  0.00  0.00    +0.167 HD
ATOM      8  C   UNL     1       4.939  -6.702  24.610  0.00  0.00    +0.095 A 
ATOM      9  C   UNL     1       5.485  -5.561  25.184  0.00  0.00    +0.031 A 
ATOM     10  C   UNL     1       5.889  -4.696  24.093  0.00  0.00    +0.069 A 
ENDROOT
BRANCH   9  11
ATOM     11  C   UNL     1       5.548  -5.398  26.639  0.00  0.00    +0.078 A 
ATOM     12  C   UNL     1       5.003  -4.293  27.263  0.00  0.00    +0.048 A 
ATOM     13  C   UNL     1       5.102  -4.268  28.632  0.00  0.00    +0.116 A 
ATOM     14  N   UNL     1       5.664  -5.253  29.350  0.00  0.00    -0.223 NA
ATOM     15  C   UNL     1       6.172  -6.276  28.660  0.00  0.00    +0.213 A 
ATOM     16  N   UNL     1       6.628  -7.354  29.393  0.00  0.00    -0.327 N 
ATOM     17  H   UNL     1       6.223  -7.317  30.318  0.00  0.00    +0.145 HD
ATOM     18  H   UNL     1       6.475  -8.203  28.863  0.00  0.00    +0.145 HD
ATOM     19  N   UNL     1       6.146  -6.388  27.329  0.00  0.00    -0.215 NA
ENDBRANCH   9  11
BRANCH   1  20
ATOM     20  O   UNL     1       7.311  -2.725  24.801  0.00  0.00    -0.491 OA
BRANCH  20  21
ATOM     21  C   UNL     1       8.685  -3.078  24.928  0.00  0.00    +0.229 C 
BRANCH  21  23
ATOM     22  C   UNL     1       9.348  -5.412  25.437  0.00  0.00    +0.007 C 
ATOM     23  C   UNL     1       8.917  -4.083  26.046  0.00  0.00    +0.038 C 
ENDBRANCH  21  23
ENDBRANCH  20  21
ENDBRANCH   1  20
TORSDOF 4
ENDMDL
MODEL 7
REMARK VINA RESULT:      -5.6      4.093      7.454
REMARK  Name = 
REMARK  5 active torsions:
REMARK  status: ('A' for Active; 'I' for Inactive)
REMARK    1  A    between atoms: C_1  and  C_2
REMARK    2  A    between atoms: C_2  and  C_3
REMARK    3  A    between atoms: C_3  and  O_4
REMARK    4  A    between atoms: O_4  and  C_5
REMARK    5  A    between atoms: C_10  and  C_11
REMARK                            x       y       z     vdW  Elec       q    Type
REMARK                         _______ _______ _______ _____ _____    ______ ____
ROOT
ATOM      1  C   UNL     1       9.294   1.117  22.311  0.00  0.00    +0.133 A 
ATOM      2  C   UNL     1       9.758  -0.052  21.692  0.00  0.00    +0.066 A 
ATOM      3  C   UNL     1       9.013  -1.213  21.792  0.00  0.00    +0.117 A 
ATOM      4  N   UNL     1       7.859  -1.337  22.472  0.00  0.00    -0.237 NA
ATOM      5  C   UNL     1       7.423  -0.175  22.993  0.00  0.00    +0.142 A 
ATOM      6  N   UNL     1       6.276  -0.086  23.727  0.00  0.00    -0.345 N 
ATOM      7  H   UNL     1       5.699  -0.882  23.951  0.00  0.00    +0.167 HD
ATOM      8  C   UNL     1       6.040   1.216  24.060  0.00  0.00    +0.095 A 
ATOM      9  C   UNL     1       7.055   1.999  23.523  0.00  0.00    +0.031 A 
ATOM     10  C   UNL     1       8.008   1.090  22.918  0.00  0.00    +0.069 A 
ENDROOT
BRANCH   9  11
ATOM     11  C   UNL     1       7.014   3.461  23.609  0.00  0.00    +0.078 A 
ATOM     12  C   UNL     1       6.863   4.106  24.821  0.00  0.00    +0.048 A 
ATOM     13  C   UNL     1       6.867   5.477  24.775  0.00  0.00    +0.116 A 
ATOM     14  N   UNL     1       7.032   6.178  23.642  0.00  0.00    -0.223 NA
ATOM     15  C   UNL     1       7.162   5.470  22.519  0.00  0.00    +0.213 A 
ATOM     16  N   UNL     1       7.467   6.175  21.371  0.00  0.00    -0.327 N 
ATOM     17  H   UNL     1       7.842   7.077  21.631  0.00  0.00    +0.145 HD
ATOM     18  H   UNL     1       8.044   5.598  20.773  0.00  0.00    +0.145 HD
ATOM     19  N   UNL     1       7.151   4.135  22.451  0.00  0.00    -0.215 NA
ENDBRANCH   9  11
BRANCH   1  20
ATOM     20  O   UNL     1      10.189   2.176  22.230  0.00  0.00    -0.491 OA
BRANCH  20  21
ATOM     21  C   UNL     1      10.645   2.678  23.483  0.00  0.00    +0.229 C 
BRANCH  21  23
ATOM     22  C   UNL     1      10.574   5.136  23.798  0.00  0.00    +0.007 C 
ATOM     23  C   UNL     1      11.435   3.969  23.329  0.00  0.00    +0.038 C 
ENDBRANCH  21  23
ENDBRANCH  20  21
ENDBRANCH   1  20
TORSDOF 4
ENDMDL
MODEL 8
REMARK VINA RESULT:      -5.5      2.133      3.539
REMARK  Name = 
REMARK  5 active torsions:
REMARK  status: ('A' for Active; 'I' for Inactive)
REMARK    1  A    between atoms: C_1  and  C_2
REMARK    2  A    between atoms: C_2  and  C_3
REMARK    3  A    between atoms: C_3  and  O_4
REMARK    4  A    between atoms: O_4  and  C_5
REMARK    5  A    between atoms: C_10  and  C_11
REMARK                            x       y       z     vdW  Elec       q    Type
REMARK                         _______ _______ _______ _____ _____    ______ ____
ROOT
ATOM      1  C   UNL     1       9.009   0.530  24.756  0.00  0.00    +0.133 A 
ATOM      2  C   UNL     1       8.876   1.923  24.855  0.00  0.00    +0.066 A 
ATOM      3  C   UNL     1       8.948   2.693  23.708  0.00  0.00    +0.117 A 
ATOM      4  N   UNL     1       9.166   2.218  22.468  0.00  0.00    -0.237 NA
ATOM      5  C   UNL     1       9.222   0.875  22.417  0.00  0.00    +0.142 A 
ATOM      6  N   UNL     1       9.445   0.195  21.255  0.00  0.00    -0.345 N 
ATOM      7  H   UNL     1       9.610   0.650  20.370  0.00  0.00    +0.167 HD
ATOM      8  C   UNL     1       9.373  -1.149  21.484  0.00  0.00    +0.095 A 
ATOM      9  C   UNL     1       9.089  -1.351  22.829  0.00  0.00    +0.031 A 
ATOM     10  C   UNL     1       9.092  -0.045  23.458  0.00  0.00    +0.069 A 
ENDROOT
BRANCH   9  11
ATOM     11  C   UNL     1       8.832  -2.693  23.358  0.00  0.00    +0.078 A 
ATOM     12  C   UNL     1       9.559  -3.200  24.417  0.00  0.00    +0.048 A 
ATOM     13  C   UNL     1       9.206  -4.458  24.839  0.00  0.00    +0.116 A 
ATOM     14  N   UNL     1       8.205  -5.166  24.294  0.00  0.00    -0.223 NA
ATOM     15  C   UNL     1       7.564  -4.599  23.270  0.00  0.00    +0.213 A 
ATOM     16  N   UNL     1       6.448  -5.258  22.793  0.00  0.00    -0.327 N 
ATOM     17  H   UNL     1       6.125  -5.907  23.497  0.00  0.00    +0.145 HD
ATOM     18  H   UNL     1       5.778  -4.576  22.461  0.00  0.00    +0.145 HD
ATOM     19  N   UNL     1       7.841  -3.391  22.770  0.00  0.00    -0.215 NA
ENDBRANCH   9  11
BRANCH   1  20
ATOM     20  O   UNL     1       9.032  -0.109  25.989  0.00  0.00    -0.491 OA
BRANCH  20  21
ATOM     21  C   UNL     1       7.771  -0.198  26.646  0.00  0.00    +0.229 C 
BRANCH  21  23
ATOM     22  C   UNL     1       6.059  -1.575  25.497  0.00  0.00    +0.007 C 
ATOM     23  C   UNL     1       7.168  -1.591  26.542  0.00  0.00    +0.038 C 
ENDBRANCH  21  23
ENDBRANCH  20  21
ENDBRANCH   1  20
TORSDOF 4
ENDMDL
MODEL 9
REMARK VINA RESULT:      -5.5      2.113      3.610
REMARK  Name = 
REMARK  5 active torsions:
REMARK  status: ('A' for Active; 'I' for Inactive)
REMARK    1  A    between atoms: C_1  and  C_2
REMARK    2  A    between atoms: C_2  and  C_3
REMARK    3  A    between atoms: C_3  and  O_4
REMARK    4  A    between atoms: O_4  and  C_5
REMARK    5  A    between atoms: C_10  and  C_11
REMARK                            x       y       z     vdW  Elec       q    Type
REMARK                         _______ _______ _______ _____ _____    ______ ____
ROOT
ATOM      1  C   UNL     1       8.529  -0.491  24.925  0.00  0.00    +0.133 A 
ATOM      2  C   UNL     1       9.098   0.715  25.358  0.00  0.00    +0.066 A 
ATOM      3  C   UNL     1       9.935   1.413  24.507  0.00  0.00    +0.117 A 
ATOM      4  N   UNL     1      10.287   1.019  23.269  0.00  0.00    -0.237 NA
ATOM      5  C   UNL     1       9.666  -0.108  22.876  0.00  0.00    +0.142 A 
ATOM      6  N   UNL     1       9.890  -0.681  21.658  0.00  0.00    -0.345 N 
ATOM      7  H   UNL     1      10.552  -0.319  20.989  0.00  0.00    +0.167 HD
ATOM      8  C   UNL     1       9.073  -1.762  21.498  0.00  0.00    +0.095 A 
ATOM      9  C   UNL     1       8.289  -1.894  22.637  0.00  0.00    +0.031 A 
ATOM     10  C   UNL     1       8.742  -0.886  23.575  0.00  0.00    +0.069 A 
ENDROOT
BRANCH   9  11
ATOM     11  C   UNL     1       7.224  -2.898  22.716  0.00  0.00    +0.078 A 
ATOM     12  C   UNL     1       5.937  -2.554  23.081  0.00  0.00    +0.048 A 
ATOM     13  C   UNL     1       5.024  -3.578  23.092  0.00  0.00    +0.116 A 
ATOM     14  N   UNL     1       5.324  -4.841  22.750  0.00  0.00    -0.223 NA
ATOM     15  C   UNL     1       6.595  -5.080  22.420  0.00  0.00    +0.213 A 
ATOM     16  N   UNL     1       6.885  -6.341  21.937  0.00  0.00    -0.327 N 
ATOM     17  H   UNL     1       6.028  -6.778  21.627  0.00  0.00    +0.145 HD
ATOM     18  H   UNL     1       7.632  -6.272  21.258  0.00  0.00    +0.145 HD
ATOM     19  N   UNL     1       7.565  -4.161  22.397  0.00  0.00    -0.215 NA
ENDBRANCH   9  11
BRANCH   1  20
ATOM     20  O   UNL     1       7.805  -1.144  25.914  0.00  0.00    -0.491 OA
BRANCH  20  21
ATOM     21  C   UNL     1       8.355  -2.386  26.343  0.00  0.00    +0.229 C 
BRANCH  21  23
ATOM     22  C   UNL     1       7.983  -4.816  26.669  0.00  0.00    +0.007 C 
ATOM     23  C   UNL     1       7.295  -3.471  26.461  0.00  0.00    +0.038 C 
ENDBRANCH  21  23
ENDBRANCH  20  21
ENDBRANCH   1  20
TORSDOF 4
ENDMDL
