MODEL 1
REMARK VINA RESULT:      -5.3      0.000      0.000
REMARK  Name = 
REMARK  8 active torsions:
REMARK  status: ('A' for Active; 'I' for Inactive)
REMARK    1  A    between atoms: C_2  and  N_8
REMARK    2  A    between atoms: C_9  and  C_11
REMARK    3  A    between atoms: C_11  and  C_12
REMARK    4  A    between atoms: C_12  and  C_14
REMARK    5  A    between atoms: C_14  and  C_15
REMARK    6  A    between atoms: C_15  and  C_16
REMARK    7  A    between atoms: C_16  and  C_17
REMARK    8  A    between atoms: C_17  and  C_18
REMARK                            x       y       z     vdW  Elec       q    Type
REMARK                         _______ _______ _______ _____ _____    ______ ____
ROOT
ATOM      1  N   UNL     1       8.134  -3.473  23.086  0.00  0.00    -0.302 N 
ATOM      2  H   UNL     1       8.460  -4.081  23.839  0.00  0.00    +0.150 HD
ATOM      3  C   UNL     1       8.869  -2.354  22.788  0.00  0.00    +0.221 C 
ATOM      4  O   UNL     1       8.703  -1.705  21.758  0.00  0.00    -0.275 OA
ENDROOT
BRANCH   1   5
ATOM      5  C   UNL     1       7.172  -4.007  22.140  0.00  0.00    +0.185 C 
ATOM      6  C   UNL     1       5.730  -3.795  22.561  0.00  0.00    +0.328 C 
ATOM      7  O   UNL     1       5.276  -2.800  23.103  0.00  0.00    -0.249 OA
ATOM      8  O   UNL     1       4.985  -4.893  22.228  0.00  0.00    -0.463 OA
ATOM      9  C   UNL     1       5.829  -5.867  21.612  0.00  0.00    +0.234 C 
ATOM     10  C   UNL     1       7.234  -5.513  22.021  0.00  0.00    +0.075 C 
ENDBRANCH   1   5
BRANCH   3  11
ATOM     11  C   UNL     1       9.846  -1.917  23.845  0.00  0.00    +0.170 C 
BRANCH  11  12
ATOM     12  C   UNL     1       9.239  -1.197  25.024  0.00  0.00    +0.142 C 
ATOM     13  O   UNL     1       8.392  -1.731  25.743  0.00  0.00    -0.297 OA
BRANCH  12  14
ATOM     14  C   UNL     1       9.685   0.234  25.269  0.00  0.00    +0.075 C 
BRANCH  14  15
ATOM     15  C   UNL     1      10.774   0.647  24.283  0.00  0.00    +0.007 C 
BRANCH  15  16
ATOM     16  C   UNL     1      10.401   1.907  23.504  0.00  0.00    +0.000 C 
BRANCH  16  17
ATOM     17  C   UNL     1      10.010   1.554  22.069  0.00  0.00    -0.003 C 
ATOM     18  C   UNL     1       8.546   1.846  21.791  0.00  0.00    +0.004 C 
ENDBRANCH  16  17
ENDBRANCH  15  16
ENDBRANCH  14  15
ENDBRANCH  12  14
ENDBRANCH  11  12
ENDBRANCH   3  11
TORSDOF 7
ENDMDL
MODEL 2
REMARK VINA RESULT:      -5.3      1.832      3.052
REMARK  Name = 
REMARK  8 active torsions:
REMARK  status: ('A' for Active; 'I' for Inactive)
REMARK    1  A    between atoms: C_2  and  N_8
REMARK    2  A    between atoms: C_9  and  C_11
REMARK    3  A    between atoms: C_11  and  C_12
REMARK    4  A    between atoms: C_12  and  C_14
REMARK    5  A    between atoms: C_14  and  C_15
REMARK    6  A    between atoms: C_15  and  C_16
REMARK    7  A    between atoms: C_16  and  C_17
REMARK    8  A    between atoms: C_17  and  C_18
REMARK                            x       y       z     vdW  Elec       q    Type
REMARK                         _______ _______ _______ _____ _____    ______ ____
ROOT
ATOM      1  N   UNL     1       8.298  -2.146  22.452  0.00  0.00    -0.302 N 
ATOM      2  H   UNL     1       7.410  -1.660  22.320  0.00  0.00    +0.150 HD
ATOM      3  C   UNL     1       9.449  -1.522  22.043  0.00  0.00    +0.221 C 
ATOM      4  O   UNL     1      10.567  -1.906  22.377  0.00  0.00    -0.275 OA
ENDROOT
BRANCH   1   5
ATOM      5  C   UNL     1       8.342  -3.252  23.390  0.00  0.00    +0.185 C 
ATOM      6  C   UNL     1       7.452  -4.415  22.993  0.00  0.00    +0.328 C 
ATOM      7  O   UNL     1       7.276  -4.833  21.860  0.00  0.00    -0.249 OA
ATOM      8  O   UNL     1       6.873  -4.955  24.108  0.00  0.00    -0.463 OA
ATOM      9  C   UNL     1       7.294  -4.224  25.260  0.00  0.00    +0.234 C 
ATOM     10  C   UNL     1       7.784  -2.895  24.750  0.00  0.00    +0.075 C 
ENDBRANCH   1   5
BRANCH   3  11
ATOM     11  C   UNL     1       9.264  -0.376  21.087  0.00  0.00    +0.170 C 
BRANCH  11  12
ATOM     12  C   UNL     1       8.959   0.955  21.730  0.00  0.00    +0.142 C 
ATOM     13  O   UNL     1       7.802   1.355  21.875  0.00  0.00    -0.297 OA
BRANCH  12  14
ATOM     14  C   UNL     1      10.142   1.805  22.160  0.00  0.00    +0.075 C 
BRANCH  14  15
ATOM     15  C   UNL     1      10.140   2.028  23.669  0.00  0.00    +0.007 C 
BRANCH  15  16
ATOM     16  C   UNL     1      10.921   0.947  24.415  0.00  0.00    +0.000 C 
BRANCH  16  17
ATOM     17  C   UNL     1       9.976   0.084  25.251  0.00  0.00    -0.003 C 
ATOM     18  C   UNL     1       8.592   0.700  25.361  0.00  0.00    +0.004 C 
ENDBRANCH  16  17
ENDBRANCH  15  16
ENDBRANCH  14  15
ENDBRANCH  12  14
ENDBRANCH  11  12
ENDBRANCH   3  11
TORSDOF 7
ENDMDL
MODEL 3
REMARK VINA RESULT:      -5.1      1.699      2.218
REMARK  Name = 
REMARK  8 active torsions:
REMARK  status: ('A' for Active; 'I' for Inactive)
REMARK    1  A    between atoms: C_2  and  N_8
REMARK    2  A    between atoms: C_9  and  C_11
REMARK    3  A    between atoms: C_11  and  C_12
REMARK    4  A    between atoms: C_12  and  C_14
REMARK    5  A    between atoms: C_14  and  C_15
REMARK    6  A    between atoms: C_15  and  C_16
REMARK    7  A    between atoms: C_16  and  C_17
REMARK    8  A    between atoms: C_17  and  C_18
REMARK                            x       y       z     vdW  Elec       q    Type
REMARK                         _______ _______ _______ _____ _____    ______ ____
ROOT
ATOM      1  N   UNL     1       7.373  -4.081  23.704  0.00  0.00    -0.302 N 
ATOM      2  H   UNL     1       6.992  -3.142  23.824  0.00  0.00    +0.150 HD
ATOM      3  C   UNL     1       8.630  -4.342  24.188  0.00  0.00    +0.221 C 
ATOM      4  O   UNL     1       9.071  -5.481  24.315  0.00  0.00    -0.275 OA
ENDROOT
BRANCH   1   5
ATOM      5  C   UNL     1       6.453  -5.162  23.402  0.00  0.00    +0.185 C 
ATOM      6  C   UNL     1       5.480  -4.830  22.285  0.00  0.00    +0.328 C 
ATOM      7  O   UNL     1       5.735  -4.199  21.271  0.00  0.00    -0.249 OA
ATOM      8  O   UNL     1       4.252  -5.361  22.569  0.00  0.00    -0.463 OA
ATOM      9  C   UNL     1       4.308  -6.031  23.829  0.00  0.00    +0.234 C 
ATOM     10  C   UNL     1       5.509  -5.471  24.542  0.00  0.00    +0.075 C 
ENDBRANCH   1   5
BRANCH   3  11
ATOM     11  C   UNL     1       9.477  -3.133  24.483  0.00  0.00    +0.170 C 
BRANCH  11  12
ATOM     12  C   UNL     1       9.150  -1.905  23.668  0.00  0.00    +0.142 C 
ATOM     13  O   UNL     1       9.262  -1.893  22.440  0.00  0.00    -0.297 OA
BRANCH  12  14
ATOM     14  C   UNL     1       8.710  -0.666  24.427  0.00  0.00    +0.075 C 
BRANCH  14  15
ATOM     15  C   UNL     1       9.880  -0.033  25.173  0.00  0.00    +0.007 C 
BRANCH  15  16
ATOM     16  C   UNL     1      10.858   0.666  24.230  0.00  0.00    +0.000 C 
BRANCH  16  17
ATOM     17  C   UNL     1      10.200   1.889  23.589  0.00  0.00    -0.003 C 
ATOM     18  C   UNL     1      10.068   1.739  22.083  0.00  0.00    +0.004 C 
ENDBRANCH  16  17
ENDBRANCH  15  16
ENDBRANCH  14  15
ENDBRANCH  12  14
ENDBRANCH  11  12
ENDBRANCH   3  11
TORSDOF 7
ENDMDL
MODEL 4
REMARK VINA RESULT:      -5.1      2.656      3.259
REMARK  Name = 
REMARK  8 active torsions:
REMARK  status: ('A' for Active; 'I' for Inactive)
REMARK    1  A    between atoms: C_2  and  N_8
REMARK    2  A    between atoms: C_9  and  C_11
REMARK    3  A    between atoms: C_11  and  C_12
REMARK    4  A    between atoms: C_12  and  C_14
REMARK    5  A    between atoms: C_14  and  C_15
REMARK    6  A    between atoms: C_15  and  C_16
REMARK    7  A    between atoms: C_16  and  C_17
REMARK    8  A    between atoms: C_17  and  C_18
REMARK                            x       y       z     vdW  Elec       q    Type
REMARK                         _______ _______ _______ _____ _____    ______ ____
ROOT
ATOM      1  N   UNL     1       7.435  -3.968  24.439  0.00  0.00    -0.302 N 
ATOM      2  H   UNL     1       8.147  -4.605  24.080  0.00  0.00    +0.150 HD
ATOM      3  C   UNL     1       7.165  -2.825  23.730  0.00  0.00    +0.221 C 
ATOM      4  O   UNL     1       6.172  -2.133  23.938  0.00  0.00    -0.275 OA
ENDROOT
BRANCH   1   5
ATOM      5  C   UNL     1       6.496  -4.473  25.424  0.00  0.00    +0.185 C 
ATOM      6  C   UNL     1       7.165  -5.192  26.581  0.00  0.00    +0.328 C 
ATOM      7  O   UNL     1       8.209  -4.869  27.124  0.00  0.00    -0.249 OA
ATOM      8  O   UNL     1       6.410  -6.272  26.951  0.00  0.00    -0.463 OA
ATOM      9  C   UNL     1       5.261  -6.356  26.108  0.00  0.00    +0.234 C 
ATOM     10  C   UNL     1       5.591  -5.555  24.877  0.00  0.00    +0.075 C 
ENDBRANCH   1   5
BRANCH   3  11
ATOM     11  C   UNL     1       8.209  -2.422  22.724  0.00  0.00    +0.170 C 
BRANCH  11  12
ATOM     12  C   UNL     1       9.579  -2.149  23.294  0.00  0.00    +0.142 C 
ATOM     13  O   UNL     1      10.230  -3.026  23.866  0.00  0.00    -0.297 OA
BRANCH  12  14
ATOM     14  C   UNL     1      10.112  -0.733  23.170  0.00  0.00    +0.075 C 
BRANCH  14  15
ATOM     15  C   UNL     1       9.828  -0.158  21.785  0.00  0.00    +0.007 C 
BRANCH  15  16
ATOM     16  C   UNL     1       9.630   1.357  21.818  0.00  0.00    +0.000 C 
BRANCH  16  17
ATOM     17  C   UNL     1       9.710   1.877  23.254  0.00  0.00    -0.003 C 
ATOM     18  C   UNL     1      10.745   2.977  23.403  0.00  0.00    +0.004 C 
ENDBRANCH  16  17
ENDBRANCH  15  16
ENDBRANCH  14  15
ENDBRANCH  12  14
ENDBRANCH  11  12
ENDBRANCH   3  11
TORSDOF 7
ENDMDL
MODEL 5
REMARK VINA RESULT:      -5.0      2.239      5.584
REMARK  Name = 
REMARK  8 active torsions:
REMARK  status: ('A' for Active; 'I' for Inactive)
REMARK    1  A    between atoms: C_2  and  N_8
REMARK    2  A    between atoms: C_9  and  C_11
REMARK    3  A    between atoms: C_11  and  C_12
REMARK    4  A    between atoms: C_12  and  C_14
REMARK    5  A    between atoms: C_14  and  C_15
REMARK    6  A    between atoms: C_15  and  C_16
REMARK    7  A    between atoms: C_16  and  C_17
REMARK    8  A    between atoms: C_17  and  C_18
REMARK                            x       y       z     vdW  Elec       q    Type
REMARK                         _______ _______ _______ _____ _____    ______ ____
ROOT
ATOM      1  N   UNL     1       8.666  -3.056  24.290  0.00  0.00    -0.302 N 
ATOM      2  H   UNL     1       7.666  -2.874  24.195  0.00  0.00    +0.150 HD
ATOM      3  C   UNL     1       9.062  -4.275  24.780  0.00  0.00    +0.221 C 
ATOM      4  O   UNL     1      10.220  -4.678  24.701  0.00  0.00    -0.275 OA
ENDROOT
BRANCH   1   5
ATOM      5  C   UNL     1       9.591  -2.210  23.559  0.00  0.00    +0.185 C 
ATOM      6  C   UNL     1       9.727  -0.817  24.145  0.00  0.00    +0.328 C 
ATOM      7  O   UNL     1       9.748  -0.534  25.332  0.00  0.00    -0.249 OA
ATOM      8  O   UNL     1       9.840   0.100  23.136  0.00  0.00    -0.463 OA
ATOM      9  C   UNL     1       9.774  -0.573  21.878  0.00  0.00    +0.234 C 
ATOM     10  C   UNL     1       9.125  -1.903  22.153  0.00  0.00    +0.075 C 
ENDBRANCH   1   5
BRANCH   3  11
ATOM     11  C   UNL     1       8.002  -5.063  25.500  0.00  0.00    +0.170 C 
BRANCH  11  12
ATOM     12  C   UNL     1       6.780  -4.275  25.905  0.00  0.00    +0.142 C 
ATOM     13  O   UNL     1       6.859  -3.293  26.647  0.00  0.00    -0.297 OA
BRANCH  12  14
ATOM     14  C   UNL     1       5.437  -4.763  25.392  0.00  0.00    +0.075 C 
BRANCH  14  15
ATOM     15  C   UNL     1       5.577  -5.416  24.020  0.00  0.00    +0.007 C 
BRANCH  15  16
ATOM     16  C   UNL     1       5.336  -4.426  22.881  0.00  0.00    +0.000 C 
BRANCH  16  17
ATOM     17  C   UNL     1       6.437  -4.545  21.827  0.00  0.00    -0.003 C 
ATOM     18  C   UNL     1       7.165  -5.875  21.912  0.00  0.00    +0.004 C 
ENDBRANCH  16  17
ENDBRANCH  15  16
ENDBRANCH  14  15
ENDBRANCH  12  14
ENDBRANCH  11  12
ENDBRANCH   3  11
TORSDOF 7
ENDMDL
MODEL 6
REMARK VINA RESULT:      -4.9      1.789      2.197
REMARK  Name = 
REMARK  8 active torsions:
REMARK  status: ('A' for Active; 'I' for Inactive)
REMARK    1  A    between atoms: C_2  and  N_8
REMARK    2  A    between atoms: C_9  and  C_11
REMARK    3  A    between atoms: C_11  and  C_12
REMARK    4  A    between atoms: C_12  and  C_14
REMARK    5  A    between atoms: C_14  and  C_15
REMARK    6  A    between atoms: C_15  and  C_16
REMARK    7  A    between atoms: C_16  and  C_17
REMARK    8  A    between atoms: C_17  and  C_18
REMARK                            x       y       z     vdW  Elec       q    Type
REMARK                         _______ _______ _______ _____ _____    ______ ____
ROOT
ATOM      1  N   UNL     1       7.502  -3.871  24.129  0.00  0.00    -0.302 N 
ATOM      2  H   UNL     1       6.661  -3.997  24.695  0.00  0.00    +0.150 HD
ATOM      3  C   UNL     1       8.704  -3.718  24.773  0.00  0.00    +0.221 C 
ATOM      4  O   UNL     1       9.783  -3.808  24.194  0.00  0.00    -0.275 OA
ENDROOT
BRANCH   1   5
ATOM      5  C   UNL     1       7.449  -4.246  22.729  0.00  0.00    +0.185 C 
ATOM      6  C   UNL     1       6.216  -3.727  22.012  0.00  0.00    +0.328 C 
ATOM      7  O   UNL     1       5.694  -2.635  22.174  0.00  0.00    -0.249 OA
ATOM      8  O   UNL     1       5.767  -4.667  21.125  0.00  0.00    -0.463 OA
ATOM      9  C   UNL     1       6.606  -5.820  21.194  0.00  0.00    +0.234 C 
ATOM     10  C   UNL     1       7.313  -5.738  22.521  0.00  0.00    +0.075 C 
ENDBRANCH   1   5
BRANCH   3  11
ATOM     11  C   UNL     1       8.620  -3.350  26.229  0.00  0.00    +0.170 C 
BRANCH  11  12
ATOM     12  C   UNL     1       7.828  -2.101  26.531  0.00  0.00    +0.142 C 
ATOM     13  O   UNL     1       6.597  -2.113  26.594  0.00  0.00    -0.297 OA
BRANCH  12  14
ATOM     14  C   UNL     1       8.610  -0.813  26.720  0.00  0.00    +0.075 C 
BRANCH  14  15
ATOM     15  C   UNL     1       8.030   0.312  25.868  0.00  0.00    +0.007 C 
BRANCH  15  16
ATOM     16  C   UNL     1       9.083   0.961  24.971  0.00  0.00    +0.000 C 
BRANCH  16  17
ATOM     17  C   UNL     1      10.257   0.007  24.748  0.00  0.00    -0.003 C 
ATOM     18  C   UNL     1      10.388  -0.400  23.290  0.00  0.00    +0.004 C 
ENDBRANCH  16  17
ENDBRANCH  15  16
ENDBRANCH  14  15
ENDBRANCH  12  14
ENDBRANCH  11  12
ENDBRANCH   3  11
TORSDOF 7
ENDMDL
MODEL 7
REMARK VINA RESULT:      -4.9      1.691      2.189
REMARK  Name = 
REMARK  8 active torsions:
REMARK  status: ('A' for Active; 'I' for Inactive)
REMARK    1  A    between atoms: C_2  and  N_8
REMARK    2  A    between atoms: C_9  and  C_11
REMARK    3  A    between atoms: C_11  and  C_12
REMARK    4  A    between atoms: C_12  and  C_14
REMARK    5  A    between atoms: C_14  and  C_15
REMARK    6  A    between atoms: C_15  and  C_16
REMARK    7  A    between atoms: C_16  and  C_17
REMARK    8  A    between atoms: C_17  and  C_18
REMARK                            x       y       z     vdW  Elec       q    Type
REMARK                         _______ _______ _______ _____ _____    ______ ____
ROOT
ATOM      1  N   UNL     1       7.117  -2.793  23.393  0.00  0.00    -0.302 N 
ATOM      2  H   UNL     1       7.899  -2.431  22.847  0.00  0.00    +0.150 HD
ATOM      3  C   UNL     1       6.368  -1.908  24.126  0.00  0.00    +0.221 C 
ATOM      4  O   UNL     1       5.277  -2.200  24.609  0.00  0.00    -0.275 OA
ENDROOT
BRANCH   1   5
ATOM      5  C   UNL     1       6.604  -4.111  23.067  0.00  0.00    +0.185 C 
ATOM      6  C   UNL     1       7.661  -5.199  23.119  0.00  0.00    +0.328 C 
ATOM      7  O   UNL     1       8.562  -5.290  23.937  0.00  0.00    -0.249 OA
ATOM      8  O   UNL     1       7.452  -6.095  22.107  0.00  0.00    -0.463 OA
ATOM      9  C   UNL     1       6.318  -5.686  21.341  0.00  0.00    +0.234 C 
ATOM     10  C   UNL     1       6.126  -4.222  21.637  0.00  0.00    +0.075 C 
ENDBRANCH   1   5
BRANCH   3  11
ATOM     11  C   UNL     1       7.005  -0.568  24.376  0.00  0.00    +0.170 C 
BRANCH  11  12
ATOM     12  C   UNL     1       8.368  -0.615  25.024  0.00  0.00    +0.142 C 
ATOM     13  O   UNL     1       8.805  -1.645  25.539  0.00  0.00    -0.297 OA
BRANCH  12  14
ATOM     14  C   UNL     1       9.168   0.675  25.050  0.00  0.00    +0.075 C 
BRANCH  14  15
ATOM     15  C   UNL     1      10.482   0.523  24.290  0.00  0.00    +0.007 C 
BRANCH  15  16
ATOM     16  C   UNL     1      10.262   0.209  22.810  0.00  0.00    +0.000 C 
BRANCH  16  17
ATOM     17  C   UNL     1       9.951   1.488  22.032  0.00  0.00    -0.003 C 
ATOM     18  C   UNL     1       8.537   1.486  21.477  0.00  0.00    +0.004 C 
ENDBRANCH  16  17
ENDBRANCH  15  16
ENDBRANCH  14  15
ENDBRANCH  12  14
ENDBRANCH  11  12
ENDBRANCH   3  11
TORSDOF 7
ENDMDL
MODEL 8
REMARK VINA RESULT:      -4.9      1.749      2.247
REMARK  Name = 
REMARK  8 active torsions:
REMARK  status: ('A' for Active; 'I' for Inactive)
REMARK    1  A    between atoms: C_2  and  N_8
REMARK    2  A    between atoms: C_9  and  C_11
REMARK    3  A    between atoms: C_11  and  C_12
REMARK    4  A    between atoms: C_12  and  C_14
REMARK    5  A    between atoms: C_14  and  C_15
REMARK    6  A    between atoms: C_15  and  C_16
REMARK    7  A    between atoms: C_16  and  C_17
REMARK    8  A    between atoms: C_17  and  C_18
REMARK                            x       y       z     vdW  Elec       q    Type
REMARK                         _______ _______ _______ _____ _____    ______ ____
ROOT
ATOM      1  N   UNL     1       7.855  -2.775  22.381  0.00  0.00    -0.302 N 
ATOM      2  H   UNL     1       8.582  -2.905  21.676  0.00  0.00    +0.150 HD
ATOM      3  C   UNL     1       7.572  -1.499  22.798  0.00  0.00    +0.221 C 
ATOM      4  O   UNL     1       6.566  -1.218  23.443  0.00  0.00    -0.275 OA
ENDROOT
BRANCH   1   5
ATOM      5  C   UNL     1       6.916  -3.858  22.608  0.00  0.00    +0.185 C 
ATOM      6  C   UNL     1       7.582  -5.155  23.029  0.00  0.00    +0.328 C 
ATOM      7  O   UNL     1       8.537  -5.263  23.782  0.00  0.00    -0.249 OA
ATOM      8  O   UNL     1       6.940  -6.214  22.448  0.00  0.00    -0.463 OA
ATOM      9  C   UNL     1       5.874  -5.730  21.632  0.00  0.00    +0.234 C 
ATOM     10  C   UNL     1       6.192  -4.285  21.350  0.00  0.00    +0.075 C 
ENDBRANCH   1   5
BRANCH   3  11
ATOM     11  C   UNL     1       8.618  -0.465  22.482  0.00  0.00    +0.170 C 
BRANCH  11  12
ATOM     12  C   UNL     1      10.025  -0.831  22.884  0.00  0.00    +0.142 C 
ATOM     13  O   UNL     1      10.640  -1.746  22.332  0.00  0.00    -0.297 OA
BRANCH  12  14
ATOM     14  C   UNL     1      10.646  -0.048  24.028  0.00  0.00    +0.075 C 
BRANCH  14  15
ATOM     15  C   UNL     1       9.877   1.243  24.291  0.00  0.00    +0.007 C 
BRANCH  15  16
ATOM     16  C   UNL     1      10.584   2.467  23.711  0.00  0.00    +0.000 C 
BRANCH  16  17
ATOM     17  C   UNL     1       9.627   3.658  23.648  0.00  0.00    -0.003 C 
ATOM     18  C   UNL     1       8.203   3.227  23.345  0.00  0.00    +0.004 C 
ENDBRANCH  16  17
ENDBRANCH  15  16
ENDBRANCH  14  15
ENDBRANCH  12  14
ENDBRANCH  11  12
ENDBRANCH   3  11
TORSDOF 7
ENDMDL
MODEL 9
REMARK VINA RESULT:      -4.8      2.404      2.641
REMARK  Name = 
REMARK  8 active torsions:
REMARK  status: ('A' for Active; 'I' for Inactive)
REMARK    1  A    between atoms: C_2  and  N_8
REMARK    2  A    between atoms: C_9  and  C_11
REMARK    3  A    between atoms: C_11  and  C_12
REMARK    4  A    between atoms: C_12  and  C_14
REMARK    5  A    between atoms: C_14  and  C_15
REMARK    6  A    between atoms: C_15  and  C_16
REMARK    7  A    between atoms: C_16  and  C_17
REMARK    8  A    between atoms: C_17  and  C_18
REMARK                            x       y       z     vdW  Elec       q    Type
REMARK                         _______ _______ _______ _____ _____    ______ ____
ROOT
ATOM      1  N   UNL     1       7.637  -3.798  25.068  0.00  0.00    -0.302 N 
ATOM      2  H   UNL     1       7.084  -2.985  25.344  0.00  0.00    +0.150 HD
ATOM      3  C   UNL     1       8.952  -3.606  24.727  0.00  0.00    +0.221 C 
ATOM      4  O   UNL     1       9.753  -4.531  24.624  0.00  0.00    -0.275 OA
ENDROOT
BRANCH   1   5
ATOM      5  C   UNL     1       7.143  -5.116  25.420  0.00  0.00    +0.185 C 
ATOM      6  C   UNL     1       6.061  -5.624  24.485  0.00  0.00    +0.328 C 
ATOM      7  O   UNL     1       6.024  -5.472  23.275  0.00  0.00    -0.249 OA
ATOM      8  O   UNL     1       5.115  -6.306  25.201  0.00  0.00    -0.463 OA
ATOM      9  C   UNL     1       5.468  -6.289  26.584  0.00  0.00    +0.234 C 
ATOM     10  C   UNL     1       6.429  -5.143  26.752  0.00  0.00    +0.075 C 
ENDBRANCH   1   5
BRANCH   3  11
ATOM     11  C   UNL     1       9.340  -2.188  24.406  0.00  0.00    +0.170 C 
BRANCH  11  12
ATOM     12  C   UNL     1       9.118  -1.193  25.519  0.00  0.00    +0.142 C 
ATOM     13  O   UNL     1       8.696  -1.540  26.624  0.00  0.00    -0.297 OA
BRANCH  12  14
ATOM     14  C   UNL     1       9.401   0.266  25.211  0.00  0.00    +0.075 C 
BRANCH  14  15
ATOM     15  C   UNL     1      10.458   0.404  24.119  0.00  0.00    +0.007 C 
BRANCH  15  16
ATOM     16  C   UNL     1      10.467   1.798  23.494  0.00  0.00    +0.000 C 
BRANCH  16  17
ATOM     17  C   UNL     1       9.946   1.744  22.058  0.00  0.00    -0.003 C 
ATOM     18  C   UNL     1       9.676   0.319  21.605  0.00  0.00    +0.004 C 
ENDBRANCH  16  17
ENDBRANCH  15  16
ENDBRANCH  14  15
ENDBRANCH  12  14
ENDBRANCH  11  12
ENDBRANCH   3  11
TORSDOF 7
ENDMDL
