MODEL 1
REMARK VINA RESULT:      -5.6      0.000      0.000
REMARK  Name = 
REMARK  24 active torsions:
REMARK  status: ('A' for Active; 'I' for Inactive)
REMARK    1  A    between atoms: C_2  and  O_3
REMARK    2  A    between atoms: C_2  and  C_4
REMARK    3  A    between atoms: C_2  and  C_24
REMARK    4  A    between atoms: N_6  and  C_7
REMARK    5  A    between atoms: C_7  and  C_8
REMARK    6  A    between atoms: C_8  and  C_9
REMARK    7  A    between atoms: N_11  and  C_12
REMARK    8  A    between atoms: C_12  and  C_13
REMARK    9  A    between atoms: C_13  and  S_14
REMARK   10  A    between atoms: S_14  and  C_15
REMARK   11  A    between atoms: C_15  and  C_17
REMARK   12  A    between atoms: C_17  and  C_18
REMARK   13  A    between atoms: C_18  and  C_19
REMARK   14  A    between atoms: C_19  and  C_20
REMARK   15  A    between atoms: C_20  and  C_21
REMARK   16  A    between atoms: C_21  and  C_22
REMARK   17  A    between atoms: C_22  and  C_23
REMARK   18  A    between atoms: C_24  and  C_25
REMARK   19  A    between atoms: C_24  and  C_26
REMARK   20  A    between atoms: C_24  and  C_27
REMARK   21  A    between atoms: C_27  and  O_28
REMARK   22  A    between atoms: O_28  and  P_29
REMARK   23  A    between atoms: P_29  and  O_30
REMARK   24  A    between atoms: P_29  and  O_31
REMARK                            x       y       z     vdW  Elec       q    Type
REMARK                         _______ _______ _______ _____ _____    ______ ____
ROOT
ATOM      1  C   UNL     1       3.912  -6.213  23.466  0.00  0.00    +0.242 C 
ATOM      2  N   UNL     1       5.225  -6.495  23.151  0.00  0.00    -0.313 N 
ATOM      3  H   UNL     1       5.831  -6.817  23.900  0.00  0.00    +0.149 HD
ATOM      4  O   UNL     1       3.101  -5.779  22.652  0.00  0.00    -0.273 OA
ENDROOT
BRANCH   2   5
ATOM      5  C   UNL     1       5.794  -6.195  21.849  0.00  0.00    +0.113 C 
BRANCH   5   6
ATOM      6  C   UNL     1       6.971  -5.226  21.912  0.00  0.00    +0.114 C 
BRANCH   6   7
ATOM      7  C   UNL     1       6.495  -3.804  22.188  0.00  0.00    +0.215 C 
ATOM      8  N   UNL     1       7.434  -3.012  22.802  0.00  0.00    -0.314 N 
ATOM      9  H   UNL     1       8.288  -3.425  23.159  0.00  0.00    +0.149 HD
ATOM     10  O   UNL     1       5.369  -3.410  21.910  0.00  0.00    -0.276 OA
BRANCH   8  11
ATOM     11  C   UNL     1       7.153  -1.623  23.142  0.00  0.00    +0.115 C 
BRANCH  11  12
ATOM     12  C   UNL     1       7.430  -1.275  24.609  0.00  0.00    +0.096 C 
BRANCH  12  13
ATOM     13  S   UNL     1       9.218  -1.046  24.892  0.00  0.00    -0.087 S 
BRANCH  13  14
ATOM     14  C   UNL     1       9.290   0.717  24.915  0.00  0.00    +0.189 C 
ATOM     15  O   UNL     1       8.378   1.397  25.366  0.00  0.00    -0.285 OA
BRANCH  14  16
ATOM     16  C   UNL     1      10.546   1.287  24.276  0.00  0.00    +0.086 C 
BRANCH  16  17
ATOM     17  C   UNL     1      10.239   1.996  22.959  0.00  0.00    +0.008 C 
BRANCH  17  18
ATOM     18  C   UNL     1       9.864   0.994  21.864  0.00  0.00    +0.000 C 
BRANCH  18  19
ATOM     19  C   UNL     1       8.535   1.363  21.201  0.00  0.00    +0.000 C 
BRANCH  19  20
ATOM     20  C   UNL     1       7.831   2.502  21.944  0.00  0.00    -0.000 C 
BRANCH  20  21
ATOM     21  C   UNL     1       6.484   2.045  22.507  0.00  0.00    -0.003 C 
ATOM     22  C   UNL     1       5.519   3.209  22.665  0.00  0.00    +0.004 C 
ENDBRANCH  20  21
ENDBRANCH  19  20
ENDBRANCH  18  19
ENDBRANCH  17  18
ENDBRANCH  16  17
ENDBRANCH  14  16
ENDBRANCH  13  14
ENDBRANCH  12  13
ENDBRANCH  11  12
ENDBRANCH   8  11
ENDBRANCH   6   7
ENDBRANCH   5   6
ENDBRANCH   2   5
BRANCH   1  23
ATOM     23  C   UNL     1       3.517  -6.523  24.932  0.00  0.00    +0.208 C 
BRANCH  23  24
ATOM     24  C   UNL     1       3.796  -5.382  25.963  0.00  0.00    +0.024 C 
ATOM     25  C   UNL     1       2.632  -5.248  26.963  0.00  0.00    +0.016 C 
ATOM     26  C   UNL     1       3.986  -4.024  25.259  0.00  0.00    +0.016 C 
BRANCH  24  27
ATOM     27  C   UNL     1       5.098  -5.748  26.741  0.00  0.00    +0.181 C 
BRANCH  27  28
ATOM     28  O   UNL     1       6.264  -5.775  25.908  0.00  0.00    -0.286 OA
BRANCH  28  29
ATOM     29  P   UNL     1       7.535  -4.749  26.477  0.00  0.00    +0.472 P 
ATOM     30  O   UNL     1       8.674  -3.831  26.987  0.00  0.00    -0.228 OA
BRANCH  29  31
ATOM     31  O   UNL     1       8.014  -6.027  27.378  0.00  0.00    -0.303 OA
ATOM     32  H   UNL     1       7.746  -5.867  28.302  0.00  0.00    +0.222 HD
ENDBRANCH  29  31
BRANCH  29  33
ATOM     33  O   UNL     1       8.284  -5.171  25.091  0.00  0.00    -0.303 OA
ATOM     34  H   UNL     1       7.585  -5.360  24.437  0.00  0.00    +0.222 HD
ENDBRANCH  29  33
ENDBRANCH  28  29
ENDBRANCH  27  28
ENDBRANCH  24  27
ENDBRANCH  23  24
BRANCH  23  35
ATOM     35  O   UNL     1       4.156  -7.732  25.365  0.00  0.00    -0.382 OA
ATOM     36  H   UNL     1       5.102  -7.521  25.474  0.00  0.00    +0.210 HD
ENDBRANCH  23  35
ENDBRANCH   1  23
TORSDOF 21
ENDMDL
MODEL 2
REMARK VINA RESULT:      -5.4      2.723      7.929
REMARK  Name = 
REMARK  24 active torsions:
REMARK  status: ('A' for Active; 'I' for Inactive)
REMARK    1  A    between atoms: C_2  and  O_3
REMARK    2  A    between atoms: C_2  and  C_4
REMARK    3  A    between atoms: C_2  and  C_24
REMARK    4  A    between atoms: N_6  and  C_7
REMARK    5  A    between atoms: C_7  and  C_8
REMARK    6  A    between atoms: C_8  and  C_9
REMARK    7  A    between atoms: N_11  and  C_12
REMARK    8  A    between atoms: C_12  and  C_13
REMARK    9  A    between atoms: C_13  and  S_14
REMARK   10  A    between atoms: S_14  and  C_15
REMARK   11  A    between atoms: C_15  and  C_17
REMARK   12  A    between atoms: C_17  and  C_18
REMARK   13  A    between atoms: C_18  and  C_19
REMARK   14  A    between atoms: C_19  and  C_20
REMARK   15  A    between atoms: C_20  and  C_21
REMARK   16  A    between atoms: C_21  and  C_22
REMARK   17  A    between atoms: C_22  and  C_23
REMARK   18  A    between atoms: C_24  and  C_25
REMARK   19  A    between atoms: C_24  and  C_26
REMARK   20  A    between atoms: C_24  and  C_27
REMARK   21  A    between atoms: C_27  and  O_28
REMARK   22  A    between atoms: O_28  and  P_29
REMARK   23  A    between atoms: P_29  and  O_30
REMARK   24  A    between atoms: P_29  and  O_31
REMARK                            x       y       z     vdW  Elec       q    Type
REMARK                         _______ _______ _______ _____ _____    ______ ____
ROOT
ATOM      1  C   UNL     1      10.501   0.815  23.495  0.00  0.00    +0.242 C 
ATOM      2  N   UNL     1      10.193  -0.055  22.470  0.00  0.00    -0.313 N 
ATOM      3  H   UNL     1       9.784   0.335  21.627  0.00  0.00    +0.149 HD
ATOM      4  O   UNL     1      10.961   0.451  24.575  0.00  0.00    -0.273 OA
ENDROOT
BRANCH   2   5
ATOM      5  C   UNL     1      10.282  -1.497  22.623  0.00  0.00    +0.113 C 
BRANCH   5   6
ATOM      6  C   UNL     1       8.925  -2.171  22.807  0.00  0.00    +0.114 C 
BRANCH   6   7
ATOM      7  C   UNL     1       8.686  -2.527  24.270  0.00  0.00    +0.215 C 
ATOM      8  N   UNL     1       9.159  -3.767  24.625  0.00  0.00    -0.314 N 
ATOM      9  H   UNL     1       9.485  -4.407  23.911  0.00  0.00    +0.149 HD
ATOM     10  O   UNL     1       8.103  -1.787  25.052  0.00  0.00    -0.276 OA
BRANCH   8  11
ATOM     11  C   UNL     1       9.018  -4.275  25.984  0.00  0.00    +0.115 C 
BRANCH  11  12
ATOM     12  C   UNL     1       8.009  -5.421  26.117  0.00  0.00    +0.096 C 
BRANCH  12  13
ATOM     13  S   UNL     1       6.475  -4.839  26.917  0.00  0.00    -0.087 S 
BRANCH  13  14
ATOM     14  C   UNL     1       5.465  -6.269  26.693  0.00  0.00    +0.189 C 
ATOM     15  O   UNL     1       5.316  -7.103  27.577  0.00  0.00    -0.285 OA
BRANCH  14  16
ATOM     16  C   UNL     1       4.863  -6.382  25.302  0.00  0.00    +0.086 C 
BRANCH  16  17
ATOM     17  C   UNL     1       3.987  -5.178  24.965  0.00  0.00    +0.008 C 
BRANCH  17  18
ATOM     18  C   UNL     1       4.130  -4.782  23.493  0.00  0.00    +0.000 C 
BRANCH  18  19
ATOM     19  C   UNL     1       5.356  -3.894  23.271  0.00  0.00    +0.000 C 
BRANCH  19  20
ATOM     20  C   UNL     1       5.831  -3.941  21.816  0.00  0.00    -0.000 C 
BRANCH  20  21
ATOM     21  C   UNL     1       6.199  -5.366  21.401  0.00  0.00    -0.003 C 
ATOM     22  C   UNL     1       7.374  -5.899  22.206  0.00  0.00    +0.004 C 
ENDBRANCH  20  21
ENDBRANCH  19  20
ENDBRANCH  18  19
ENDBRANCH  17  18
ENDBRANCH  16  17
ENDBRANCH  14  16
ENDBRANCH  13  14
ENDBRANCH  12  13
ENDBRANCH  11  12
ENDBRANCH   8  11
ENDBRANCH   6   7
ENDBRANCH   5   6
ENDBRANCH   2   5
BRANCH   1  23
ATOM     23  C   UNL     1      10.258   2.311  23.169  0.00  0.00    +0.208 C 
BRANCH  23  24
ATOM     24  C   UNL     1       8.857   2.871  23.576  0.00  0.00    +0.024 C 
ATOM     25  C   UNL     1       7.968   3.085  22.336  0.00  0.00    +0.016 C 
ATOM     26  C   UNL     1       8.985   4.216  24.317  0.00  0.00    +0.016 C 
BRANCH  24  27
ATOM     27  C   UNL     1       8.180   1.826  24.516  0.00  0.00    +0.181 C 
BRANCH  27  28
ATOM     28  O   UNL     1       7.078   1.147  23.902  0.00  0.00    -0.286 OA
BRANCH  28  29
ATOM     29  P   UNL     1       5.686   1.035  24.923  0.00  0.00    +0.472 P 
ATOM     30  O   UNL     1       4.440   0.935  25.838  0.00  0.00    -0.228 OA
BRANCH  29  31
ATOM     31  O   UNL     1       5.521  -0.486  24.346  0.00  0.00    -0.303 OA
ATOM     32  H   UNL     1       4.964  -0.450  23.546  0.00  0.00    +0.222 HD
ENDBRANCH  29  31
BRANCH  29  33
ATOM     33  O   UNL     1       6.769   0.703  26.098  0.00  0.00    -0.303 OA
ATOM     34  H   UNL     1       7.655   0.806  25.705  0.00  0.00    +0.222 HD
ENDBRANCH  29  33
ENDBRANCH  28  29
ENDBRANCH  27  28
ENDBRANCH  24  27
ENDBRANCH  23  24
BRANCH  23  35
ATOM     35  O   UNL     1      10.487   2.550  21.774  0.00  0.00    -0.382 OA
ATOM     36  H   UNL     1      11.154   1.898  21.488  0.00  0.00    +0.210 HD
ENDBRANCH  23  35
ENDBRANCH   1  23
TORSDOF 21
ENDMDL
MODEL 3
REMARK VINA RESULT:      -5.4      1.737      2.625
REMARK  Name = 
REMARK  24 active torsions:
REMARK  status: ('A' for Active; 'I' for Inactive)
REMARK    1  A    between atoms: C_2  and  O_3
REMARK    2  A    between atoms: C_2  and  C_4
REMARK    3  A    between atoms: C_2  and  C_24
REMARK    4  A    between atoms: N_6  and  C_7
REMARK    5  A    between atoms: C_7  and  C_8
REMARK    6  A    between atoms: C_8  and  C_9
REMARK    7  A    between atoms: N_11  and  C_12
REMARK    8  A    between atoms: C_12  and  C_13
REMARK    9  A    between atoms: C_13  and  S_14
REMARK   10  A    between atoms: S_14  and  C_15
REMARK   11  A    between atoms: C_15  and  C_17
REMARK   12  A    between atoms: C_17  and  C_18
REMARK   13  A    between atoms: C_18  and  C_19
REMARK   14  A    between atoms: C_19  and  C_20
REMARK   15  A    between atoms: C_20  and  C_21
REMARK   16  A    between atoms: C_21  and  C_22
REMARK   17  A    between atoms: C_22  and  C_23
REMARK   18  A    between atoms: C_24  and  C_25
REMARK   19  A    between atoms: C_24  and  C_26
REMARK   20  A    between atoms: C_24  and  C_27
REMARK   21  A    between atoms: C_27  and  O_28
REMARK   22  A    between atoms: O_28  and  P_29
REMARK   23  A    between atoms: P_29  and  O_30
REMARK   24  A    between atoms: P_29  and  O_31
REMARK                            x       y       z     vdW  Elec       q    Type
REMARK                         _______ _______ _______ _____ _____    ______ ____
ROOT
ATOM      1  C   UNL     1       3.501  -6.257  23.452  0.00  0.00    +0.242 C 
ATOM      2  N   UNL     1       4.845  -6.544  23.337  0.00  0.00    -0.313 N 
ATOM      3  H   UNL     1       5.267  -7.123  24.057  0.00  0.00    +0.149 HD
ATOM      4  O   UNL     1       2.895  -5.536  22.663  0.00  0.00    -0.273 OA
ENDROOT
BRANCH   2   5
ATOM      5  C   UNL     1       5.690  -5.922  22.332  0.00  0.00    +0.113 C 
BRANCH   5   6
ATOM      6  C   UNL     1       7.101  -5.622  22.828  0.00  0.00    +0.114 C 
BRANCH   6   7
ATOM      7  C   UNL     1       7.074  -4.626  23.982  0.00  0.00    +0.215 C 
ATOM      8  N   UNL     1       8.251  -4.562  24.689  0.00  0.00    -0.314 N 
ATOM      9  H   UNL     1       8.980  -5.243  24.519  0.00  0.00    +0.149 HD
ATOM     10  O   UNL     1       6.086  -3.962  24.270  0.00  0.00    -0.276 OA
BRANCH   8  11
ATOM     11  C   UNL     1       8.407  -3.664  25.826  0.00  0.00    +0.115 C 
BRANCH  11  12
ATOM     12  C   UNL     1       8.596  -2.194  25.436  0.00  0.00    +0.096 C 
BRANCH  12  13
ATOM     13  S   UNL     1       7.376  -1.138  26.288  0.00  0.00    -0.087 S 
BRANCH  13  14
ATOM     14  C   UNL     1       6.537  -0.466  24.888  0.00  0.00    +0.189 C 
ATOM     15  O   UNL     1       5.316  -0.392  24.838  0.00  0.00    -0.285 OA
BRANCH  14  16
ATOM     16  C   UNL     1       7.465  -0.058  23.756  0.00  0.00    +0.086 C 
BRANCH  16  17
ATOM     17  C   UNL     1       6.811   0.962  22.828  0.00  0.00    +0.008 C 
BRANCH  17  18
ATOM     18  C   UNL     1       7.838   1.596  21.888  0.00  0.00    +0.000 C 
BRANCH  18  19
ATOM     19  C   UNL     1       9.212   0.938  22.036  0.00  0.00    +0.000 C 
BRANCH  19  20
ATOM     20  C   UNL     1      10.317   1.979  22.238  0.00  0.00    -0.000 C 
BRANCH  20  21
ATOM     21  C   UNL     1      10.635   2.167  23.721  0.00  0.00    -0.003 C 
ATOM     22  C   UNL     1      10.887   0.838  24.415  0.00  0.00    +0.004 C 
ENDBRANCH  20  21
ENDBRANCH  19  20
ENDBRANCH  18  19
ENDBRANCH  17  18
ENDBRANCH  16  17
ENDBRANCH  14  16
ENDBRANCH  13  14
ENDBRANCH  12  13
ENDBRANCH  11  12
ENDBRANCH   8  11
ENDBRANCH   6   7
ENDBRANCH   5   6
ENDBRANCH   2   5
BRANCH   1  23
ATOM     23  C   UNL     1       2.791  -6.952  24.641  0.00  0.00    +0.208 C 
BRANCH  23  24
ATOM     24  C   UNL     1       2.325  -6.007  25.794  0.00  0.00    +0.024 C 
ATOM     25  C   UNL     1       1.512  -6.783  26.848  0.00  0.00    +0.016 C 
ATOM     26  C   UNL     1       1.448  -4.858  25.260  0.00  0.00    +0.016 C 
BRANCH  24  27
ATOM     27  C   UNL     1       3.600  -5.412  26.469  0.00  0.00    +0.181 C 
BRANCH  27  28
ATOM     28  O   UNL     1       4.019  -6.146  27.626  0.00  0.00    -0.286 OA
BRANCH  28  29
ATOM     29  P   UNL     1       5.725  -6.073  27.902  0.00  0.00    +0.472 P 
ATOM     30  O   UNL     1       7.253  -6.009  28.149  0.00  0.00    -0.228 OA
BRANCH  29  31
ATOM     31  O   UNL     1       5.599  -7.623  28.407  0.00  0.00    -0.303 OA
ATOM     32  H   UNL     1       5.428  -7.618  29.367  0.00  0.00    +0.222 HD
ENDBRANCH  29  31
BRANCH  29  33
ATOM     33  O   UNL     1       5.839  -6.377  26.303  0.00  0.00    -0.303 OA
ATOM     34  H   UNL     1       4.967  -6.180  25.914  0.00  0.00    +0.222 HD
ENDBRANCH  29  33
ENDBRANCH  28  29
ENDBRANCH  27  28
ENDBRANCH  24  27
ENDBRANCH  23  24
BRANCH  23  35
ATOM     35  O   UNL     1       3.627  -7.988  25.172  0.00  0.00    -0.382 OA
ATOM     36  H   UNL     1       3.832  -8.586  24.430  0.00  0.00    +0.210 HD
ENDBRANCH  23  35
ENDBRANCH   1  23
TORSDOF 21
ENDMDL
MODEL 4
REMARK VINA RESULT:      -5.4      2.921      8.267
REMARK  Name = 
REMARK  24 active torsions:
REMARK  status: ('A' for Active; 'I' for Inactive)
REMARK    1  A    between atoms: C_2  and  O_3
REMARK    2  A    between atoms: C_2  and  C_4
REMARK    3  A    between atoms: C_2  and  C_24
REMARK    4  A    between atoms: N_6  and  C_7
REMARK    5  A    between atoms: C_7  and  C_8
REMARK    6  A    between atoms: C_8  and  C_9
REMARK    7  A    between atoms: N_11  and  C_12
REMARK    8  A    between atoms: C_12  and  C_13
REMARK    9  A    between atoms: C_13  and  S_14
REMARK   10  A    between atoms: S_14  and  C_15
REMARK   11  A    between atoms: C_15  and  C_17
REMARK   12  A    between atoms: C_17  and  C_18
REMARK   13  A    between atoms: C_18  and  C_19
REMARK   14  A    between atoms: C_19  and  C_20
REMARK   15  A    between atoms: C_20  and  C_21
REMARK   16  A    between atoms: C_21  and  C_22
REMARK   17  A    between atoms: C_22  and  C_23
REMARK   18  A    between atoms: C_24  and  C_25
REMARK   19  A    between atoms: C_24  and  C_26
REMARK   20  A    between atoms: C_24  and  C_27
REMARK   21  A    between atoms: C_27  and  O_28
REMARK   22  A    between atoms: O_28  and  P_29
REMARK   23  A    between atoms: P_29  and  O_30
REMARK   24  A    between atoms: P_29  and  O_31
REMARK                            x       y       z     vdW  Elec       q    Type
REMARK                         _______ _______ _______ _____ _____    ______ ____
ROOT
ATOM      1  C   UNL     1       9.649  -0.143  22.219  0.00  0.00    +0.242 C 
ATOM      2  N   UNL     1       8.306  -0.456  22.238  0.00  0.00    -0.313 N 
ATOM      3  H   UNL     1       7.642   0.313  22.219  0.00  0.00    +0.149 HD
ATOM      4  O   UNL     1      10.539  -0.987  22.280  0.00  0.00    -0.273 OA
ENDROOT
BRANCH   2   5
ATOM      5  C   UNL     1       7.827  -1.811  22.448  0.00  0.00    +0.113 C 
BRANCH   5   6
ATOM      6  C   UNL     1       6.495  -1.874  23.190  0.00  0.00    +0.114 C 
BRANCH   6   7
ATOM      7  C   UNL     1       6.699  -1.724  24.693  0.00  0.00    +0.215 C 
ATOM      8  N   UNL     1       5.614  -2.107  25.444  0.00  0.00    -0.314 N 
ATOM      9  H   UNL     1       4.732  -2.311  24.989  0.00  0.00    +0.149 HD
ATOM     10  O   UNL     1       7.728  -1.280  25.187  0.00  0.00    -0.276 OA
BRANCH   8  11
ATOM     11  C   UNL     1       5.630  -2.032  26.899  0.00  0.00    +0.115 C 
BRANCH  11  12
ATOM     12  C   UNL     1       5.174  -3.320  27.592  0.00  0.00    +0.096 C 
BRANCH  12  13
ATOM     13  S   UNL     1       6.419  -4.639  27.385  0.00  0.00    -0.087 S 
BRANCH  13  14
ATOM     14  C   UNL     1       5.371  -5.953  26.848  0.00  0.00    +0.189 C 
ATOM     15  O   UNL     1       5.446  -7.078  27.325  0.00  0.00    -0.285 OA
BRANCH  14  16
ATOM     16  C   UNL     1       4.432  -5.565  25.718  0.00  0.00    +0.086 C 
BRANCH  16  17
ATOM     17  C   UNL     1       4.233  -6.711  24.729  0.00  0.00    +0.008 C 
BRANCH  17  18
ATOM     18  C   UNL     1       3.856  -6.187  23.342  0.00  0.00    +0.000 C 
BRANCH  18  19
ATOM     19  C   UNL     1       4.940  -5.265  22.779  0.00  0.00    +0.000 C 
BRANCH  19  20
ATOM     20  C   UNL     1       5.969  -6.042  21.953  0.00  0.00    -0.000 C 
BRANCH  20  21
ATOM     21  C   UNL     1       7.382  -5.505  22.183  0.00  0.00    -0.003 C 
ATOM     22  C   UNL     1       7.672  -5.305  23.662  0.00  0.00    +0.004 C 
ENDBRANCH  20  21
ENDBRANCH  19  20
ENDBRANCH  18  19
ENDBRANCH  17  18
ENDBRANCH  16  17
ENDBRANCH  14  16
ENDBRANCH  13  14
ENDBRANCH  12  13
ENDBRANCH  11  12
ENDBRANCH   8  11
ENDBRANCH   6   7
ENDBRANCH   5   6
ENDBRANCH   2   5
BRANCH   1  23
ATOM     23  C   UNL     1       9.959   1.369  22.073  0.00  0.00    +0.208 C 
BRANCH  23  24
ATOM     24  C   UNL     1       9.997   2.182  23.407  0.00  0.00    +0.024 C 
ATOM     25  C   UNL     1      11.164   3.188  23.405  0.00  0.00    +0.016 C 
ATOM     26  C   UNL     1      10.162   1.253  24.625  0.00  0.00    +0.016 C 
BRANCH  24  27
ATOM     27  C   UNL     1       8.651   2.961  23.529  0.00  0.00    +0.181 C 
BRANCH  27  28
ATOM     28  O   UNL     1       7.536   2.117  23.840  0.00  0.00    -0.286 OA
BRANCH  28  29
ATOM     29  P   UNL     1       6.044   2.676  23.167  0.00  0.00    +0.472 P 
ATOM     30  O   UNL     1       4.708   3.176  22.564  0.00  0.00    -0.228 OA
BRANCH  29  31
ATOM     31  O   UNL     1       6.956   3.704  22.281  0.00  0.00    -0.303 OA
ATOM     32  H   UNL     1       7.724   3.971  22.818  0.00  0.00    +0.222 HD
ENDBRANCH  29  31
BRANCH  29  33
ATOM     33  O   UNL     1       6.177   1.375  22.191  0.00  0.00    -0.303 OA
ATOM     34  H   UNL     1       6.451   1.704  21.315  0.00  0.00    +0.222 HD
ENDBRANCH  29  33
ENDBRANCH  28  29
ENDBRANCH  27  28
ENDBRANCH  24  27
ENDBRANCH  23  24
BRANCH  23  35
ATOM     35  O   UNL     1       9.029   1.973  21.164  0.00  0.00    -0.382 OA
ATOM     36  H   UNL     1       9.323   2.894  21.039  0.00  0.00    +0.210 HD
ENDBRANCH  23  35
ENDBRANCH   1  23
TORSDOF 21
ENDMDL
MODEL 5
REMARK VINA RESULT:      -5.4      1.469      2.158
REMARK  Name = 
REMARK  24 active torsions:
REMARK  status: ('A' for Active; 'I' for Inactive)
REMARK    1  A    between atoms: C_2  and  O_3
REMARK    2  A    between atoms: C_2  and  C_4
REMARK    3  A    between atoms: C_2  and  C_24
REMARK    4  A    between atoms: N_6  and  C_7
REMARK    5  A    between atoms: C_7  and  C_8
REMARK    6  A    between atoms: C_8  and  C_9
REMARK    7  A    between atoms: N_11  and  C_12
REMARK    8  A    between atoms: C_12  and  C_13
REMARK    9  A    between atoms: C_13  and  S_14
REMARK   10  A    between atoms: S_14  and  C_15
REMARK   11  A    between atoms: C_15  and  C_17
REMARK   12  A    between atoms: C_17  and  C_18
REMARK   13  A    between atoms: C_18  and  C_19
REMARK   14  A    between atoms: C_19  and  C_20
REMARK   15  A    between atoms: C_20  and  C_21
REMARK   16  A    between atoms: C_21  and  C_22
REMARK   17  A    between atoms: C_22  and  C_23
REMARK   18  A    between atoms: C_24  and  C_25
REMARK   19  A    between atoms: C_24  and  C_26
REMARK   20  A    between atoms: C_24  and  C_27
REMARK   21  A    between atoms: C_27  and  O_28
REMARK   22  A    between atoms: O_28  and  P_29
REMARK   23  A    between atoms: P_29  and  O_30
REMARK   24  A    between atoms: P_29  and  O_31
REMARK                            x       y       z     vdW  Elec       q    Type
REMARK                         _______ _______ _______ _____ _____    ______ ____
ROOT
ATOM      1  C   UNL     1       3.876  -5.805  25.919  0.00  0.00    +0.242 C 
ATOM      2  N   UNL     1       4.752  -6.142  24.908  0.00  0.00    -0.313 N 
ATOM      3  H   UNL     1       5.648  -6.539  25.173  0.00  0.00    +0.149 HD
ATOM      4  O   UNL     1       2.783  -5.281  25.719  0.00  0.00    -0.273 OA
ENDROOT
BRANCH   2   5
ATOM      5  C   UNL     1       4.502  -5.801  23.518  0.00  0.00    +0.113 C 
BRANCH   5   6
ATOM      6  C   UNL     1       5.718  -5.999  22.619  0.00  0.00    +0.114 C 
BRANCH   6   7
ATOM      7  C   UNL     1       6.165  -4.677  22.004  0.00  0.00    +0.215 C 
ATOM      8  N   UNL     1       7.385  -4.236  22.458  0.00  0.00    -0.314 N 
ATOM      9  H   UNL     1       7.830  -4.699  23.241  0.00  0.00    +0.149 HD
ATOM     10  O   UNL     1       5.488  -4.052  21.198  0.00  0.00    -0.276 OA
BRANCH   8  11
ATOM     11  C   UNL     1       7.969  -2.991  21.980  0.00  0.00    +0.115 C 
BRANCH  11  12
ATOM     12  C   UNL     1       8.032  -1.886  23.041  0.00  0.00    +0.096 C 
BRANCH  12  13
ATOM     13  S   UNL     1       9.672  -1.855  23.842  0.00  0.00    -0.087 S 
BRANCH  13  14
ATOM     14  C   UNL     1       9.263  -0.981  25.320  0.00  0.00    +0.189 C 
ATOM     15  O   UNL     1       8.532  -1.463  26.176  0.00  0.00    -0.285 OA
BRANCH  14  16
ATOM     16  C   UNL     1       9.848   0.419  25.386  0.00  0.00    +0.086 C 
BRANCH  16  17
ATOM     17  C   UNL     1      10.839   0.672  24.253  0.00  0.00    +0.008 C 
BRANCH  17  18
ATOM     18  C   UNL     1      10.696   2.091  23.697  0.00  0.00    +0.000 C 
BRANCH  18  19
ATOM     19  C   UNL     1      10.200   2.077  22.250  0.00  0.00    +0.000 C 
BRANCH  19  20
ATOM     20  C   UNL     1       8.755   1.579  22.154  0.00  0.00    -0.000 C 
BRANCH  20  21
ATOM     21  C   UNL     1       7.772   2.633  22.667  0.00  0.00    -0.003 C 
ATOM     22  C   UNL     1       6.338   2.288  22.299  0.00  0.00    +0.004 C 
ENDBRANCH  20  21
ENDBRANCH  19  20
ENDBRANCH  18  19
ENDBRANCH  17  18
ENDBRANCH  16  17
ENDBRANCH  14  16
ENDBRANCH  13  14
ENDBRANCH  12  13
ENDBRANCH  11  12
ENDBRANCH   8  11
ENDBRANCH   6   7
ENDBRANCH   5   6
ENDBRANCH   2   5
BRANCH   1  23
ATOM     23  C   UNL     1       4.360  -6.175  27.344  0.00  0.00    +0.208 C 
BRANCH  23  24
ATOM     24  C   UNL     1       4.959  -4.999  28.180  0.00  0.00    +0.024 C 
ATOM     25  C   UNL     1       5.479  -5.500  29.541  0.00  0.00    +0.016 C 
ATOM     26  C   UNL     1       3.907  -3.903  28.440  0.00  0.00    +0.016 C 
BRANCH  24  27
ATOM     27  C   UNL     1       6.147  -4.394  27.370  0.00  0.00    +0.181 C 
BRANCH  27  28
ATOM     28  O   UNL     1       7.355  -5.156  27.487  0.00  0.00    -0.286 OA
BRANCH  28  29
ATOM     29  P   UNL     1       8.249  -5.254  26.010  0.00  0.00    +0.472 P 
ATOM     30  O   UNL     1       9.050  -5.341  24.687  0.00  0.00    -0.228 OA
BRANCH  29  31
ATOM     31  O   UNL     1       7.201  -4.142  25.429  0.00  0.00    -0.303 OA
ATOM     32  H   UNL     1       6.568  -3.920  26.137  0.00  0.00    +0.222 HD
ENDBRANCH  29  31
BRANCH  29  33
ATOM     33  O   UNL     1       9.275  -4.219  26.745  0.00  0.00    -0.303 OA
ATOM     34  H   UNL     1      10.129  -4.681  26.836  0.00  0.00    +0.222 HD
ENDBRANCH  29  33
ENDBRANCH  28  29
ENDBRANCH  27  28
ENDBRANCH  24  27
ENDBRANCH  23  24
BRANCH  23  35
ATOM     35  O   UNL     1       5.306  -7.250  27.275  0.00  0.00    -0.382 OA
ATOM     36  H   UNL     1       5.007  -7.835  26.554  0.00  0.00    +0.210 HD
ENDBRANCH  23  35
ENDBRANCH   1  23
TORSDOF 21
ENDMDL
MODEL 6
REMARK VINA RESULT:      -5.3      2.092      2.688
REMARK  Name = 
REMARK  24 active torsions:
REMARK  status: ('A' for Active; 'I' for Inactive)
REMARK    1  A    between atoms: C_2  and  O_3
REMARK    2  A    between atoms: C_2  and  C_4
REMARK    3  A    between atoms: C_2  and  C_24
REMARK    4  A    between atoms: N_6  and  C_7
REMARK    5  A    between atoms: C_7  and  C_8
REMARK    6  A    between atoms: C_8  and  C_9
REMARK    7  A    between atoms: N_11  and  C_12
REMARK    8  A    between atoms: C_12  and  C_13
REMARK    9  A    between atoms: C_13  and  S_14
REMARK   10  A    between atoms: S_14  and  C_15
REMARK   11  A    between atoms: C_15  and  C_17
REMARK   12  A    between atoms: C_17  and  C_18
REMARK   13  A    between atoms: C_18  and  C_19
REMARK   14  A    between atoms: C_19  and  C_20
REMARK   15  A    between atoms: C_20  and  C_21
REMARK   16  A    between atoms: C_21  and  C_22
REMARK   17  A    between atoms: C_22  and  C_23
REMARK   18  A    between atoms: C_24  and  C_25
REMARK   19  A    between atoms: C_24  and  C_26
REMARK   20  A    between atoms: C_24  and  C_27
REMARK   21  A    between atoms: C_27  and  O_28
REMARK   22  A    between atoms: O_28  and  P_29
REMARK   23  A    between atoms: P_29  and  O_30
REMARK   24  A    between atoms: P_29  and  O_31
REMARK                            x       y       z     vdW  Elec       q    Type
REMARK                         _______ _______ _______ _____ _____    ______ ____
ROOT
ATOM      1  C   UNL     1       4.805  -6.480  23.983  0.00  0.00    +0.242 C 
ATOM      2  N   UNL     1       5.004  -6.336  22.625  0.00  0.00    -0.313 N 
ATOM      3  H   UNL     1       4.254  -6.628  22.005  0.00  0.00    +0.149 HD
ATOM      4  O   UNL     1       5.656  -6.199  24.823  0.00  0.00    -0.273 OA
ENDROOT
BRANCH   2   5
ATOM      5  C   UNL     1       6.285  -5.943  22.065  0.00  0.00    +0.113 C 
BRANCH   5   6
ATOM      6  C   UNL     1       6.390  -4.447  21.786  0.00  0.00    +0.114 C 
BRANCH   6   7
ATOM      7  C   UNL     1       7.498  -3.812  22.619  0.00  0.00    +0.215 C 
ATOM      8  N   UNL     1       7.872  -4.557  23.710  0.00  0.00    -0.314 N 
ATOM      9  H   UNL     1       7.325  -5.366  23.981  0.00  0.00    +0.149 HD
ATOM     10  O   UNL     1       7.993  -2.723  22.353  0.00  0.00    -0.276 OA
BRANCH   8  11
ATOM     11  C   UNL     1       8.917  -4.105  24.619  0.00  0.00    +0.115 C 
BRANCH  11  12
ATOM     12  C   UNL     1       8.434  -3.875  26.056  0.00  0.00    +0.096 C 
BRANCH  12  13
ATOM     13  S   UNL     1       7.321  -2.431  26.139  0.00  0.00    -0.087 S 
BRANCH  13  14
ATOM     14  C   UNL     1       8.520  -1.140  26.251  0.00  0.00    +0.189 C 
ATOM     15  O   UNL     1       9.064  -0.852  27.309  0.00  0.00    -0.285 OA
BRANCH  14  16
ATOM     16  C   UNL     1       8.753  -0.405  24.942  0.00  0.00    +0.086 C 
BRANCH  16  17
ATOM     17  C   UNL     1      10.153   0.200  24.874  0.00  0.00    +0.008 C 
BRANCH  17  18
ATOM     18  C   UNL     1      10.343   1.015  23.592  0.00  0.00    +0.000 C 
BRANCH  18  19
ATOM     19  C   UNL     1      10.137   0.152  22.345  0.00  0.00    +0.000 C 
BRANCH  19  20
ATOM     20  C   UNL     1       9.121   0.779  21.387  0.00  0.00    -0.000 C 
BRANCH  20  21
ATOM     21  C   UNL     1       8.571   2.092  21.946  0.00  0.00    -0.003 C 
ATOM     22  C   UNL     1       7.075   2.008  22.207  0.00  0.00    +0.004 C 
ENDBRANCH  20  21
ENDBRANCH  19  20
ENDBRANCH  18  19
ENDBRANCH  17  18
ENDBRANCH  16  17
ENDBRANCH  14  16
ENDBRANCH  13  14
ENDBRANCH  12  13
ENDBRANCH  11  12
ENDBRANCH   8  11
ENDBRANCH   6   7
ENDBRANCH   5   6
ENDBRANCH   2   5
BRANCH   1  23
ATOM     23  C   UNL     1       3.397  -6.992  24.379  0.00  0.00    +0.208 C 
BRANCH  23  24
ATOM     24  C   UNL     1       2.440  -5.924  25.000  0.00  0.00    +0.024 C 
ATOM     25  C   UNL     1       0.998  -6.116  24.491  0.00  0.00    +0.016 C 
ATOM     26  C   UNL     1       2.890  -4.494  24.645  0.00  0.00    +0.016 C 
BRANCH  24  27
ATOM     27  C   UNL     1       2.463  -6.105  26.549  0.00  0.00    +0.181 C 
BRANCH  27  28
ATOM     28  O   UNL     1       3.621  -5.531  27.167  0.00  0.00    -0.286 OA
BRANCH  28  29
ATOM     29  P   UNL     1       4.160  -6.405  28.559  0.00  0.00    +0.472 P 
ATOM     30  O   UNL     1       4.642  -7.189  29.805  0.00  0.00    -0.228 OA
BRANCH  29  31
ATOM     31  O   UNL     1       5.099  -7.256  27.526  0.00  0.00    -0.303 OA
ATOM     32  H   UNL     1       5.914  -6.745  27.363  0.00  0.00    +0.222 HD
ENDBRANCH  29  31
BRANCH  29  33
ATOM     33  O   UNL     1       5.166  -5.139  28.771  0.00  0.00    -0.303 OA
ATOM     34  H   UNL     1       5.267  -5.015  29.734  0.00  0.00    +0.222 HD
ENDBRANCH  29  33
ENDBRANCH  28  29
ENDBRANCH  27  28
ENDBRANCH  24  27
ENDBRANCH  23  24
BRANCH  23  35
ATOM     35  O   UNL     1       3.517  -8.110  25.270  0.00  0.00    -0.382 OA
ATOM     36  H   UNL     1       4.366  -8.541  25.059  0.00  0.00    +0.210 HD
ENDBRANCH  23  35
ENDBRANCH   1  23
TORSDOF 21
ENDMDL
MODEL 7
REMARK VINA RESULT:      -5.3      2.026      2.691
REMARK  Name = 
REMARK  24 active torsions:
REMARK  status: ('A' for Active; 'I' for Inactive)
REMARK    1  A    between atoms: C_2  and  O_3
REMARK    2  A    between atoms: C_2  and  C_4
REMARK    3  A    between atoms: C_2  and  C_24
REMARK    4  A    between atoms: N_6  and  C_7
REMARK    5  A    between atoms: C_7  and  C_8
REMARK    6  A    between atoms: C_8  and  C_9
REMARK    7  A    between atoms: N_11  and  C_12
REMARK    8  A    between atoms: C_12  and  C_13
REMARK    9  A    between atoms: C_13  and  S_14
REMARK   10  A    between atoms: S_14  and  C_15
REMARK   11  A    between atoms: C_15  and  C_17
REMARK   12  A    between atoms: C_17  and  C_18
REMARK   13  A    between atoms: C_18  and  C_19
REMARK   14  A    between atoms: C_19  and  C_20
REMARK   15  A    between atoms: C_20  and  C_21
REMARK   16  A    between atoms: C_21  and  C_22
REMARK   17  A    between atoms: C_22  and  C_23
REMARK   18  A    between atoms: C_24  and  C_25
REMARK   19  A    between atoms: C_24  and  C_26
REMARK   20  A    between atoms: C_24  and  C_27
REMARK   21  A    between atoms: C_27  and  O_28
REMARK   22  A    between atoms: O_28  and  P_29
REMARK   23  A    between atoms: P_29  and  O_30
REMARK   24  A    between atoms: P_29  and  O_31
REMARK                            x       y       z     vdW  Elec       q    Type
REMARK                         _______ _______ _______ _____ _____    ______ ____
ROOT
ATOM      1  C   UNL     1       3.267  -6.787  26.366  0.00  0.00    +0.242 C 
ATOM      2  N   UNL     1       4.106  -6.762  25.271  0.00  0.00    -0.313 N 
ATOM      3  H   UNL     1       5.086  -6.552  25.433  0.00  0.00    +0.149 HD
ATOM      4  O   UNL     1       2.058  -6.989  26.285  0.00  0.00    -0.273 OA
ENDROOT
BRANCH   2   5
ATOM      5  C   UNL     1       3.610  -6.862  23.909  0.00  0.00    +0.113 C 
BRANCH   5   6
ATOM      6  C   UNL     1       4.199  -5.811  22.973  0.00  0.00    +0.114 C 
BRANCH   6   7
ATOM      7  C   UNL     1       4.191  -4.432  23.624  0.00  0.00    +0.215 C 
ATOM      8  N   UNL     1       5.392  -3.769  23.538  0.00  0.00    -0.314 N 
ATOM      9  H   UNL     1       6.215  -4.256  23.205  0.00  0.00    +0.149 HD
ATOM     10  O   UNL     1       3.212  -3.967  24.194  0.00  0.00    -0.276 OA
BRANCH   8  11
ATOM     11  C   UNL     1       5.568  -2.439  24.105  0.00  0.00    +0.115 C 
BRANCH  11  12
ATOM     12  C   UNL     1       7.032  -1.999  24.213  0.00  0.00    +0.096 C 
BRANCH  12  13
ATOM     13  S   UNL     1       7.927  -2.348  22.661  0.00  0.00    -0.087 S 
BRANCH  13  14
ATOM     14  C   UNL     1       9.587  -2.145  23.224  0.00  0.00    +0.189 C 
ATOM     15  O   UNL     1      10.149  -2.994  23.903  0.00  0.00    -0.285 OA
BRANCH  14  16
ATOM     16  C   UNL     1      10.206  -0.812  22.838  0.00  0.00    +0.086 C 
BRANCH  16  17
ATOM     17  C   UNL     1       9.559  -0.229  21.585  0.00  0.00    +0.008 C 
BRANCH  17  18
ATOM     18  C   UNL     1       9.572   1.301  21.614  0.00  0.00    +0.000 C 
BRANCH  18  19
ATOM     19  C   UNL     1       8.157   1.870  21.737  0.00  0.00    +0.000 C 
BRANCH  19  20
ATOM     20  C   UNL     1       8.009   2.753  22.980  0.00  0.00    -0.000 C 
BRANCH  20  21
ATOM     21  C   UNL     1       9.330   2.859  23.742  0.00  0.00    -0.003 C 
ATOM     22  C   UNL     1       9.812   4.298  23.832  0.00  0.00    +0.004 C 
ENDBRANCH  20  21
ENDBRANCH  19  20
ENDBRANCH  18  19
ENDBRANCH  17  18
ENDBRANCH  16  17
ENDBRANCH  14  16
ENDBRANCH  13  14
ENDBRANCH  12  13
ENDBRANCH  11  12
ENDBRANCH   8  11
ENDBRANCH   6   7
ENDBRANCH   5   6
ENDBRANCH   2   5
BRANCH   1  23
ATOM     23  C   UNL     1       3.974  -6.577  27.728  0.00  0.00    +0.208 C 
BRANCH  23  24
ATOM     24  C   UNL     1       4.188  -5.090  28.156  0.00  0.00    +0.024 C 
ATOM     25  C   UNL     1       4.706  -5.003  29.604  0.00  0.00    +0.016 C 
ATOM     26  C   UNL     1       2.878  -4.285  28.063  0.00  0.00    +0.016 C 
BRANCH  24  27
ATOM     27  C   UNL     1       5.248  -4.465  27.197  0.00  0.00    +0.181 C 
BRANCH  27  28
ATOM     28  O   UNL     1       6.549  -4.356  27.788  0.00  0.00    -0.286 OA
BRANCH  28  29
ATOM     29  P   UNL     1       7.821  -4.900  26.749  0.00  0.00    +0.472 P 
ATOM     30  O   UNL     1       8.960  -5.387  25.820  0.00  0.00    -0.228 OA
BRANCH  29  31
ATOM     31  O   UNL     1       7.902  -6.214  27.719  0.00  0.00    -0.303 OA
ATOM     32  H   UNL     1       8.192  -5.924  28.603  0.00  0.00    +0.222 HD
ENDBRANCH  29  31
BRANCH  29  33
ATOM     33  O   UNL     1       6.606  -5.415  25.790  0.00  0.00    -0.303 OA
ATOM     34  H   UNL     1       6.471  -6.361  25.986  0.00  0.00    +0.222 HD
ENDBRANCH  29  33
ENDBRANCH  28  29
ENDBRANCH  27  28
ENDBRANCH  24  27
ENDBRANCH  23  24
BRANCH  23  35
ATOM     35  O   UNL     1       5.231  -7.269  27.738  0.00  0.00    -0.382 OA
ATOM     36  H   UNL     1       5.024  -8.218  27.649  0.00  0.00    +0.210 HD
ENDBRANCH  23  35
ENDBRANCH   1  23
TORSDOF 21
ENDMDL
MODEL 8
REMARK VINA RESULT:      -5.3      1.577      1.965
REMARK  Name = 
REMARK  24 active torsions:
REMARK  status: ('A' for Active; 'I' for Inactive)
REMARK    1  A    between atoms: C_2  and  O_3
REMARK    2  A    between atoms: C_2  and  C_4
REMARK    3  A    between atoms: C_2  and  C_24
REMARK    4  A    between atoms: N_6  and  C_7
REMARK    5  A    between atoms: C_7  and  C_8
REMARK    6  A    between atoms: C_8  and  C_9
REMARK    7  A    between atoms: N_11  and  C_12
REMARK    8  A    between atoms: C_12  and  C_13
REMARK    9  A    between atoms: C_13  and  S_14
REMARK   10  A    between atoms: S_14  and  C_15
REMARK   11  A    between atoms: C_15  and  C_17
REMARK   12  A    between atoms: C_17  and  C_18
REMARK   13  A    between atoms: C_18  and  C_19
REMARK   14  A    between atoms: C_19  and  C_20
REMARK   15  A    between atoms: C_20  and  C_21
REMARK   16  A    between atoms: C_21  and  C_22
REMARK   17  A    between atoms: C_22  and  C_23
REMARK   18  A    between atoms: C_24  and  C_25
REMARK   19  A    between atoms: C_24  and  C_26
REMARK   20  A    between atoms: C_24  and  C_27
REMARK   21  A    between atoms: C_27  and  O_28
REMARK   22  A    between atoms: O_28  and  P_29
REMARK   23  A    between atoms: P_29  and  O_30
REMARK   24  A    between atoms: P_29  and  O_31
REMARK                            x       y       z     vdW  Elec       q    Type
REMARK                         _______ _______ _______ _____ _____    ______ ____
ROOT
ATOM      1  C   UNL     1       3.790  -6.086  23.616  0.00  0.00    +0.242 C 
ATOM      2  N   UNL     1       5.029  -6.572  23.252  0.00  0.00    -0.313 N 
ATOM      3  H   UNL     1       5.486  -7.220  23.886  0.00  0.00    +0.149 HD
ATOM      4  O   UNL     1       3.164  -5.267  22.949  0.00  0.00    -0.273 OA
ENDROOT
BRANCH   2   5
ATOM      5  C   UNL     1       5.752  -6.068  22.097  0.00  0.00    +0.113 C 
BRANCH   5   6
ATOM      6  C   UNL     1       7.231  -5.815  22.373  0.00  0.00    +0.114 C 
BRANCH   6   7
ATOM      7  C   UNL     1       7.487  -4.344  22.680  0.00  0.00    +0.215 C 
ATOM      8  N   UNL     1       8.261  -4.134  23.795  0.00  0.00    -0.314 N 
ATOM      9  H   UNL     1       8.482  -4.908  24.409  0.00  0.00    +0.149 HD
ATOM     10  O   UNL     1       7.023  -3.431  22.008  0.00  0.00    -0.276 OA
BRANCH   8  11
ATOM     11  C   UNL     1       8.606  -2.790  24.239  0.00  0.00    +0.115 C 
BRANCH  11  12
ATOM     12  C   UNL     1       9.989  -2.319  23.775  0.00  0.00    +0.096 C 
BRANCH  12  13
ATOM     13  S   UNL     1       9.833  -1.066  22.456  0.00  0.00    -0.087 S 
BRANCH  13  14
ATOM     14  C   UNL     1      10.362   0.365  23.344  0.00  0.00    +0.189 C 
ATOM     15  O   UNL     1      10.839   0.290  24.469  0.00  0.00    -0.285 OA
BRANCH  14  16
ATOM     16  C   UNL     1      10.112   1.670  22.607  0.00  0.00    +0.086 C 
BRANCH  16  17
ATOM     17  C   UNL     1      10.613   2.873  23.401  0.00  0.00    +0.008 C 
BRANCH  17  18
ATOM     18  C   UNL     1       9.481   3.866  23.677  0.00  0.00    +0.000 C 
BRANCH  18  19
ATOM     19  C   UNL     1       8.152   3.146  23.915  0.00  0.00    +0.000 C 
BRANCH  19  20
ATOM     20  C   UNL     1       8.043   2.621  25.349  0.00  0.00    -0.000 C 
BRANCH  20  21
ATOM     21  C   UNL     1       6.887   1.629  25.488  0.00  0.00    -0.003 C 
ATOM     22  C   UNL     1       6.823   0.674  24.307  0.00  0.00    +0.004 C 
ENDBRANCH  20  21
ENDBRANCH  19  20
ENDBRANCH  18  19
ENDBRANCH  17  18
ENDBRANCH  16  17
ENDBRANCH  14  16
ENDBRANCH  13  14
ENDBRANCH  12  13
ENDBRANCH  11  12
ENDBRANCH   8  11
ENDBRANCH   6   7
ENDBRANCH   5   6
ENDBRANCH   2   5
BRANCH   1  23
ATOM     23  C   UNL     1       3.221  -6.685  24.927  0.00  0.00    +0.208 C 
BRANCH  23  24
ATOM     24  C   UNL     1       3.060  -5.681  26.114  0.00  0.00    +0.024 C 
ATOM     25  C   UNL     1       2.830  -6.429  27.441  0.00  0.00    +0.016 C 
ATOM     26  C   UNL     1       1.871  -4.727  25.885  0.00  0.00    +0.016 C 
BRANCH  24  27
ATOM     27  C   UNL     1       4.376  -4.850  26.218  0.00  0.00    +0.181 C 
BRANCH  27  28
ATOM     28  O   UNL     1       5.130  -5.133  27.404  0.00  0.00    -0.286 OA
BRANCH  28  29
ATOM     29  P   UNL     1       6.839  -5.007  27.176  0.00  0.00    +0.472 P 
ATOM     30  O   UNL     1       8.371  -4.894  26.972  0.00  0.00    -0.228 OA
BRANCH  29  31
ATOM     31  O   UNL     1       6.967  -6.167  28.320  0.00  0.00    -0.303 OA
ATOM     32  H   UNL     1       7.200  -7.006  27.880  0.00  0.00    +0.222 HD
ENDBRANCH  29  31
BRANCH  29  33
ATOM     33  O   UNL     1       6.585  -5.990  25.900  0.00  0.00    -0.303 OA
ATOM     34  H   UNL     1       5.870  -5.589  25.370  0.00  0.00    +0.222 HD
ENDBRANCH  29  33
ENDBRANCH  28  29
ENDBRANCH  27  28
ENDBRANCH  24  27
ENDBRANCH  23  24
BRANCH  23  35
ATOM     35  O   UNL     1       4.020  -7.801  25.343  0.00  0.00    -0.382 OA
ATOM     36  H   UNL     1       3.454  -8.591  25.261  0.00  0.00    +0.210 HD
ENDBRANCH  23  35
ENDBRANCH   1  23
TORSDOF 21
ENDMDL
MODEL 9
REMARK VINA RESULT:      -5.2      2.775      4.152
REMARK  Name = 
REMARK  24 active torsions:
REMARK  status: ('A' for Active; 'I' for Inactive)
REMARK    1  A    between atoms: C_2  and  O_3
REMARK    2  A    between atoms: C_2  and  C_4
REMARK    3  A    between atoms: C_2  and  C_24
REMARK    4  A    between atoms: N_6  and  C_7
REMARK    5  A    between atoms: C_7  and  C_8
REMARK    6  A    between atoms: C_8  and  C_9
REMARK    7  A    between atoms: N_11  and  C_12
REMARK    8  A    between atoms: C_12  and  C_13
REMARK    9  A    between atoms: C_13  and  S_14
REMARK   10  A    between atoms: S_14  and  C_15
REMARK   11  A    between atoms: C_15  and  C_17
REMARK   12  A    between atoms: C_17  and  C_18
REMARK   13  A    between atoms: C_18  and  C_19
REMARK   14  A    between atoms: C_19  and  C_20
REMARK   15  A    between atoms: C_20  and  C_21
REMARK   16  A    between atoms: C_21  and  C_22
REMARK   17  A    between atoms: C_22  and  C_23
REMARK   18  A    between atoms: C_24  and  C_25
REMARK   19  A    between atoms: C_24  and  C_26
REMARK   20  A    between atoms: C_24  and  C_27
REMARK   21  A    between atoms: C_27  and  O_28
REMARK   22  A    between atoms: O_28  and  P_29
REMARK   23  A    between atoms: P_29  and  O_30
REMARK   24  A    between atoms: P_29  and  O_31
REMARK                            x       y       z     vdW  Elec       q    Type
REMARK                         _______ _______ _______ _____ _____    ______ ____
ROOT
ATOM      1  C   UNL     1       6.264  -5.252  26.880  0.00  0.00    +0.242 C 
ATOM      2  N   UNL     1       7.270  -4.368  26.548  0.00  0.00    -0.313 N 
ATOM      3  H   UNL     1       6.999  -3.461  26.181  0.00  0.00    +0.149 HD
ATOM      4  O   UNL     1       6.475  -6.389  27.295  0.00  0.00    -0.273 OA
ENDROOT
BRANCH   2   5
ATOM      5  C   UNL     1       8.672  -4.749  26.553  0.00  0.00    +0.113 C 
BRANCH   5   6
ATOM      6  C   UNL     1       9.392  -4.422  25.249  0.00  0.00    +0.114 C 
BRANCH   6   7
ATOM      7  C   UNL     1       8.911  -3.093  24.676  0.00  0.00    +0.215 C 
ATOM      8  N   UNL     1       8.701  -3.115  23.318  0.00  0.00    -0.314 N 
ATOM      9  H   UNL     1       9.003  -3.914  22.774  0.00  0.00    +0.149 HD
ATOM     10  O   UNL     1       8.750  -2.090  25.360  0.00  0.00    -0.276 OA
BRANCH   8  11
ATOM     11  C   UNL     1       8.241  -1.934  22.601  0.00  0.00    +0.115 C 
BRANCH  11  12
ATOM     12  C   UNL     1       9.334  -1.238  21.783  0.00  0.00    +0.096 C 
BRANCH  12  13
ATOM     13  S   UNL     1       9.160   0.576  21.885  0.00  0.00    -0.087 S 
BRANCH  13  14
ATOM     14  C   UNL     1      10.209   0.897  23.268  0.00  0.00    +0.189 C 
ATOM     15  O   UNL     1      10.870   0.014  23.798  0.00  0.00    -0.285 OA
BRANCH  14  16
ATOM     16  C   UNL     1      10.157   2.335  23.755  0.00  0.00    +0.086 C 
BRANCH  16  17
ATOM     17  C   UNL     1       8.962   2.579  24.673  0.00  0.00    +0.008 C 
BRANCH  17  18
ATOM     18  C   UNL     1       8.622   4.069  24.757  0.00  0.00    +0.000 C 
BRANCH  18  19
ATOM     19  C   UNL     1       8.896   4.780  23.430  0.00  0.00    +0.000 C 
BRANCH  19  20
ATOM     20  C   UNL     1       9.422   6.201  23.650  0.00  0.00    -0.000 C 
BRANCH  20  21
ATOM     21  C   UNL     1      10.755   6.188  24.399  0.00  0.00    -0.003 C 
ATOM     22  C   UNL     1      11.879   5.640  23.533  0.00  0.00    +0.004 C 
ENDBRANCH  20  21
ENDBRANCH  19  20
ENDBRANCH  18  19
ENDBRANCH  17  18
ENDBRANCH  16  17
ENDBRANCH  14  16
ENDBRANCH  13  14
ENDBRANCH  12  13
ENDBRANCH  11  12
ENDBRANCH   8  11
ENDBRANCH   6   7
ENDBRANCH   5   6
ENDBRANCH   2   5
BRANCH   1  23
ATOM     23  C   UNL     1       4.830  -4.686  26.728  0.00  0.00    +0.208 C 
BRANCH  23  24
ATOM     24  C   UNL     1       4.342  -4.469  25.260  0.00  0.00    +0.024 C 
ATOM     25  C   UNL     1       4.561  -3.009  24.818  0.00  0.00    +0.016 C 
ATOM     26  C   UNL     1       2.845  -4.799  25.110  0.00  0.00    +0.016 C 
BRANCH  24  27
ATOM     27  C   UNL     1       5.174  -5.412  24.336  0.00  0.00    +0.181 C 
BRANCH  27  28
ATOM     28  O   UNL     1       6.101  -4.708  23.499  0.00  0.00    -0.286 OA
BRANCH  28  29
ATOM     29  P   UNL     1       6.037  -5.199  21.842  0.00  0.00    +0.472 P 
ATOM     30  O   UNL     1       5.980  -5.639  20.358  0.00  0.00    -0.228 OA
BRANCH  29  31
ATOM     31  O   UNL     1       7.496  -5.888  22.104  0.00  0.00    -0.303 OA
ATOM     32  H   UNL     1       7.377  -6.855  22.134  0.00  0.00    +0.222 HD
ENDBRANCH  29  31
BRANCH  29  33
ATOM     33  O   UNL     1       5.117  -6.425  22.403  0.00  0.00    -0.303 OA
ATOM     34  H   UNL     1       5.083  -7.099  21.700  0.00  0.00    +0.222 HD
ENDBRANCH  29  33
ENDBRANCH  28  29
ENDBRANCH  27  28
ENDBRANCH  24  27
ENDBRANCH  23  24
BRANCH  23  35
ATOM     35  O   UNL     1       4.706  -3.462  27.465  0.00  0.00    -0.382 OA
ATOM     36  H   UNL     1       4.739  -2.741  26.810  0.00  0.00    +0.210 HD
ENDBRANCH  23  35
ENDBRANCH   1  23
TORSDOF 21
ENDMDL
