MODEL 1
REMARK VINA RESULT:      -5.3      0.000      0.000
REMARK  Name = 
REMARK  4 active torsions:
REMARK  status: ('A' for Active; 'I' for Inactive)
REMARK    1  A    between atoms: C_1  and  C_2
REMARK    2  A    between atoms: C_2  and  N_3
REMARK    3  A    between atoms: C_2  and  C_4
REMARK    4  A    between atoms: C_4  and  C_5
REMARK                            x       y       z     vdW  Elec       q    Type
REMARK                         _______ _______ _______ _____ _____    ______ ____
ROOT
ATOM      1  C   UNL     1       9.547  -1.323  24.451  0.00  0.00    -0.021 A 
ATOM      2  C   UNL     1       9.675  -0.063  23.780  0.00  0.00    +0.003 A 
ATOM      3  C   UNL     1       9.293   0.931  24.683  0.00  0.00    +0.047 A 
ATOM      4  C   UNL     1       9.273   2.291  24.351  0.00  0.00    +0.026 A 
ATOM      5  C   UNL     1       9.666   2.649  23.059  0.00  0.00    +0.002 A 
ATOM      6  C   UNL     1      10.062   1.684  22.137  0.00  0.00    +0.001 A 
ATOM      7  N   UNL     1       8.971   0.304  25.863  0.00  0.00    -0.360 N 
ATOM      8  H   UNL     1       8.658   0.780  26.697  0.00  0.00    +0.165 HD
ATOM      9  C   UNL     1      10.069   0.327  22.483  0.00  0.00    +0.010 A 
ATOM     10  C   UNL     1       9.131  -1.049  25.739  0.00  0.00    +0.087 A 
ENDROOT
BRANCH   1  11
ATOM     11  C   UNL     1       9.798  -2.685  23.869  0.00  0.00    +0.055 C 
BRANCH  11  13
ATOM     12  C   UNL     1       7.912  -4.397  24.085  0.00  0.00    +0.024 C 
ATOM     13  C   UNL     1       9.190  -3.829  24.708  0.00  0.00    +0.052 C 
BRANCH  13  14
ATOM     14  N   UNL     1      10.170  -4.915  24.870  0.00  0.00    -0.327 NA
ATOM     15  H   UNL     1      10.535  -4.898  25.822  0.00  0.00    +0.118 HD
ATOM     16  H   UNL     1       9.701  -5.815  24.767  0.00  0.00    +0.118 HD
ENDBRANCH  13  14
ENDBRANCH  11  13
ENDBRANCH   1  11
TORSDOF 3
ENDMDL
MODEL 2
REMARK VINA RESULT:      -5.3      1.810      2.371
REMARK  Name = 
REMARK  4 active torsions:
REMARK  status: ('A' for Active; 'I' for Inactive)
REMARK    1  A    between atoms: C_1  and  C_2
REMARK    2  A    between atoms: C_2  and  N_3
REMARK    3  A    between atoms: C_2  and  C_4
REMARK    4  A    between atoms: C_4  and  C_5
REMARK                            x       y       z     vdW  Elec       q    Type
REMARK                         _______ _______ _______ _____ _____    ______ ____
ROOT
ATOM      1  C   UNL     1       9.718  -1.691  23.099  0.00  0.00    -0.021 A 
ATOM      2  C   UNL     1       9.999  -0.300  23.302  0.00  0.00    +0.003 A 
ATOM      3  C   UNL     1       9.779   0.351  22.087  0.00  0.00    +0.047 A 
ATOM      4  C   UNL     1       9.983   1.726  21.915  0.00  0.00    +0.026 A 
ATOM      5  C   UNL     1      10.414   2.461  23.022  0.00  0.00    +0.002 A 
ATOM      6  C   UNL     1      10.633   1.845  24.251  0.00  0.00    +0.001 A 
ATOM      7  N   UNL     1       9.358  -0.599  21.188  0.00  0.00    -0.360 N 
ATOM      8  H   UNL     1       9.125  -0.411  20.223  0.00  0.00    +0.165 HD
ATOM      9  C   UNL     1      10.431   0.467  24.403  0.00  0.00    +0.010 A 
ATOM     10  C   UNL     1       9.305  -1.827  21.788  0.00  0.00    +0.087 A 
ENDROOT
BRANCH   1  11
ATOM     11  C   UNL     1       9.857  -2.796  24.106  0.00  0.00    +0.055 C 
BRANCH  11  13
ATOM     12  C   UNL     1       8.209  -4.747  24.220  0.00  0.00    +0.024 C 
ATOM     13  C   UNL     1       8.504  -3.307  24.645  0.00  0.00    +0.052 C 
BRANCH  13  14
ATOM     14  N   UNL     1       8.480  -3.224  26.114  0.00  0.00    -0.327 NA
ATOM     15  H   UNL     1       8.014  -2.360  26.394  0.00  0.00    +0.118 HD
ATOM     16  H   UNL     1       7.910  -3.982  26.489  0.00  0.00    +0.118 HD
ENDBRANCH  13  14
ENDBRANCH  11  13
ENDBRANCH   1  11
TORSDOF 3
ENDMDL
MODEL 3
REMARK VINA RESULT:      -5.0      2.252      3.211
REMARK  Name = 
REMARK  4 active torsions:
REMARK  status: ('A' for Active; 'I' for Inactive)
REMARK    1  A    between atoms: C_1  and  C_2
REMARK    2  A    between atoms: C_2  and  N_3
REMARK    3  A    between atoms: C_2  and  C_4
REMARK    4  A    between atoms: C_4  and  C_5
REMARK                            x       y       z     vdW  Elec       q    Type
REMARK                         _______ _______ _______ _____ _____    ______ ____
ROOT
ATOM      1  C   UNL     1       7.922  -3.134  24.292  0.00  0.00    -0.021 A 
ATOM      2  C   UNL     1       8.731  -2.036  23.852  0.00  0.00    +0.003 A 
ATOM      3  C   UNL     1       8.565  -1.923  22.470  0.00  0.00    +0.047 A 
ATOM      4  C   UNL     1       9.232  -0.963  21.701  0.00  0.00    +0.026 A 
ATOM      5  C   UNL     1      10.090  -0.082  22.364  0.00  0.00    +0.002 A 
ATOM      6  C   UNL     1      10.271  -0.160  23.743  0.00  0.00    +0.001 A 
ATOM      7  N   UNL     1       7.672  -2.896  22.089  0.00  0.00    -0.360 N 
ATOM      8  H   UNL     1       7.364  -3.050  21.140  0.00  0.00    +0.165 HD
ATOM      9  C   UNL     1       9.601  -1.132  24.496  0.00  0.00    +0.010 A 
ATOM     10  C   UNL     1       7.270  -3.622  23.177  0.00  0.00    +0.087 A 
ENDROOT
BRANCH   1  11
ATOM     11  C   UNL     1       7.812  -3.669  25.691  0.00  0.00    +0.055 C 
BRANCH  11  13
ATOM     12  C   UNL     1       9.864  -5.189  25.570  0.00  0.00    +0.024 C 
ATOM     13  C   UNL     1       8.360  -5.104  25.842  0.00  0.00    +0.052 C 
BRANCH  13  14
ATOM     14  N   UNL     1       8.086  -5.611  27.196  0.00  0.00    -0.327 NA
ATOM     15  H   UNL     1       8.902  -6.121  27.535  0.00  0.00    +0.118 HD
ATOM     16  H   UNL     1       7.963  -4.826  27.835  0.00  0.00    +0.118 HD
ENDBRANCH  13  14
ENDBRANCH  11  13
ENDBRANCH   1  11
TORSDOF 3
ENDMDL
MODEL 4
REMARK VINA RESULT:      -4.9      2.846      3.204
REMARK  Name = 
REMARK  4 active torsions:
REMARK  status: ('A' for Active; 'I' for Inactive)
REMARK    1  A    between atoms: C_1  and  C_2
REMARK    2  A    between atoms: C_2  and  N_3
REMARK    3  A    between atoms: C_2  and  C_4
REMARK    4  A    between atoms: C_4  and  C_5
REMARK                            x       y       z     vdW  Elec       q    Type
REMARK                         _______ _______ _______ _____ _____    ______ ____
ROOT
ATOM      1  C   UNL     1       7.014  -2.315  23.339  0.00  0.00    -0.021 A 
ATOM      2  C   UNL     1       7.831  -1.330  22.695  0.00  0.00    +0.003 A 
ATOM      3  C   UNL     1       7.277  -0.080  22.977  0.00  0.00    +0.047 A 
ATOM      4  C   UNL     1       7.811   1.116  22.483  0.00  0.00    +0.026 A 
ATOM      5  C   UNL     1       8.953   1.035  21.682  0.00  0.00    +0.002 A 
ATOM      6  C   UNL     1       9.537  -0.195  21.389  0.00  0.00    +0.001 A 
ATOM      7  N   UNL     1       6.184  -0.294  23.781  0.00  0.00    -0.360 N 
ATOM      8  H   UNL     1       5.586   0.437  24.141  0.00  0.00    +0.165 HD
ATOM      9  C   UNL     1       8.985  -1.383  21.886  0.00  0.00    +0.010 A 
ATOM     10  C   UNL     1       6.022  -1.632  24.015  0.00  0.00    +0.087 A 
ENDROOT
BRANCH   1  11
ATOM     11  C   UNL     1       7.184  -3.806  23.282  0.00  0.00    +0.055 C 
BRANCH  11  13
ATOM     12  C   UNL     1       7.145  -5.860  21.760  0.00  0.00    +0.024 C 
ATOM     13  C   UNL     1       6.633  -4.436  21.985  0.00  0.00    +0.052 C 
BRANCH  13  14
ATOM     14  N   UNL     1       5.162  -4.452  22.016  0.00  0.00    -0.327 NA
ATOM     15  H   UNL     1       4.831  -5.386  21.770  0.00  0.00    +0.118 HD
ATOM     16  H   UNL     1       4.839  -4.285  22.968  0.00  0.00    +0.118 HD
ENDBRANCH  13  14
ENDBRANCH  11  13
ENDBRANCH   1  11
TORSDOF 3
ENDMDL
MODEL 5
REMARK VINA RESULT:      -4.9      1.945      5.158
REMARK  Name = 
REMARK  4 active torsions:
REMARK  status: ('A' for Active; 'I' for Inactive)
REMARK    1  A    between atoms: C_1  and  C_2
REMARK    2  A    between atoms: C_2  and  N_3
REMARK    3  A    between atoms: C_2  and  C_4
REMARK    4  A    between atoms: C_4  and  C_5
REMARK                            x       y       z     vdW  Elec       q    Type
REMARK                         _______ _______ _______ _____ _____    ______ ____
ROOT
ATOM      1  C   UNL     1      10.249  -0.181  23.751  0.00  0.00    -0.021 A 
ATOM      2  C   UNL     1       9.495  -0.844  24.774  0.00  0.00    +0.003 A 
ATOM      3  C   UNL     1       9.222  -2.135  24.320  0.00  0.00    +0.047 A 
ATOM      4  C   UNL     1       8.476  -3.058  25.062  0.00  0.00    +0.026 A 
ATOM      5  C   UNL     1       8.002  -2.655  26.312  0.00  0.00    +0.002 A 
ATOM      6  C   UNL     1       8.264  -1.377  26.800  0.00  0.00    +0.001 A 
ATOM      7  N   UNL     1       9.807  -2.262  23.083  0.00  0.00    -0.360 N 
ATOM      8  H   UNL     1       9.771  -3.097  22.515  0.00  0.00    +0.165 HD
ATOM      9  C   UNL     1       9.006  -0.463  26.041  0.00  0.00    +0.010 A 
ATOM     10  C   UNL     1      10.438  -1.099  22.736  0.00  0.00    +0.087 A 
ENDROOT
BRANCH   1  11
ATOM     11  C   UNL     1      10.732   1.241  23.764  0.00  0.00    +0.055 C 
BRANCH  11  13
ATOM     12  C   UNL     1       9.819   3.629  23.703  0.00  0.00    +0.024 C 
ATOM     13  C   UNL     1       9.749   2.226  23.094  0.00  0.00    +0.052 C 
BRANCH  13  14
ATOM     14  N   UNL     1      10.024   2.313  21.651  0.00  0.00    -0.327 NA
ATOM     15  H   UNL     1      10.099   3.294  21.382  0.00  0.00    +0.118 HD
ATOM     16  H   UNL     1      10.936   1.900  21.453  0.00  0.00    +0.118 HD
ENDBRANCH  13  14
ENDBRANCH  11  13
ENDBRANCH   1  11
TORSDOF 3
ENDMDL
MODEL 6
REMARK VINA RESULT:      -4.8      1.272      1.467
REMARK  Name = 
REMARK  4 active torsions:
REMARK  status: ('A' for Active; 'I' for Inactive)
REMARK    1  A    between atoms: C_1  and  C_2
REMARK    2  A    between atoms: C_2  and  N_3
REMARK    3  A    between atoms: C_2  and  C_4
REMARK    4  A    between atoms: C_4  and  C_5
REMARK                            x       y       z     vdW  Elec       q    Type
REMARK                         _______ _______ _______ _____ _____    ______ ____
ROOT
ATOM      1  C   UNL     1       8.607  -1.312  24.750  0.00  0.00    -0.021 A 
ATOM      2  C   UNL     1       9.011  -0.443  23.684  0.00  0.00    +0.003 A 
ATOM      3  C   UNL     1       9.698   0.629  24.258  0.00  0.00    +0.047 A 
ATOM      4  C   UNL     1      10.216   1.688  23.505  0.00  0.00    +0.026 A 
ATOM      5  C   UNL     1      10.039   1.648  22.120  0.00  0.00    +0.002 A 
ATOM      6  C   UNL     1       9.368   0.588  21.514  0.00  0.00    +0.001 A 
ATOM      7  N   UNL     1       9.732   0.408  25.614  0.00  0.00    -0.360 N 
ATOM      8  H   UNL     1      10.167   1.027  26.284  0.00  0.00    +0.165 HD
ATOM      9  C   UNL     1       8.848  -0.460  22.284  0.00  0.00    +0.010 A 
ATOM     10  C   UNL     1       9.090  -0.761  25.920  0.00  0.00    +0.087 A 
ENDROOT
BRANCH   1  11
ATOM     11  C   UNL     1       7.799  -2.573  24.629  0.00  0.00    +0.055 C 
BRANCH  11  13
ATOM     12  C   UNL     1       9.421  -4.481  25.140  0.00  0.00    +0.024 C 
ATOM     13  C   UNL     1       8.604  -3.763  24.064  0.00  0.00    +0.052 C 
BRANCH  13  14
ATOM     14  N   UNL     1       7.698  -4.728  23.423  0.00  0.00    -0.327 NA
ATOM     15  H   UNL     1       7.800  -5.637  23.876  0.00  0.00    +0.118 HD
ATOM     16  H   UNL     1       6.731  -4.445  23.581  0.00  0.00    +0.118 HD
ENDBRANCH  13  14
ENDBRANCH  11  13
ENDBRANCH   1  11
TORSDOF 3
ENDMDL
MODEL 7
REMARK VINA RESULT:      -4.8      2.705      4.277
REMARK  Name = 
REMARK  4 active torsions:
REMARK  status: ('A' for Active; 'I' for Inactive)
REMARK    1  A    between atoms: C_1  and  C_2
REMARK    2  A    between atoms: C_2  and  N_3
REMARK    3  A    between atoms: C_2  and  C_4
REMARK    4  A    between atoms: C_4  and  C_5
REMARK                            x       y       z     vdW  Elec       q    Type
REMARK                         _______ _______ _______ _____ _____    ______ ____
ROOT
ATOM      1  C   UNL     1       7.271  -4.339  24.106  0.00  0.00    -0.021 A 
ATOM      2  C   UNL     1       8.013  -3.314  23.431  0.00  0.00    +0.003 A 
ATOM      3  C   UNL     1       9.265  -3.234  24.044  0.00  0.00    +0.047 A 
ATOM      4  C   UNL     1      10.244  -2.314  23.651  0.00  0.00    +0.026 A 
ATOM      5  C   UNL     1       9.940  -1.456  22.591  0.00  0.00    +0.002 A 
ATOM      6  C   UNL     1       8.705  -1.516  21.951  0.00  0.00    +0.001 A 
ATOM      7  N   UNL     1       9.293  -4.186  25.034  0.00  0.00    -0.360 N 
ATOM      8  H   UNL     1      10.080  -4.354  25.644  0.00  0.00    +0.165 HD
ATOM      9  C   UNL     1       7.734  -2.438  22.362  0.00  0.00    +0.010 A 
ATOM     10  C   UNL     1       8.106  -4.865  25.072  0.00  0.00    +0.087 A 
ENDROOT
BRANCH   1  11
ATOM     11  C   UNL     1       5.855  -4.756  23.833  0.00  0.00    +0.055 C 
BRANCH  11  13
ATOM     12  C   UNL     1       6.792  -6.265  21.995  0.00  0.00    +0.024 C 
ATOM     13  C   UNL     1       5.651  -5.338  22.417  0.00  0.00    +0.052 C 
BRANCH  13  14
ATOM     14  N   UNL     1       4.380  -6.077  22.352  0.00  0.00    -0.327 NA
ATOM     15  H   UNL     1       3.629  -5.486  22.709  0.00  0.00    +0.118 HD
ATOM     16  H   UNL     1       4.146  -6.267  21.378  0.00  0.00    +0.118 HD
ENDBRANCH  13  14
ENDBRANCH  11  13
ENDBRANCH   1  11
TORSDOF 3
ENDMDL
MODEL 8
REMARK VINA RESULT:      -4.8      1.649      2.093
REMARK  Name = 
REMARK  4 active torsions:
REMARK  status: ('A' for Active; 'I' for Inactive)
REMARK    1  A    between atoms: C_1  and  C_2
REMARK    2  A    between atoms: C_2  and  N_3
REMARK    3  A    between atoms: C_2  and  C_4
REMARK    4  A    between atoms: C_4  and  C_5
REMARK                            x       y       z     vdW  Elec       q    Type
REMARK                         _______ _______ _______ _____ _____    ______ ____
ROOT
ATOM      1  C   UNL     1       8.607  -2.241  25.541  0.00  0.00    -0.021 A 
ATOM      2  C   UNL     1       9.207  -1.428  24.525  0.00  0.00    +0.003 A 
ATOM      3  C   UNL     1       9.505  -0.192  25.101  0.00  0.00    +0.047 A 
ATOM      4  C   UNL     1      10.082   0.861  24.381  0.00  0.00    +0.026 A 
ATOM      5  C   UNL     1      10.375   0.642  23.033  0.00  0.00    +0.002 A 
ATOM      6  C   UNL     1      10.100  -0.582  22.430  0.00  0.00    +0.001 A 
ATOM      7  N   UNL     1       9.125  -0.257  26.419  0.00  0.00    -0.360 N 
ATOM      8  H   UNL     1       9.222   0.499  27.082  0.00  0.00    +0.165 HD
ATOM      9  C   UNL     1       9.516  -1.623  23.162  0.00  0.00    +0.010 A 
ATOM     10  C   UNL     1       8.596  -1.488  26.699  0.00  0.00    +0.087 A 
ENDROOT
BRANCH   1  11
ATOM     11  C   UNL     1       8.075  -3.636  25.384  0.00  0.00    +0.055 C 
BRANCH  11  13
ATOM     12  C   UNL     1       6.448  -4.421  27.193  0.00  0.00    +0.024 C 
ATOM     13  C   UNL     1       7.905  -4.380  26.727  0.00  0.00    +0.052 C 
BRANCH  13  14
ATOM     14  N   UNL     1       8.413  -5.756  26.611  0.00  0.00    -0.327 NA
ATOM     15  H   UNL     1       9.408  -5.729  26.386  0.00  0.00    +0.118 HD
ATOM     16  H   UNL     1       8.344  -6.222  27.516  0.00  0.00    +0.118 HD
ENDBRANCH  13  14
ENDBRANCH  11  13
ENDBRANCH   1  11
TORSDOF 3
ENDMDL
MODEL 9
REMARK VINA RESULT:      -4.8      2.222      5.317
REMARK  Name = 
REMARK  4 active torsions:
REMARK  status: ('A' for Active; 'I' for Inactive)
REMARK    1  A    between atoms: C_1  and  C_2
REMARK    2  A    between atoms: C_2  and  N_3
REMARK    3  A    between atoms: C_2  and  C_4
REMARK    4  A    between atoms: C_4  and  C_5
REMARK                            x       y       z     vdW  Elec       q    Type
REMARK                         _______ _______ _______ _____ _____    ______ ____
ROOT
ATOM      1  C   UNL     1       9.221  -1.523  22.489  0.00  0.00    -0.021 A 
ATOM      2  C   UNL     1       8.049  -2.270  22.841  0.00  0.00    +0.003 A 
ATOM      3  C   UNL     1       8.424  -3.200  23.812  0.00  0.00    +0.047 A 
ATOM      4  C   UNL     1       7.526  -4.119  24.368  0.00  0.00    +0.026 A 
ATOM      5  C   UNL     1       6.201  -4.080  23.928  0.00  0.00    +0.002 A 
ATOM      6  C   UNL     1       5.792  -3.158  22.968  0.00  0.00    +0.001 A 
ATOM      7  N   UNL     1       9.762  -3.011  24.059  0.00  0.00    -0.360 N 
ATOM      8  H   UNL     1      10.303  -3.548  24.721  0.00  0.00    +0.165 HD
ATOM      9  C   UNL     1       6.705  -2.250  22.416  0.00  0.00    +0.010 A 
ATOM     10  C   UNL     1      10.249  -1.997  23.279  0.00  0.00    +0.087 A 
ENDROOT
BRANCH   1  11
ATOM     11  C   UNL     1       9.325  -0.442  21.451  0.00  0.00    +0.055 C 
BRANCH  11  13
ATOM     12  C   UNL     1      10.279   1.787  22.260  0.00  0.00    +0.024 C 
ATOM     13  C   UNL     1       9.014   0.966  22.001  0.00  0.00    +0.052 C 
BRANCH  13  14
ATOM     14  N   UNL     1       8.149   1.697  21.063  0.00  0.00    -0.327 NA
ATOM     15  H   UNL     1       7.274   1.937  21.530  0.00  0.00    +0.118 HD
ATOM     16  H   UNL     1       8.586   2.585  20.817  0.00  0.00    +0.118 HD
ENDBRANCH  13  14
ENDBRANCH  11  13
ENDBRANCH   1  11
TORSDOF 3
ENDMDL
