MODEL 1
REMARK VINA RESULT:      -6.1      0.000      0.000
REMARK  Name = 
REMARK  2 active torsions:
REMARK  status: ('A' for Active; 'I' for Inactive)
REMARK    1  A    between atoms: C_2  and  C_4
REMARK    2  A    between atoms: C_4  and  N_5
REMARK                            x       y       z     vdW  Elec       q    Type
REMARK                         _______ _______ _______ _____ _____    ______ ____
ROOT
ATOM      1  N   UNL     1       8.688  -2.722  23.941  0.00  0.00    -0.254 N 
ATOM      2  C   UNL     1       8.270  -2.832  22.629  0.00  0.00    +0.409 C 
ATOM      3  O   UNL     1       7.558  -3.743  22.217  0.00  0.00    -0.226 OA
ATOM      4  O   UNL     1       8.624  -1.779  21.779  0.00  0.00    -0.411 OA
ATOM      5  C   UNL     1       9.231  -0.625  22.298  0.00  0.00    +0.138 A 
ATOM      6  C   UNL     1       9.893  -0.671  23.520  0.00  0.00    +0.012 A 
ATOM      7  C   UNL     1      10.582   0.463  23.958  0.00  0.00    +0.009 A 
ATOM      8  C   UNL     1      10.538   1.639  23.204  0.00  0.00    +0.001 A 
ATOM      9  C   UNL     1       9.807   1.687  22.015  0.00  0.00    +0.004 A 
ATOM     10  C   UNL     1       9.160   0.544  21.548  0.00  0.00    +0.047 A 
ATOM     11  C   UNL     1       9.858  -1.943  24.291  0.00  0.00    +0.150 C 
ENDROOT
BRANCH   1  12
ATOM     12  C   UNL     1       8.075  -3.567  24.965  0.00  0.00    +0.206 C 
BRANCH  12  16
ATOM     13  N   UNL     1       9.356  -4.794  26.692  0.00  0.00    -0.328 N 
ATOM     14  H   UNL     1       8.869  -4.254  27.397  0.00  0.00    +0.145 HD
ATOM     15  H   UNL     1       9.881  -5.608  26.988  0.00  0.00    +0.145 HD
ATOM     16  C   UNL     1       8.992  -4.728  25.377  0.00  0.00    +0.228 C 
ATOM     17  O   UNL     1       9.417  -5.555  24.575  0.00  0.00    -0.274 OA
ENDBRANCH  12  16
ENDBRANCH   1  12
TORSDOF 2
ENDMDL
MODEL 2
REMARK VINA RESULT:      -6.0      1.883      2.527
REMARK  Name = 
REMARK  2 active torsions:
REMARK  status: ('A' for Active; 'I' for Inactive)
REMARK    1  A    between atoms: C_2  and  C_4
REMARK    2  A    between atoms: C_4  and  N_5
REMARK                            x       y       z     vdW  Elec       q    Type
REMARK                         _______ _______ _______ _____ _____    ______ ____
ROOT
ATOM      1  N   UNL     1       8.114  -3.611  24.790  0.00  0.00    -0.254 N 
ATOM      2  C   UNL     1       9.442  -3.935  24.592  0.00  0.00    +0.409 C 
ATOM      3  O   UNL     1       9.938  -5.005  24.933  0.00  0.00    -0.226 OA
ATOM      4  O   UNL     1      10.206  -3.003  23.881  0.00  0.00    -0.411 OA
ATOM      5  C   UNL     1       9.589  -1.892  23.285  0.00  0.00    +0.138 A 
ATOM      6  C   UNL     1       8.355  -1.446  23.744  0.00  0.00    +0.012 A 
ATOM      7  C   UNL     1       7.819  -0.273  23.207  0.00  0.00    +0.009 A 
ATOM      8  C   UNL     1       8.488   0.391  22.176  0.00  0.00    +0.001 A 
ATOM      9  C   UNL     1       9.692  -0.114  21.678  0.00  0.00    +0.004 A 
ATOM     10  C   UNL     1      10.257  -1.255  22.244  0.00  0.00    +0.047 A 
ATOM     11  C   UNL     1       7.677  -2.229  24.812  0.00  0.00    +0.150 C 
ENDROOT
BRANCH   1  12
ATOM     12  C   UNL     1       7.171  -4.653  25.192  0.00  0.00    +0.206 C 
BRANCH  12  16
ATOM     13  N   UNL     1       7.897  -5.893  27.208  0.00  0.00    -0.328 N 
ATOM     14  H   UNL     1       8.599  -6.351  26.640  0.00  0.00    +0.145 HD
ATOM     15  H   UNL     1       7.967  -5.974  28.215  0.00  0.00    +0.145 HD
ATOM     16  C   UNL     1       7.155  -4.858  26.713  0.00  0.00    +0.228 C 
ATOM     17  O   UNL     1       6.489  -4.157  27.471  0.00  0.00    -0.274 OA
ENDBRANCH  12  16
ENDBRANCH   1  12
TORSDOF 2
ENDMDL
MODEL 3
REMARK VINA RESULT:      -5.6      2.557      5.577
REMARK  Name = 
REMARK  2 active torsions:
REMARK  status: ('A' for Active; 'I' for Inactive)
REMARK    1  A    between atoms: C_2  and  C_4
REMARK    2  A    between atoms: C_4  and  N_5
REMARK                            x       y       z     vdW  Elec       q    Type
REMARK                         _______ _______ _______ _____ _____    ______ ____
ROOT
ATOM      1  N   UNL     1       8.895  -0.224  23.404  0.00  0.00    -0.254 N 
ATOM      2  C   UNL     1       9.917  -0.624  24.244  0.00  0.00    +0.409 C 
ATOM      3  O   UNL     1      10.639   0.159  24.855  0.00  0.00    -0.226 OA
ATOM      4  O   UNL     1      10.042  -2.002  24.450  0.00  0.00    -0.411 OA
ATOM      5  C   UNL     1       9.074  -2.883  23.944  0.00  0.00    +0.138 A 
ATOM      6  C   UNL     1       8.260  -2.497  22.885  0.00  0.00    +0.012 A 
ATOM      7  C   UNL     1       7.384  -3.433  22.331  0.00  0.00    +0.009 A 
ATOM      8  C   UNL     1       7.285  -4.711  22.888  0.00  0.00    +0.001 A 
ATOM      9  C   UNL     1       8.060  -5.056  23.999  0.00  0.00    +0.004 A 
ATOM     10  C   UNL     1       8.972  -4.143  24.524  0.00  0.00    +0.047 A 
ATOM     11  C   UNL     1       8.386  -1.106  22.373  0.00  0.00    +0.150 C 
ENDROOT
BRANCH   1  12
ATOM     12  C   UNL     1       8.463   1.172  23.411  0.00  0.00    +0.206 C 
BRANCH  12  16
ATOM     13  N   UNL     1       9.934   2.087  21.642  0.00  0.00    -0.328 N 
ATOM     14  H   UNL     1      10.720   1.649  22.109  0.00  0.00    +0.145 HD
ATOM     15  H   UNL     1      10.069   2.438  20.703  0.00  0.00    +0.145 HD
ATOM     16  C   UNL     1       8.652   1.840  22.041  0.00  0.00    +0.228 C 
ATOM     17  O   UNL     1       7.708   2.174  21.330  0.00  0.00    -0.274 OA
ENDBRANCH  12  16
ENDBRANCH   1  12
TORSDOF 2
ENDMDL
MODEL 4
REMARK VINA RESULT:      -5.6      2.128      3.126
REMARK  Name = 
REMARK  2 active torsions:
REMARK  status: ('A' for Active; 'I' for Inactive)
REMARK    1  A    between atoms: C_2  and  C_4
REMARK    2  A    between atoms: C_4  and  N_5
REMARK                            x       y       z     vdW  Elec       q    Type
REMARK                         _______ _______ _______ _____ _____    ______ ____
ROOT
ATOM      1  N   UNL     1       7.675  -4.137  24.152  0.00  0.00    -0.254 N 
ATOM      2  C   UNL     1       9.012  -4.379  24.405  0.00  0.00    +0.409 C 
ATOM      3  O   UNL     1       9.442  -5.453  24.816  0.00  0.00    -0.226 OA
ATOM      4  O   UNL     1       9.898  -3.348  24.075  0.00  0.00    -0.411 OA
ATOM      5  C   UNL     1       9.438  -2.214  23.386  0.00  0.00    +0.138 A 
ATOM      6  C   UNL     1       8.092  -1.872  23.420  0.00  0.00    +0.012 A 
ATOM      7  C   UNL     1       7.682  -0.679  22.819  0.00  0.00    +0.009 A 
ATOM      8  C   UNL     1       8.611   0.112  22.137  0.00  0.00    +0.001 A 
ATOM      9  C   UNL     1       9.948  -0.286  22.053  0.00  0.00    +0.004 A 
ATOM     10  C   UNL     1      10.371  -1.449  22.693  0.00  0.00    +0.047 A 
ATOM     11  C   UNL     1       7.151  -2.786  24.124  0.00  0.00    +0.150 C 
ENDROOT
BRANCH   1  12
ATOM     12  C   UNL     1       6.735  -5.255  24.123  0.00  0.00    +0.206 C 
BRANCH  12  16
ATOM     13  N   UNL     1       5.187  -6.128  22.398  0.00  0.00    -0.328 N 
ATOM     14  H   UNL     1       4.416  -5.890  23.010  0.00  0.00    +0.145 HD
ATOM     15  H   UNL     1       4.981  -6.358  21.434  0.00  0.00    +0.145 HD
ATOM     16  C   UNL     1       6.463  -5.742  22.692  0.00  0.00    +0.228 C 
ATOM     17  O   UNL     1       7.344  -5.818  21.839  0.00  0.00    -0.274 OA
ENDBRANCH  12  16
ENDBRANCH   1  12
TORSDOF 2
ENDMDL
MODEL 5
REMARK VINA RESULT:      -5.6      1.974      3.020
REMARK  Name = 
REMARK  2 active torsions:
REMARK  status: ('A' for Active; 'I' for Inactive)
REMARK    1  A    between atoms: C_2  and  C_4
REMARK    2  A    between atoms: C_4  and  N_5
REMARK                            x       y       z     vdW  Elec       q    Type
REMARK                         _______ _______ _______ _____ _____    ______ ____
ROOT
ATOM      1  N   UNL     1       7.274  -2.713  23.417  0.00  0.00    -0.254 N 
ATOM      2  C   UNL     1       8.607  -2.999  23.646  0.00  0.00    +0.409 C 
ATOM      3  O   UNL     1       9.020  -4.115  23.946  0.00  0.00    -0.226 OA
ATOM      4  O   UNL     1       9.509  -1.952  23.425  0.00  0.00    -0.411 OA
ATOM      5  C   UNL     1       9.067  -0.747  22.856  0.00  0.00    +0.138 A 
ATOM      6  C   UNL     1       7.726  -0.391  22.922  0.00  0.00    +0.012 A 
ATOM      7  C   UNL     1       7.336   0.863  22.446  0.00  0.00    +0.009 A 
ATOM      8  C   UNL     1       8.277   1.706  21.850  0.00  0.00    +0.001 A 
ATOM      9  C   UNL     1       9.609   1.300  21.729  0.00  0.00    +0.004 A 
ATOM     10  C   UNL     1      10.013   0.071  22.247  0.00  0.00    +0.047 A 
ATOM     11  C   UNL     1       6.770  -1.359  23.527  0.00  0.00    +0.150 C 
ENDROOT
BRANCH   1  12
ATOM     12  C   UNL     1       6.318  -3.809  23.271  0.00  0.00    +0.206 C 
BRANCH  12  16
ATOM     13  N   UNL     1       7.101  -5.487  21.627  0.00  0.00    -0.328 N 
ATOM     14  H   UNL     1       7.472  -6.028  22.399  0.00  0.00    +0.145 HD
ATOM     15  H   UNL     1       7.032  -5.929  20.720  0.00  0.00    +0.145 HD
ATOM     16  C   UNL     1       6.320  -4.389  21.850  0.00  0.00    +0.228 C 
ATOM     17  O   UNL     1       5.680  -3.888  20.928  0.00  0.00    -0.274 OA
ENDBRANCH  12  16
ENDBRANCH   1  12
TORSDOF 2
ENDMDL
MODEL 6
REMARK VINA RESULT:      -5.6      2.203      5.245
REMARK  Name = 
REMARK  2 active torsions:
REMARK  status: ('A' for Active; 'I' for Inactive)
REMARK    1  A    between atoms: C_2  and  C_4
REMARK    2  A    between atoms: C_4  and  N_5
REMARK                            x       y       z     vdW  Elec       q    Type
REMARK                         _______ _______ _______ _____ _____    ______ ____
ROOT
ATOM      1  N   UNL     1       9.576  -0.738  23.552  0.00  0.00    -0.254 N 
ATOM      2  C   UNL     1       9.135  -1.419  22.433  0.00  0.00    +0.409 C 
ATOM      3  O   UNL     1       9.341  -1.040  21.284  0.00  0.00    -0.226 OA
ATOM      4  O   UNL     1       8.505  -2.645  22.667  0.00  0.00    -0.411 OA
ATOM      5  C   UNL     1       8.479  -3.192  23.959  0.00  0.00    +0.138 A 
ATOM      6  C   UNL     1       8.650  -2.374  25.070  0.00  0.00    +0.012 A 
ATOM      7  C   UNL     1       8.508  -2.928  26.344  0.00  0.00    +0.009 A 
ATOM      8  C   UNL     1       8.271  -4.298  26.487  0.00  0.00    +0.001 A 
ATOM      9  C   UNL     1       8.175  -5.117  25.359  0.00  0.00    +0.004 A 
ATOM     10  C   UNL     1       8.265  -4.561  24.084  0.00  0.00    +0.047 A 
ATOM     11  C   UNL     1       8.947  -0.934  24.843  0.00  0.00    +0.150 C 
ENDROOT
BRANCH   1  12
ATOM     12  C   UNL     1      10.543   0.348  23.400  0.00  0.00    +0.206 C 
BRANCH  12  16
ATOM     13  N   UNL     1       9.924   2.021  21.682  0.00  0.00    -0.328 N 
ATOM     14  H   UNL     1      10.187   1.348  20.972  0.00  0.00    +0.145 HD
ATOM     15  H   UNL     1       9.401   2.839  21.398  0.00  0.00    +0.145 HD
ATOM     16  C   UNL     1       9.869   1.668  23.001  0.00  0.00    +0.228 C 
ATOM     17  O   UNL     1       9.322   2.407  23.816  0.00  0.00    -0.274 OA
ENDBRANCH  12  16
ENDBRANCH   1  12
TORSDOF 2
ENDMDL
MODEL 7
REMARK VINA RESULT:      -5.5      1.706      2.263
REMARK  Name = 
REMARK  2 active torsions:
REMARK  status: ('A' for Active; 'I' for Inactive)
REMARK    1  A    between atoms: C_2  and  C_4
REMARK    2  A    between atoms: C_4  and  N_5
REMARK                            x       y       z     vdW  Elec       q    Type
REMARK                         _______ _______ _______ _____ _____    ______ ____
ROOT
ATOM      1  N   UNL     1       7.911  -3.153  24.223  0.00  0.00    -0.254 N 
ATOM      2  C   UNL     1       7.706  -2.386  25.354  0.00  0.00    +0.409 C 
ATOM      3  O   UNL     1       7.320  -2.846  26.425  0.00  0.00    -0.226 OA
ATOM      4  O   UNL     1       8.056  -1.035  25.255  0.00  0.00    -0.411 OA
ATOM      5  C   UNL     1       8.717  -0.558  24.112  0.00  0.00    +0.138 A 
ATOM      6  C   UNL     1       8.635  -1.256  22.913  0.00  0.00    +0.012 A 
ATOM      7  C   UNL     1       9.210  -0.700  21.768  0.00  0.00    +0.009 A 
ATOM      8  C   UNL     1       9.915   0.503  21.856  0.00  0.00    +0.001 A 
ATOM      9  C   UNL     1      10.048   1.153  23.085  0.00  0.00    +0.004 A 
ATOM     10  C   UNL     1       9.434   0.629  24.221  0.00  0.00    +0.047 A 
ATOM     11  C   UNL     1       7.909  -2.555  22.903  0.00  0.00    +0.150 C 
ENDROOT
BRANCH   1  12
ATOM     12  C   UNL     1       7.920  -4.610  24.333  0.00  0.00    +0.206 C 
BRANCH  12  16
ATOM     13  N   UNL     1       8.743  -5.747  26.373  0.00  0.00    -0.328 N 
ATOM     14  H   UNL     1       7.798  -6.073  26.539  0.00  0.00    +0.145 HD
ATOM     15  H   UNL     1       9.495  -6.164  26.907  0.00  0.00    +0.145 HD
ATOM     16  C   UNL     1       9.075  -5.114  25.210  0.00  0.00    +0.228 C 
ATOM     17  O   UNL     1      10.255  -4.942  24.915  0.00  0.00    -0.274 OA
ENDBRANCH  12  16
ENDBRANCH   1  12
TORSDOF 2
ENDMDL
MODEL 8
REMARK VINA RESULT:      -5.2      3.712      6.683
REMARK  Name = 
REMARK  2 active torsions:
REMARK  status: ('A' for Active; 'I' for Inactive)
REMARK    1  A    between atoms: C_2  and  C_4
REMARK    2  A    between atoms: C_4  and  N_5
REMARK                            x       y       z     vdW  Elec       q    Type
REMARK                         _______ _______ _______ _____ _____    ______ ____
ROOT
ATOM      1  N   UNL     1       7.208  -4.764  25.404  0.00  0.00    -0.254 N 
ATOM      2  C   UNL     1       6.991  -5.617  26.469  0.00  0.00    +0.409 C 
ATOM      3  O   UNL     1       7.664  -5.607  27.496  0.00  0.00    -0.226 OA
ATOM      4  O   UNL     1       5.878  -6.459  26.369  0.00  0.00    -0.411 OA
ATOM      5  C   UNL     1       4.971  -6.308  25.307  0.00  0.00    +0.138 A 
ATOM      6  C   UNL     1       5.365  -5.676  24.134  0.00  0.00    +0.012 A 
ATOM      7  C   UNL     1       4.478  -5.640  23.056  0.00  0.00    +0.009 A 
ATOM      8  C   UNL     1       3.193  -6.171  23.193  0.00  0.00    +0.001 A 
ATOM      9  C   UNL     1       2.791  -6.738  24.405  0.00  0.00    +0.004 A 
ATOM     10  C   UNL     1       3.689  -6.822  25.467  0.00  0.00    +0.047 A 
ATOM     11  C   UNL     1       6.733  -5.091  24.075  0.00  0.00    +0.150 C 
ENDROOT
BRANCH   1  12
ATOM     12  C   UNL     1       8.106  -3.622  25.568  0.00  0.00    +0.206 C 
BRANCH  12  16
ATOM     13  N   UNL     1       9.789  -2.801  23.949  0.00  0.00    -0.328 N 
ATOM     14  H   UNL     1       9.352  -1.889  24.000  0.00  0.00    +0.145 HD
ATOM     15  H   UNL     1      10.698  -2.874  23.510  0.00  0.00    +0.145 HD
ATOM     16  C   UNL     1       9.419  -3.807  24.795  0.00  0.00    +0.228 C 
ATOM     17  O   UNL     1      10.109  -4.819  24.892  0.00  0.00    -0.274 OA
ENDBRANCH  12  16
ENDBRANCH   1  12
TORSDOF 2
ENDMDL
MODEL 9
REMARK VINA RESULT:      -5.2      2.013      2.500
REMARK  Name = 
REMARK  2 active torsions:
REMARK  status: ('A' for Active; 'I' for Inactive)
REMARK    1  A    between atoms: C_2  and  C_4
REMARK    2  A    between atoms: C_4  and  N_5
REMARK                            x       y       z     vdW  Elec       q    Type
REMARK                         _______ _______ _______ _____ _____    ______ ____
ROOT
ATOM      1  N   UNL     1       9.090  -1.374  23.833  0.00  0.00    -0.254 N 
ATOM      2  C   UNL     1      10.193  -1.051  23.065  0.00  0.00    +0.409 C 
ATOM      3  O   UNL     1      10.770  -1.852  22.335  0.00  0.00    -0.226 OA
ATOM      4  O   UNL     1      10.583   0.292  23.081  0.00  0.00    -0.411 OA
ATOM      5  C   UNL     1       9.786   1.252  23.724  0.00  0.00    +0.138 A 
ATOM      6  C   UNL     1       8.885   0.868  24.710  0.00  0.00    +0.012 A 
ATOM      7  C   UNL     1       8.187   1.856  25.409  0.00  0.00    +0.009 A 
ATOM      8  C   UNL     1       8.348   3.200  25.064  0.00  0.00    +0.001 A 
ATOM      9  C   UNL     1       9.205   3.561  24.020  0.00  0.00    +0.004 A 
ATOM     10  C   UNL     1       9.941   2.584  23.353  0.00  0.00    +0.047 A 
ATOM     11  C   UNL     1       8.730  -0.585  24.994  0.00  0.00    +0.150 C 
ENDROOT
BRANCH   1  12
ATOM     12  C   UNL     1       8.401  -2.643  23.605  0.00  0.00    +0.206 C 
BRANCH  12  16
ATOM     13  N   UNL     1       7.947  -4.101  25.554  0.00  0.00    -0.328 N 
ATOM     14  H   UNL     1       6.968  -3.854  25.475  0.00  0.00    +0.145 HD
ATOM     15  H   UNL     1       8.199  -4.880  26.149  0.00  0.00    +0.145 HD
ATOM     16  C   UNL     1       8.847  -3.726  24.598  0.00  0.00    +0.228 C 
ATOM     17  O   UNL     1       9.968  -4.228  24.573  0.00  0.00    -0.274 OA
ENDBRANCH  12  16
ENDBRANCH   1  12
TORSDOF 2
ENDMDL
