MODEL 1
REMARK VINA RESULT:      -3.5      0.000      0.000
REMARK  Name = 
REMARK  4 active torsions:
REMARK  status: ('A' for Active; 'I' for Inactive)
REMARK    1  A    between atoms: O_1  and  C_2
REMARK    2  A    between atoms: C_2  and  C_3
REMARK    3  A    between atoms: C_3  and  C_5
REMARK    4  A    between atoms: C_5  and  O_6
REMARK                            x       y       z     vdW  Elec       q    Type
REMARK                         _______ _______ _______ _____ _____    ______ ____
ROOT
ATOM      1  C   UNL     1      12.036   5.109  23.376  0.00  0.00    +0.184 C 
ATOM      2  O   UNL     1      11.454   4.020  23.348  0.00  0.00    -0.293 OA
ENDROOT
BRANCH   1   3
ATOM      3  C   UNL     1      11.675   6.193  24.379  0.00  0.00    +0.232 C 
BRANCH   3   4
ATOM      4  O   UNL     1      12.801   6.645  25.108  0.00  0.00    -0.387 OA
ATOM      5  H   UNL     1      12.967   5.995  25.813  0.00  0.00    +0.210 HD
ENDBRANCH   3   4
ENDBRANCH   1   3
BRANCH   1   6
ATOM      6  C   UNL     1      13.222   5.386  22.464  0.00  0.00    +0.232 C 
BRANCH   6   7
ATOM      7  O   UNL     1      14.461   5.104  23.103  0.00  0.00    -0.387 OA
ATOM      8  H   UNL     1      15.130   5.671  22.669  0.00  0.00    +0.210 HD
ENDBRANCH   6   7
ENDBRANCH   1   6
TORSDOF 4
ENDMDL
MODEL 2
REMARK VINA RESULT:      -3.2      1.283      2.048
REMARK  Name = 
REMARK  4 active torsions:
REMARK  status: ('A' for Active; 'I' for Inactive)
REMARK    1  A    between atoms: O_1  and  C_2
REMARK    2  A    between atoms: C_2  and  C_3
REMARK    3  A    between atoms: C_3  and  C_5
REMARK    4  A    between atoms: C_5  and  O_6
REMARK                            x       y       z     vdW  Elec       q    Type
REMARK                         _______ _______ _______ _____ _____    ______ ____
ROOT
ATOM      1  C   UNL     1      12.150   5.739  23.904  0.00  0.00    +0.184 C 
ATOM      2  O   UNL     1      12.588   6.398  24.852  0.00  0.00    -0.293 OA
ENDROOT
BRANCH   1   3
ATOM      3  C   UNL     1      10.694   5.312  23.821  0.00  0.00    +0.232 C 
BRANCH   3   4
ATOM      4  O   UNL     1       9.945   6.130  22.942  0.00  0.00    -0.387 OA
ATOM      5  H   UNL     1       9.066   6.254  23.342  0.00  0.00    +0.210 HD
ENDBRANCH   3   4
ENDBRANCH   1   3
BRANCH   1   6
ATOM      6  C   UNL     1      13.033   5.402  22.712  0.00  0.00    +0.232 C 
BRANCH   6   7
ATOM      7  O   UNL     1      14.358   5.071  23.110  0.00  0.00    -0.387 OA
ATOM      8  H   UNL     1      14.283   4.642  23.986  0.00  0.00    +0.210 HD
ENDBRANCH   6   7
ENDBRANCH   1   6
TORSDOF 4
ENDMDL
MODEL 3
REMARK VINA RESULT:      -3.2      0.818      2.902
REMARK  Name = 
REMARK  4 active torsions:
REMARK  status: ('A' for Active; 'I' for Inactive)
REMARK    1  A    between atoms: O_1  and  C_2
REMARK    2  A    between atoms: C_2  and  C_3
REMARK    3  A    between atoms: C_3  and  C_5
REMARK    4  A    between atoms: C_5  and  O_6
REMARK                            x       y       z     vdW  Elec       q    Type
REMARK                         _______ _______ _______ _____ _____    ______ ____
ROOT
ATOM      1  C   UNL     1      12.131   5.906  23.926  0.00  0.00    +0.184 C 
ATOM      2  O   UNL     1      12.643   6.392  24.940  0.00  0.00    -0.293 OA
ENDROOT
BRANCH   1   3
ATOM      3  C   UNL     1      12.968   5.374  22.773  0.00  0.00    +0.232 C 
BRANCH   3   4
ATOM      4  O   UNL     1      14.292   5.069  23.170  0.00  0.00    -0.387 OA
ATOM      5  H   UNL     1      14.234   4.539  23.984  0.00  0.00    +0.210 HD
ENDBRANCH   3   4
ENDBRANCH   1   3
BRANCH   1   6
ATOM      6  C   UNL     1      10.624   5.725  23.820  0.00  0.00    +0.232 C 
BRANCH   6   7
ATOM      7  O   UNL     1      10.279   4.456  23.277  0.00  0.00    -0.387 OA
ATOM      8  H   UNL     1      10.754   3.789  23.814  0.00  0.00    +0.210 HD
ENDBRANCH   6   7
ENDBRANCH   1   6
TORSDOF 4
ENDMDL
MODEL 4
REMARK VINA RESULT:      -2.9      5.277      6.230
REMARK  Name = 
REMARK  4 active torsions:
REMARK  status: ('A' for Active; 'I' for Inactive)
REMARK    1  A    between atoms: O_1  and  C_2
REMARK    2  A    between atoms: C_2  and  C_3
REMARK    3  A    between atoms: C_3  and  C_5
REMARK    4  A    between atoms: C_5  and  O_6
REMARK                            x       y       z     vdW  Elec       q    Type
REMARK                         _______ _______ _______ _____ _____    ______ ____
ROOT
ATOM      1  C   UNL     1      10.259   0.242  22.962  0.00  0.00    +0.184 C 
ATOM      2  O   UNL     1      10.851   0.765  23.912  0.00  0.00    -0.293 OA
ENDROOT
BRANCH   1   3
ATOM      3  C   UNL     1       9.573   1.067  21.885  0.00  0.00    +0.232 C 
BRANCH   3   4
ATOM      4  O   UNL     1      10.268   2.267  21.605  0.00  0.00    -0.387 OA
ATOM      5  H   UNL     1      10.936   2.383  22.305  0.00  0.00    +0.210 HD
ENDBRANCH   3   4
ENDBRANCH   1   3
BRANCH   1   6
ATOM      6  C   UNL     1      10.270  -1.267  22.769  0.00  0.00    +0.232 C 
BRANCH   6   7
ATOM      7  O   UNL     1      10.150  -1.627  21.398  0.00  0.00    -0.387 OA
ATOM      8  H   UNL     1       9.360  -2.201  21.333  0.00  0.00    +0.210 HD
ENDBRANCH   6   7
ENDBRANCH   1   6
TORSDOF 4
ENDMDL
MODEL 5
REMARK VINA RESULT:      -2.9     11.198     11.739
REMARK  Name = 
REMARK  4 active torsions:
REMARK  status: ('A' for Active; 'I' for Inactive)
REMARK    1  A    between atoms: O_1  and  C_2
REMARK    2  A    between atoms: C_2  and  C_3
REMARK    3  A    between atoms: C_3  and  C_5
REMARK    4  A    between atoms: C_5  and  O_6
REMARK                            x       y       z     vdW  Elec       q    Type
REMARK                         _______ _______ _______ _____ _____    ______ ____
ROOT
ATOM      1  C   UNL     1       7.885  -4.975  25.198  0.00  0.00    +0.184 C 
ATOM      2  O   UNL     1       7.281  -5.215  24.148  0.00  0.00    -0.293 OA
ENDROOT
BRANCH   1   3
ATOM      3  C   UNL     1       7.227  -5.125  26.561  0.00  0.00    +0.232 C 
BRANCH   3   4
ATOM      4  O   UNL     1       8.019  -5.882  27.457  0.00  0.00    -0.387 OA
ATOM      5  H   UNL     1       7.615  -5.800  28.338  0.00  0.00    +0.210 HD
ENDBRANCH   3   4
ENDBRANCH   1   3
BRANCH   1   6
ATOM      6  C   UNL     1       9.362  -4.608  25.185  0.00  0.00    +0.232 C 
BRANCH   6   7
ATOM      7  O   UNL     1      10.193  -5.751  25.345  0.00  0.00    -0.387 OA
ATOM      8  H   UNL     1      10.856  -5.515  26.026  0.00  0.00    +0.210 HD
ENDBRANCH   6   7
ENDBRANCH   1   6
TORSDOF 4
ENDMDL
MODEL 6
REMARK VINA RESULT:      -2.9      5.250      6.418
REMARK  Name = 
REMARK  4 active torsions:
REMARK  status: ('A' for Active; 'I' for Inactive)
REMARK    1  A    between atoms: O_1  and  C_2
REMARK    2  A    between atoms: C_2  and  C_3
REMARK    3  A    between atoms: C_3  and  C_5
REMARK    4  A    between atoms: C_5  and  O_6
REMARK                            x       y       z     vdW  Elec       q    Type
REMARK                         _______ _______ _______ _____ _____    ______ ____
ROOT
ATOM      1  C   UNL     1      10.269   0.266  22.913  0.00  0.00    +0.184 C 
ATOM      2  O   UNL     1      10.752   0.789  23.922  0.00  0.00    -0.293 OA
ENDROOT
BRANCH   1   3
ATOM      3  C   UNL     1      10.245  -1.241  22.715  0.00  0.00    +0.232 C 
BRANCH   3   4
ATOM      4  O   UNL     1      10.067  -1.601  21.358  0.00  0.00    -0.387 OA
ATOM      5  H   UNL     1       9.174  -1.312  21.099  0.00  0.00    +0.210 HD
ENDBRANCH   3   4
ENDBRANCH   1   3
BRANCH   1   6
ATOM      6  C   UNL     1       9.578   1.108  21.850  0.00  0.00    +0.232 C 
BRANCH   6   7
ATOM      7  O   UNL     1      10.287   2.313  21.585  0.00  0.00    -0.387 OA
ATOM      8  H   UNL     1       9.671   2.891  21.090  0.00  0.00    +0.210 HD
ENDBRANCH   6   7
ENDBRANCH   1   6
TORSDOF 4
ENDMDL
MODEL 7
REMARK VINA RESULT:      -2.9     11.144     11.858
REMARK  Name = 
REMARK  4 active torsions:
REMARK  status: ('A' for Active; 'I' for Inactive)
REMARK    1  A    between atoms: O_1  and  C_2
REMARK    2  A    between atoms: C_2  and  C_3
REMARK    3  A    between atoms: C_3  and  C_5
REMARK    4  A    between atoms: C_5  and  O_6
REMARK                            x       y       z     vdW  Elec       q    Type
REMARK                         _______ _______ _______ _____ _____    ______ ____
ROOT
ATOM      1  C   UNL     1       7.956  -4.888  25.334  0.00  0.00    +0.184 C 
ATOM      2  O   UNL     1       7.167  -5.074  24.402  0.00  0.00    -0.293 OA
ENDROOT
BRANCH   1   3
ATOM      3  C   UNL     1       9.428  -4.590  25.100  0.00  0.00    +0.232 C 
BRANCH   3   4
ATOM      4  O   UNL     1      10.255  -5.694  25.417  0.00  0.00    -0.387 OA
ATOM      5  H   UNL     1       9.668  -6.450  25.598  0.00  0.00    +0.210 HD
ENDBRANCH   3   4
ENDBRANCH   1   3
BRANCH   1   6
ATOM      6  C   UNL     1       7.468  -4.849  26.775  0.00  0.00    +0.232 C 
BRANCH   6   7
ATOM      7  O   UNL     1       7.961  -5.949  27.531  0.00  0.00    -0.387 OA
ATOM      8  H   UNL     1       7.288  -6.656  27.457  0.00  0.00    +0.210 HD
ENDBRANCH   6   7
ENDBRANCH   1   6
TORSDOF 4
ENDMDL
MODEL 8
REMARK VINA RESULT:      -2.8      7.699      8.874
REMARK  Name = 
REMARK  4 active torsions:
REMARK  status: ('A' for Active; 'I' for Inactive)
REMARK    1  A    between atoms: O_1  and  C_2
REMARK    2  A    between atoms: C_2  and  C_3
REMARK    3  A    between atoms: C_3  and  C_5
REMARK    4  A    between atoms: C_5  and  O_6
REMARK                            x       y       z     vdW  Elec       q    Type
REMARK                         _______ _______ _______ _____ _____    ______ ____
ROOT
ATOM      1  C   UNL     1       9.537  -2.511  23.552  0.00  0.00    +0.184 C 
ATOM      2  O   UNL     1      10.091  -3.433  24.158  0.00  0.00    -0.293 OA
ENDROOT
BRANCH   1   3
ATOM      3  C   UNL     1      10.323  -1.458  22.787  0.00  0.00    +0.232 C 
BRANCH   3   4
ATOM      4  O   UNL     1      10.133  -1.559  21.389  0.00  0.00    -0.387 OA
ATOM      5  H   UNL     1       9.599  -2.358  21.228  0.00  0.00    +0.210 HD
ENDBRANCH   3   4
ENDBRANCH   1   3
BRANCH   1   6
ATOM      6  C   UNL     1       8.020  -2.437  23.459  0.00  0.00    +0.232 C 
BRANCH   6   7
ATOM      7  O   UNL     1       7.556  -2.710  22.142  0.00  0.00    -0.387 OA
ATOM      8  H   UNL     1       6.660  -2.321  22.080  0.00  0.00    +0.210 HD
ENDBRANCH   6   7
ENDBRANCH   1   6
TORSDOF 4
ENDMDL
MODEL 9
REMARK VINA RESULT:      -2.7      9.636     10.654
REMARK  Name = 
REMARK  4 active torsions:
REMARK  status: ('A' for Active; 'I' for Inactive)
REMARK    1  A    between atoms: O_1  and  C_2
REMARK    2  A    between atoms: C_2  and  C_3
REMARK    3  A    between atoms: C_3  and  C_5
REMARK    4  A    between atoms: C_5  and  O_6
REMARK                            x       y       z     vdW  Elec       q    Type
REMARK                         _______ _______ _______ _____ _____    ______ ____
ROOT
ATOM      1  C   UNL     1       8.358  -4.503  24.819  0.00  0.00    +0.184 C 
ATOM      2  O   UNL     1       7.331  -5.155  24.604  0.00  0.00    -0.293 OA
ENDROOT
BRANCH   1   3
ATOM      3  C   UNL     1       9.332  -4.871  25.927  0.00  0.00    +0.232 C 
BRANCH   3   4
ATOM      4  O   UNL     1      10.460  -5.571  25.437  0.00  0.00    -0.387 OA
ATOM      5  H   UNL     1      10.244  -6.520  25.465  0.00  0.00    +0.210 HD
ENDBRANCH   3   4
ENDBRANCH   1   3
BRANCH   1   6
ATOM      6  C   UNL     1       8.753  -3.345  23.914  0.00  0.00    +0.232 C 
BRANCH   6   7
ATOM      7  O   UNL     1      10.159  -3.130  23.911  0.00  0.00    -0.387 OA
ATOM      8  H   UNL     1      10.562  -3.949  23.558  0.00  0.00    +0.210 HD
ENDBRANCH   6   7
ENDBRANCH   1   6
TORSDOF 4
ENDMDL
