MODEL 1
REMARK VINA RESULT:      -5.9      0.000      0.000
REMARK  Name = 
REMARK  15 active torsions:
REMARK  status: ('A' for Active; 'I' for Inactive)
REMARK    1  A    between atoms: O_1  and  C_2
REMARK    2  A    between atoms: C_4  and  O_6
REMARK    3  A    between atoms: C_7  and  O_9
REMARK    4  A    between atoms: O_9  and  P_10
REMARK    5  A    between atoms: P_10  and  O_11
REMARK    6  A    between atoms: P_10  and  O_12
REMARK    7  A    between atoms: C_14  and  O_16
REMARK    8  A    between atoms: O_16  and  P_17
REMARK    9  A    between atoms: P_17  and  O_18
REMARK   10  A    between atoms: P_17  and  O_19
REMARK   11  A    between atoms: C_21  and  O_23
REMARK   12  A    between atoms: C_24  and  O_26
REMARK   13  A    between atoms: O_26  and  P_27
REMARK   14  A    between atoms: P_27  and  O_28
REMARK   15  A    between atoms: P_27  and  O_29
REMARK                            x       y       z     vdW  Elec       q    Type
REMARK                         _______ _______ _______ _____ _____    ______ ____
ROOT
ATOM      1  C   UNL     1       8.588  -3.948  25.119  0.00  0.00    +0.177 C 
ATOM      2  C   UNL     1       7.704  -3.123  24.136  0.00  0.00    +0.192 C 
ATOM      3  C   UNL     1       6.281  -3.008  24.638  0.00  0.00    +0.178 C 
ATOM      4  C   UNL     1       5.743  -4.426  24.910  0.00  0.00    +0.193 C 
ATOM      5  C   UNL     1       6.537  -5.090  26.040  0.00  0.00    +0.193 C 
ATOM      6  C   UNL     1       7.975  -5.278  25.570  0.00  0.00    +0.177 C 
ENDROOT
BRANCH   1   7
ATOM      7  O   UNL     1       9.851  -4.270  24.509  0.00  0.00    -0.386 OA
ATOM      8  H   UNL     1      10.250  -5.059  24.922  0.00  0.00    +0.210 HD
ENDBRANCH   1   7
BRANCH   3   9
ATOM      9  O   UNL     1       5.534  -2.367  23.606  0.00  0.00    -0.386 OA
ATOM     10  H   UNL     1       5.040  -1.613  23.992  0.00  0.00    +0.210 HD
ENDBRANCH   3   9
BRANCH   6  11
ATOM     11  O   UNL     1       8.782  -5.825  26.620  0.00  0.00    -0.386 OA
ATOM     12  H   UNL     1       8.176  -6.160  27.309  0.00  0.00    +0.210 HD
ENDBRANCH   6  11
BRANCH   2  13
ATOM     13  O   UNL     1       8.199  -1.782  23.900  0.00  0.00    -0.278 OA
BRANCH  13  14
ATOM     14  P   UNL     1       8.559  -1.182  25.482  0.00  0.00    +0.473 P 
ATOM     15  O   UNL     1       8.881  -0.644  26.898  0.00  0.00    -0.228 OA
BRANCH  14  16
ATOM     16  O   UNL     1       7.743   0.145  24.979  0.00  0.00    -0.303 OA
ATOM     17  H   UNL     1       8.261   0.907  25.296  0.00  0.00    +0.222 HD
ENDBRANCH  14  16
BRANCH  14  18
ATOM     18  O   UNL     1       9.971  -0.683  24.816  0.00  0.00    -0.303 OA
ATOM     19  H   UNL     1      10.672  -1.352  24.888  0.00  0.00    +0.222 HD
ENDBRANCH  14  18
ENDBRANCH  13  14
ENDBRANCH   2  13
BRANCH   4  20
ATOM     20  O   UNL     1       5.840  -5.257  23.707  0.00  0.00    -0.278 OA
BRANCH  20  21
ATOM     21  P   UNL     1       4.279  -5.766  23.162  0.00  0.00    +0.473 P 
ATOM     22  O   UNL     1       2.881  -6.221  22.674  0.00  0.00    -0.228 OA
BRANCH  21  23
ATOM     23  O   UNL     1       4.633  -7.244  23.783  0.00  0.00    -0.303 OA
ATOM     24  H   UNL     1       5.543  -7.176  24.129  0.00  0.00    +0.222 HD
ENDBRANCH  21  23
BRANCH  21  25
ATOM     25  O   UNL     1       5.035  -6.110  21.750  0.00  0.00    -0.303 OA
ATOM     26  H   UNL     1       5.883  -5.646  21.658  0.00  0.00    +0.222 HD
ENDBRANCH  21  25
ENDBRANCH  20  21
ENDBRANCH   4  20
BRANCH   5  27
ATOM     27  O   UNL     1       6.034  -6.376  26.392  0.00  0.00    -0.278 OA
BRANCH  27  28
ATOM     28  P   UNL     1       4.826  -6.489  27.432  0.00  0.00    +0.473 P 
ATOM     29  O   UNL     1       4.372  -5.234  28.085  0.00  0.00    -0.228 OA
BRANCH  28  30
ATOM     30  O   UNL     1       5.438  -7.602  28.396  0.00  0.00    -0.303 OA
ATOM     31  H   UNL     1       5.071  -8.472  28.151  0.00  0.00    +0.222 HD
ENDBRANCH  28  30
BRANCH  28  32
ATOM     32  O   UNL     1       3.761  -7.361  26.635  0.00  0.00    -0.303 OA
ATOM     33  H   UNL     1       2.921  -6.877  26.545  0.00  0.00    +0.222 HD
ENDBRANCH  28  32
ENDBRANCH  27  28
ENDBRANCH   5  27
TORSDOF 15
ENDMDL
MODEL 2
REMARK VINA RESULT:      -5.9      2.420      6.993
REMARK  Name = 
REMARK  15 active torsions:
REMARK  status: ('A' for Active; 'I' for Inactive)
REMARK    1  A    between atoms: O_1  and  C_2
REMARK    2  A    between atoms: C_4  and  O_6
REMARK    3  A    between atoms: C_7  and  O_9
REMARK    4  A    between atoms: O_9  and  P_10
REMARK    5  A    between atoms: P_10  and  O_11
REMARK    6  A    between atoms: P_10  and  O_12
REMARK    7  A    between atoms: C_14  and  O_16
REMARK    8  A    between atoms: O_16  and  P_17
REMARK    9  A    between atoms: P_17  and  O_18
REMARK   10  A    between atoms: P_17  and  O_19
REMARK   11  A    between atoms: C_21  and  O_23
REMARK   12  A    between atoms: C_24  and  O_26
REMARK   13  A    between atoms: O_26  and  P_27
REMARK   14  A    between atoms: P_27  and  O_28
REMARK   15  A    between atoms: P_27  and  O_29
REMARK                            x       y       z     vdW  Elec       q    Type
REMARK                         _______ _______ _______ _____ _____    ______ ____
ROOT
ATOM      1  C   UNL     1       8.977  -3.375  24.032  0.00  0.00    +0.177 C 
ATOM      2  C   UNL     1       7.720  -3.393  24.951  0.00  0.00    +0.192 C 
ATOM      3  C   UNL     1       6.696  -2.371  24.504  0.00  0.00    +0.178 C 
ATOM      4  C   UNL     1       7.382  -0.994  24.424  0.00  0.00    +0.193 C 
ATOM      5  C   UNL     1       8.469  -1.003  23.344  0.00  0.00    +0.193 C 
ATOM      6  C   UNL     1       9.559  -1.981  23.768  0.00  0.00    +0.177 C 
ENDROOT
BRANCH   1   7
ATOM      7  O   UNL     1      10.038  -4.152  24.618  0.00  0.00    -0.386 OA
ATOM      8  H   UNL     1      10.737  -4.341  23.963  0.00  0.00    +0.210 HD
ENDBRANCH   1   7
BRANCH   3   9
ATOM      9  O   UNL     1       5.663  -2.371  25.486  0.00  0.00    -0.386 OA
ATOM     10  H   UNL     1       4.925  -2.938  25.174  0.00  0.00    +0.210 HD
ENDBRANCH   3   9
BRANCH   6  11
ATOM     11  O   UNL     1      10.565  -2.087  22.752  0.00  0.00    -0.386 OA
ATOM     12  H   UNL     1      11.204  -2.764  23.045  0.00  0.00    +0.210 HD
ENDBRANCH   6  11
BRANCH   2  13
ATOM     13  O   UNL     1       7.062  -4.682  25.006  0.00  0.00    -0.278 OA
BRANCH  13  14
ATOM     14  P   UNL     1       7.067  -5.086  26.688  0.00  0.00    +0.473 P 
ATOM     15  O   UNL     1       7.072  -5.447  28.194  0.00  0.00    -0.228 OA
BRANCH  14  16
ATOM     16  O   UNL     1       8.416  -5.930  26.308  0.00  0.00    -0.303 OA
ATOM     17  H   UNL     1       9.163  -5.361  26.569  0.00  0.00    +0.222 HD
ENDBRANCH  14  16
BRANCH  14  18
ATOM     18  O   UNL     1       6.065  -6.307  26.252  0.00  0.00    -0.303 OA
ATOM     19  H   UNL     1       5.213  -5.985  25.912  0.00  0.00    +0.222 HD
ENDBRANCH  14  18
ENDBRANCH  13  14
ENDBRANCH   2  13
BRANCH   4  20
ATOM     20  O   UNL     1       7.990  -0.642  25.710  0.00  0.00    -0.278 OA
BRANCH  20  21
ATOM     21  P   UNL     1       7.265   0.777  26.385  0.00  0.00    +0.473 P 
ATOM     22  O   UNL     1       6.616   2.047  26.988  0.00  0.00    -0.228 OA
BRANCH  21  23
ATOM     23  O   UNL     1       8.517   1.622  25.742  0.00  0.00    -0.303 OA
ATOM     24  H   UNL     1       8.152   2.098  24.974  0.00  0.00    +0.222 HD
ENDBRANCH  21  23
BRANCH  21  25
ATOM     25  O   UNL     1       8.123   0.408  27.731  0.00  0.00    -0.303 OA
ATOM     26  H   UNL     1       9.080   0.517  27.604  0.00  0.00    +0.222 HD
ENDBRANCH  21  25
ENDBRANCH  20  21
ENDBRANCH   4  20
BRANCH   5  27
ATOM     27  O   UNL     1       9.087   0.270  23.168  0.00  0.00    -0.278 OA
BRANCH  27  28
ATOM     28  P   UNL     1       8.914   1.041  21.779  0.00  0.00    +0.473 P 
ATOM     29  O   UNL     1       7.598   1.678  21.515  0.00  0.00    -0.228 OA
BRANCH  28  30
ATOM     30  O   UNL     1       9.335  -0.139  20.792  0.00  0.00    -0.303 OA
ATOM     31  H   UNL     1       8.557  -0.701  20.618  0.00  0.00    +0.222 HD
ENDBRANCH  28  30
BRANCH  28  32
ATOM     32  O   UNL     1      10.223   1.943  21.716  0.00  0.00    -0.303 OA
ATOM     33  H   UNL     1      11.016   1.388  21.618  0.00  0.00    +0.222 HD
ENDBRANCH  28  32
ENDBRANCH  27  28
ENDBRANCH   5  27
TORSDOF 15
ENDMDL
MODEL 3
REMARK VINA RESULT:      -5.7      2.960      7.254
REMARK  Name = 
REMARK  15 active torsions:
REMARK  status: ('A' for Active; 'I' for Inactive)
REMARK    1  A    between atoms: O_1  and  C_2
REMARK    2  A    between atoms: C_4  and  O_6
REMARK    3  A    between atoms: C_7  and  O_9
REMARK    4  A    between atoms: O_9  and  P_10
REMARK    5  A    between atoms: P_10  and  O_11
REMARK    6  A    between atoms: P_10  and  O_12
REMARK    7  A    between atoms: C_14  and  O_16
REMARK    8  A    between atoms: O_16  and  P_17
REMARK    9  A    between atoms: P_17  and  O_18
REMARK   10  A    between atoms: P_17  and  O_19
REMARK   11  A    between atoms: C_21  and  O_23
REMARK   12  A    between atoms: C_24  and  O_26
REMARK   13  A    between atoms: O_26  and  P_27
REMARK   14  A    between atoms: P_27  and  O_28
REMARK   15  A    between atoms: P_27  and  O_29
REMARK                            x       y       z     vdW  Elec       q    Type
REMARK                         _______ _______ _______ _____ _____    ______ ____
ROOT
ATOM      1  C   UNL     1       8.497  -2.981  23.449  0.00  0.00    +0.177 C 
ATOM      2  C   UNL     1       7.128  -2.841  24.179  0.00  0.00    +0.192 C 
ATOM      3  C   UNL     1       6.376  -1.615  23.710  0.00  0.00    +0.178 C 
ATOM      4  C   UNL     1       7.291  -0.387  23.874  0.00  0.00    +0.193 C 
ATOM      5  C   UNL     1       8.514  -0.508  22.960  0.00  0.00    +0.193 C 
ATOM      6  C   UNL     1       9.342  -1.703  23.420  0.00  0.00    +0.177 C 
ENDROOT
BRANCH   1   7
ATOM      7  O   UNL     1       9.306  -3.987  24.087  0.00  0.00    -0.386 OA
ATOM      8  H   UNL     1       9.152  -4.865  23.690  0.00  0.00    +0.210 HD
ENDBRANCH   1   7
BRANCH   3   9
ATOM      9  O   UNL     1       5.219  -1.505  24.535  0.00  0.00    -0.386 OA
ATOM     10  H   UNL     1       5.471  -1.687  25.465  0.00  0.00    +0.210 HD
ENDBRANCH   3   9
BRANCH   6  11
ATOM     11  O   UNL     1      10.460  -1.909  22.547  0.00  0.00    -0.386 OA
ATOM     12  H   UNL     1      10.418  -1.223  21.854  0.00  0.00    +0.210 HD
ENDBRANCH   6  11
BRANCH   2  13
ATOM     13  O   UNL     1       6.260  -3.987  24.004  0.00  0.00    -0.278 OA
BRANCH  13  14
ATOM     14  P   UNL     1       5.961  -4.032  22.300  0.00  0.00    +0.473 P 
ATOM     15  O   UNL     1       5.693  -4.072  20.776  0.00  0.00    -0.228 OA
BRANCH  14  16
ATOM     16  O   UNL     1       4.392  -4.149  22.750  0.00  0.00    -0.303 OA
ATOM     17  H   UNL     1       4.253  -3.442  23.405  0.00  0.00    +0.222 HD
ENDBRANCH  14  16
BRANCH  14  18
ATOM     18  O   UNL     1       6.221  -5.644  22.441  0.00  0.00    -0.303 OA
ATOM     19  H   UNL     1       7.107  -5.848  22.786  0.00  0.00    +0.222 HD
ENDBRANCH  14  18
ENDBRANCH  13  14
ENDBRANCH   2  13
BRANCH   4  20
ATOM     20  O   UNL     1       7.744  -0.261  25.262  0.00  0.00    -0.278 OA
BRANCH  20  21
ATOM     21  P   UNL     1       7.046   1.123  26.032  0.00  0.00    +0.473 P 
ATOM     22  O   UNL     1       6.421   2.362  26.720  0.00  0.00    -0.228 OA
BRANCH  21  23
ATOM     23  O   UNL     1       6.309   1.446  24.600  0.00  0.00    -0.303 OA
ATOM     24  H   UNL     1       6.674   2.298  24.299  0.00  0.00    +0.222 HD
ENDBRANCH  21  23
BRANCH  21  25
ATOM     25  O   UNL     1       8.415   1.898  25.572  0.00  0.00    -0.303 OA
ATOM     26  H   UNL     1       8.759   2.488  26.262  0.00  0.00    +0.222 HD
ENDBRANCH  21  25
ENDBRANCH  20  21
ENDBRANCH   4  20
BRANCH   5  27
ATOM     27  O   UNL     1       9.361   0.638  23.009  0.00  0.00    -0.278 OA
BRANCH  27  28
ATOM     28  P   UNL     1       9.010   1.912  22.110  0.00  0.00    +0.473 P 
ATOM     29  O   UNL     1       7.984   2.851  22.631  0.00  0.00    -0.228 OA
BRANCH  28  30
ATOM     30  O   UNL     1       8.649   1.158  20.751  0.00  0.00    -0.303 OA
ATOM     31  H   UNL     1       8.941   1.705  19.998  0.00  0.00    +0.222 HD
ENDBRANCH  28  30
BRANCH  28  32
ATOM     32  O   UNL     1      10.448   2.484  21.742  0.00  0.00    -0.303 OA
ATOM     33  H   UNL     1      10.753   2.122  20.891  0.00  0.00    +0.222 HD
ENDBRANCH  28  32
ENDBRANCH  27  28
ENDBRANCH   5  27
TORSDOF 15
ENDMDL
MODEL 4
REMARK VINA RESULT:      -5.7      2.664      3.806
REMARK  Name = 
REMARK  15 active torsions:
REMARK  status: ('A' for Active; 'I' for Inactive)
REMARK    1  A    between atoms: O_1  and  C_2
REMARK    2  A    between atoms: C_4  and  O_6
REMARK    3  A    between atoms: C_7  and  O_9
REMARK    4  A    between atoms: O_9  and  P_10
REMARK    5  A    between atoms: P_10  and  O_11
REMARK    6  A    between atoms: P_10  and  O_12
REMARK    7  A    between atoms: C_14  and  O_16
REMARK    8  A    between atoms: O_16  and  P_17
REMARK    9  A    between atoms: P_17  and  O_18
REMARK   10  A    between atoms: P_17  and  O_19
REMARK   11  A    between atoms: C_21  and  O_23
REMARK   12  A    between atoms: C_24  and  O_26
REMARK   13  A    between atoms: O_26  and  P_27
REMARK   14  A    between atoms: P_27  and  O_28
REMARK   15  A    between atoms: P_27  and  O_29
REMARK                            x       y       z     vdW  Elec       q    Type
REMARK                         _______ _______ _______ _____ _____    ______ ____
ROOT
ATOM      1  C   UNL     1       9.230  -0.798  22.581  0.00  0.00    +0.177 C 
ATOM      2  C   UNL     1       7.778  -0.242  22.674  0.00  0.00    +0.192 C 
ATOM      3  C   UNL     1       7.124  -0.623  23.985  0.00  0.00    +0.178 C 
ATOM      4  C   UNL     1       7.211  -2.153  24.147  0.00  0.00    +0.193 C 
ATOM      5  C   UNL     1       8.673  -2.595  24.260  0.00  0.00    +0.193 C 
ATOM      6  C   UNL     1       9.373  -2.281  22.942  0.00  0.00    +0.177 C 
ENDROOT
BRANCH   1   7
ATOM      7  O   UNL     1       9.736  -0.657  21.241  0.00  0.00    -0.386 OA
ATOM      8  H   UNL     1      10.468  -1.281  21.075  0.00  0.00    +0.210 HD
ENDBRANCH   1   7
BRANCH   3   9
ATOM      9  O   UNL     1       5.767  -0.193  23.906  0.00  0.00    -0.386 OA
ATOM     10  H   UNL     1       5.747   0.785  23.829  0.00  0.00    +0.210 HD
ENDBRANCH   3   9
BRANCH   6  11
ATOM     11  O   UNL     1      10.767  -2.604  23.022  0.00  0.00    -0.386 OA
ATOM     12  H   UNL     1      11.217  -1.850  23.449  0.00  0.00    +0.210 HD
ENDBRANCH   6  11
BRANCH   2  13
ATOM     13  O   UNL     1       7.701   1.199  22.545  0.00  0.00    -0.278 OA
BRANCH  13  14
ATOM     14  P   UNL     1       9.140   1.768  23.319  0.00  0.00    +0.473 P 
ATOM     15  O   UNL     1      10.428   2.278  24.011  0.00  0.00    -0.228 OA
BRANCH  14  16
ATOM     16  O   UNL     1       8.221   3.068  23.696  0.00  0.00    -0.303 OA
ATOM     17  H   UNL     1       7.349   2.899  23.294  0.00  0.00    +0.222 HD
ENDBRANCH  14  16
BRANCH  14  18
ATOM     18  O   UNL     1       9.532   2.356  21.839  0.00  0.00    -0.303 OA
ATOM     19  H   UNL     1      10.373   1.998  21.509  0.00  0.00    +0.222 HD
ENDBRANCH  14  18
ENDBRANCH  13  14
ENDBRANCH   2  13
BRANCH   4  20
ATOM     20  O   UNL     1       6.594  -2.830  23.004  0.00  0.00    -0.278 OA
BRANCH  20  21
ATOM     21  P   UNL     1       5.270  -3.828  23.499  0.00  0.00    +0.473 P 
ATOM     22  O   UNL     1       4.085  -4.721  23.943  0.00  0.00    -0.228 OA
BRANCH  21  23
ATOM     23  O   UNL     1       6.311  -5.097  23.444  0.00  0.00    -0.303 OA
ATOM     24  H   UNL     1       7.179  -4.719  23.211  0.00  0.00    +0.222 HD
ENDBRANCH  21  23
BRANCH  21  25
ATOM     25  O   UNL     1       4.941  -3.949  21.899  0.00  0.00    -0.303 OA
ATOM     26  H   UNL     1       5.216  -3.162  21.401  0.00  0.00    +0.222 HD
ENDBRANCH  21  25
ENDBRANCH  20  21
ENDBRANCH   4  20
BRANCH   5  27
ATOM     27  O   UNL     1       8.814  -3.994  24.492  0.00  0.00    -0.278 OA
BRANCH  27  28
ATOM     28  P   UNL     1       8.863  -4.540  25.993  0.00  0.00    +0.473 P 
ATOM     29  O   UNL     1       8.808  -3.533  27.085  0.00  0.00    -0.228 OA
BRANCH  28  30
ATOM     30  O   UNL     1      10.204  -5.398  25.896  0.00  0.00    -0.303 OA
ATOM     31  H   UNL     1       9.998  -6.333  26.085  0.00  0.00    +0.222 HD
ENDBRANCH  28  30
BRANCH  28  32
ATOM     32  O   UNL     1       7.781  -5.705  25.975  0.00  0.00    -0.303 OA
ATOM     33  H   UNL     1       7.908  -6.302  26.733  0.00  0.00    +0.222 HD
ENDBRANCH  28  32
ENDBRANCH  27  28
ENDBRANCH   5  27
TORSDOF 15
ENDMDL
MODEL 5
REMARK VINA RESULT:      -5.5      3.598      5.517
REMARK  Name = 
REMARK  15 active torsions:
REMARK  status: ('A' for Active; 'I' for Inactive)
REMARK    1  A    between atoms: O_1  and  C_2
REMARK    2  A    between atoms: C_4  and  O_6
REMARK    3  A    between atoms: C_7  and  O_9
REMARK    4  A    between atoms: O_9  and  P_10
REMARK    5  A    between atoms: P_10  and  O_11
REMARK    6  A    between atoms: P_10  and  O_12
REMARK    7  A    between atoms: C_14  and  O_16
REMARK    8  A    between atoms: O_16  and  P_17
REMARK    9  A    between atoms: P_17  and  O_18
REMARK   10  A    between atoms: P_17  and  O_19
REMARK   11  A    between atoms: C_21  and  O_23
REMARK   12  A    between atoms: C_24  and  O_26
REMARK   13  A    between atoms: O_26  and  P_27
REMARK   14  A    between atoms: P_27  and  O_28
REMARK   15  A    between atoms: P_27  and  O_29
REMARK                            x       y       z     vdW  Elec       q    Type
REMARK                         _______ _______ _______ _____ _____    ______ ____
ROOT
ATOM      1  C   UNL     1       9.845   0.521  22.633  0.00  0.00    +0.177 C 
ATOM      2  C   UNL     1       9.186   1.349  23.776  0.00  0.00    +0.192 C 
ATOM      3  C   UNL     1       9.016   0.520  25.031  0.00  0.00    +0.178 C 
ATOM      4  C   UNL     1       8.239  -0.760  24.669  0.00  0.00    +0.193 C 
ATOM      5  C   UNL     1       9.054  -1.623  23.700  0.00  0.00    +0.193 C 
ATOM      6  C   UNL     1       9.213  -0.855  22.392  0.00  0.00    +0.177 C 
ENDROOT
BRANCH   1   7
ATOM      7  O   UNL     1       9.757   1.231  21.384  0.00  0.00    -0.386 OA
ATOM      8  H   UNL     1       9.337   0.681  20.697  0.00  0.00    +0.210 HD
ENDBRANCH   1   7
BRANCH   3   9
ATOM      9  O   UNL     1       8.282   1.320  25.955  0.00  0.00    -0.386 OA
ATOM     10  H   UNL     1       8.581   2.252  25.877  0.00  0.00    +0.210 HD
ENDBRANCH   3   9
BRANCH   6  11
ATOM     11  O   UNL     1      10.037  -1.586  21.475  0.00  0.00    -0.386 OA
ATOM     12  H   UNL     1      10.534  -0.933  20.946  0.00  0.00    +0.210 HD
ENDBRANCH   6  11
BRANCH   2  13
ATOM     13  O   UNL     1       9.931   2.540  24.131  0.00  0.00    -0.278 OA
BRANCH  13  14
ATOM     14  P   UNL     1       8.922   3.841  23.602  0.00  0.00    +0.473 P 
ATOM     15  O   UNL     1       8.019   5.007  23.128  0.00  0.00    -0.228 OA
BRANCH  14  16
ATOM     16  O   UNL     1      10.338   4.642  23.425  0.00  0.00    -0.303 OA
ATOM     17  H   UNL     1      10.209   5.236  22.663  0.00  0.00    +0.222 HD
ENDBRANCH  14  16
BRANCH  14  18
ATOM     18  O   UNL     1       8.804   4.209  25.195  0.00  0.00    -0.303 OA
ATOM     19  H   UNL     1       7.984   4.687  25.406  0.00  0.00    +0.222 HD
ENDBRANCH  14  18
ENDBRANCH  13  14
ENDBRANCH   2  13
BRANCH   4  20
ATOM     20  O   UNL     1       6.954  -0.428  24.048  0.00  0.00    -0.278 OA
BRANCH  20  21
ATOM     21  P   UNL     1       5.631  -0.781  25.105  0.00  0.00    +0.473 P 
ATOM     22  O   UNL     1       4.446  -1.096  26.052  0.00  0.00    -0.228 OA
BRANCH  21  23
ATOM     23  O   UNL     1       6.741  -1.346  26.174  0.00  0.00    -0.303 OA
ATOM     24  H   UNL     1       6.523  -0.931  27.030  0.00  0.00    +0.222 HD
ENDBRANCH  21  23
BRANCH  21  25
ATOM     25  O   UNL     1       5.564  -2.217  24.320  0.00  0.00    -0.303 OA
ATOM     26  H   UNL     1       5.260  -2.127  23.403  0.00  0.00    +0.222 HD
ENDBRANCH  21  25
ENDBRANCH  20  21
ENDBRANCH   4  20
BRANCH   5  27
ATOM     27  O   UNL     1       8.419  -2.861  23.390  0.00  0.00    -0.278 OA
BRANCH  27  28
ATOM     28  P   UNL     1       8.543  -4.083  24.411  0.00  0.00    +0.473 P 
ATOM     29  O   UNL     1       7.780  -3.987  25.683  0.00  0.00    -0.228 OA
BRANCH  28  30
ATOM     30  O   UNL     1      10.131  -4.128  24.546  0.00  0.00    -0.303 OA
ATOM     31  H   UNL     1      10.520  -3.468  23.943  0.00  0.00    +0.222 HD
ENDBRANCH  28  30
BRANCH  28  32
ATOM     32  O   UNL     1       8.303  -5.346  23.474  0.00  0.00    -0.303 OA
ATOM     33  H   UNL     1       8.015  -6.112  23.999  0.00  0.00    +0.222 HD
ENDBRANCH  28  32
ENDBRANCH  27  28
ENDBRANCH   5  27
TORSDOF 15
ENDMDL
MODEL 6
REMARK VINA RESULT:      -5.4      1.652      2.390
REMARK  Name = 
REMARK  15 active torsions:
REMARK  status: ('A' for Active; 'I' for Inactive)
REMARK    1  A    between atoms: O_1  and  C_2
REMARK    2  A    between atoms: C_4  and  O_6
REMARK    3  A    between atoms: C_7  and  O_9
REMARK    4  A    between atoms: O_9  and  P_10
REMARK    5  A    between atoms: P_10  and  O_11
REMARK    6  A    between atoms: P_10  and  O_12
REMARK    7  A    between atoms: C_14  and  O_16
REMARK    8  A    between atoms: O_16  and  P_17
REMARK    9  A    between atoms: P_17  and  O_18
REMARK   10  A    between atoms: P_17  and  O_19
REMARK   11  A    between atoms: C_21  and  O_23
REMARK   12  A    between atoms: C_24  and  O_26
REMARK   13  A    between atoms: O_26  and  P_27
REMARK   14  A    between atoms: P_27  and  O_28
REMARK   15  A    between atoms: P_27  and  O_29
REMARK                            x       y       z     vdW  Elec       q    Type
REMARK                         _______ _______ _______ _____ _____    ______ ____
ROOT
ATOM      1  C   UNL     1       7.463  -4.056  26.372  0.00  0.00    +0.177 C 
ATOM      2  C   UNL     1       7.588  -3.113  25.140  0.00  0.00    +0.192 C 
ATOM      3  C   UNL     1       6.284  -3.027  24.376  0.00  0.00    +0.178 C 
ATOM      4  C   UNL     1       5.833  -4.455  24.016  0.00  0.00    +0.193 C 
ATOM      5  C   UNL     1       5.527  -5.254  25.287  0.00  0.00    +0.193 C 
ATOM      6  C   UNL     1       6.821  -5.417  26.076  0.00  0.00    +0.177 C 
ENDROOT
BRANCH   1   7
ATOM      7  O   UNL     1       8.762  -4.333  26.927  0.00  0.00    -0.386 OA
ATOM      8  H   UNL     1       8.972  -3.717  27.653  0.00  0.00    +0.210 HD
ENDBRANCH   1   7
BRANCH   3   9
ATOM      9  O   UNL     1       6.547  -2.262  23.202  0.00  0.00    -0.386 OA
ATOM     10  H   UNL     1       6.141  -1.375  23.302  0.00  0.00    +0.210 HD
ENDBRANCH   3   9
BRANCH   6  11
ATOM     11  O   UNL     1       6.575  -6.091  27.317  0.00  0.00    -0.386 OA
ATOM     12  H   UNL     1       5.995  -5.515  27.851  0.00  0.00    +0.210 HD
ENDBRANCH   6  11
BRANCH   2  13
ATOM     13  O   UNL     1       7.988  -1.763  25.483  0.00  0.00    -0.278 OA
BRANCH  13  14
ATOM     14  P   UNL     1       6.764  -1.227  26.581  0.00  0.00    +0.473 P 
ATOM     15  O   UNL     1       5.668  -0.746  27.563  0.00  0.00    -0.228 OA
BRANCH  14  16
ATOM     16  O   UNL     1       6.577  -0.004  25.510  0.00  0.00    -0.303 OA
ATOM     17  H   UNL     1       7.479   0.275  25.270  0.00  0.00    +0.222 HD
ENDBRANCH  14  16
BRANCH  14  18
ATOM     18  O   UNL     1       7.994  -0.480  27.365  0.00  0.00    -0.303 OA
ATOM     19  H   UNL     1       7.760  -0.236  28.276  0.00  0.00    +0.222 HD
ENDBRANCH  14  18
ENDBRANCH  13  14
ENDBRANCH   2  13
BRANCH   4  20
ATOM     20  O   UNL     1       6.875  -5.151  23.256  0.00  0.00    -0.278 OA
BRANCH  20  21
ATOM     21  P   UNL     1       6.410  -5.373  21.604  0.00  0.00    +0.473 P 
ATOM     22  O   UNL     1       5.994  -5.571  20.125  0.00  0.00    -0.228 OA
BRANCH  21  23
ATOM     23  O   UNL     1       4.946  -4.755  22.018  0.00  0.00    -0.303 OA
ATOM     24  H   UNL     1       4.868  -3.910  21.538  0.00  0.00    +0.222 HD
ENDBRANCH  21  23
BRANCH  21  25
ATOM     25  O   UNL     1       5.975  -6.881  22.072  0.00  0.00    -0.303 OA
ATOM     26  H   UNL     1       5.779  -7.463  21.320  0.00  0.00    +0.222 HD
ENDBRANCH  21  25
ENDBRANCH  20  21
ENDBRANCH   4  20
BRANCH   5  27
ATOM     27  O   UNL     1       5.028  -6.561  25.016  0.00  0.00    -0.278 OA
BRANCH  27  28
ATOM     28  P   UNL     1       3.462  -6.770  24.778  0.00  0.00    +0.473 P 
ATOM     29  O   UNL     1       2.539  -5.817  25.448  0.00  0.00    -0.228 OA
BRANCH  28  30
ATOM     30  O   UNL     1       3.348  -8.295  25.232  0.00  0.00    -0.303 OA
ATOM     31  H   UNL     1       3.679  -8.866  24.514  0.00  0.00    +0.222 HD
ENDBRANCH  28  30
BRANCH  28  32
ATOM     32  O   UNL     1       3.368  -6.938  23.199  0.00  0.00    -0.303 OA
ATOM     33  H   UNL     1       2.444  -6.877  22.903  0.00  0.00    +0.222 HD
ENDBRANCH  28  32
ENDBRANCH  27  28
ENDBRANCH   5  27
TORSDOF 15
ENDMDL
MODEL 7
REMARK VINA RESULT:      -5.4      3.223      7.245
REMARK  Name = 
REMARK  15 active torsions:
REMARK  status: ('A' for Active; 'I' for Inactive)
REMARK    1  A    between atoms: O_1  and  C_2
REMARK    2  A    between atoms: C_4  and  O_6
REMARK    3  A    between atoms: C_7  and  O_9
REMARK    4  A    between atoms: O_9  and  P_10
REMARK    5  A    between atoms: P_10  and  O_11
REMARK    6  A    between atoms: P_10  and  O_12
REMARK    7  A    between atoms: C_14  and  O_16
REMARK    8  A    between atoms: O_16  and  P_17
REMARK    9  A    between atoms: P_17  and  O_18
REMARK   10  A    between atoms: P_17  and  O_19
REMARK   11  A    between atoms: C_21  and  O_23
REMARK   12  A    between atoms: C_24  and  O_26
REMARK   13  A    between atoms: O_26  and  P_27
REMARK   14  A    between atoms: P_27  and  O_28
REMARK   15  A    between atoms: P_27  and  O_29
REMARK                            x       y       z     vdW  Elec       q    Type
REMARK                         _______ _______ _______ _____ _____    ______ ____
ROOT
ATOM      1  C   UNL     1       8.732  -0.889  26.240  0.00  0.00    +0.177 C 
ATOM      2  C   UNL     1       7.201  -1.174  26.222  0.00  0.00    +0.192 C 
ATOM      3  C   UNL     1       6.650  -1.137  24.813  0.00  0.00    +0.178 C 
ATOM      4  C   UNL     1       7.034   0.211  24.173  0.00  0.00    +0.193 C 
ATOM      5  C   UNL     1       8.555   0.320  24.034  0.00  0.00    +0.193 C 
ATOM      6  C   UNL     1       9.165   0.340  25.431  0.00  0.00    +0.177 C 
ENDROOT
BRANCH   1   7
ATOM      7  O   UNL     1       9.186  -0.667  27.588  0.00  0.00    -0.386 OA
ATOM      8  H   UNL     1       8.462  -0.336  28.152  0.00  0.00    +0.210 HD
ENDBRANCH   1   7
BRANCH   3   9
ATOM      9  O   UNL     1       5.234  -1.266  24.924  0.00  0.00    -0.386 OA
ATOM     10  H   UNL     1       5.026  -2.088  25.416  0.00  0.00    +0.210 HD
ENDBRANCH   3   9
BRANCH   6  11
ATOM     11  O   UNL     1      10.596   0.362  25.357  0.00  0.00    -0.386 OA
ATOM     12  H   UNL     1      10.893  -0.550  25.178  0.00  0.00    +0.210 HD
ENDBRANCH   6  11
BRANCH   2  13
ATOM     13  O   UNL     1       6.845  -2.452  26.802  0.00  0.00    -0.278 OA
BRANCH  13  14
ATOM     14  P   UNL     1       7.665  -3.608  25.811  0.00  0.00    +0.473 P 
ATOM     15  O   UNL     1       8.399  -4.644  24.924  0.00  0.00    -0.228 OA
BRANCH  14  16
ATOM     16  O   UNL     1       6.170  -4.243  25.609  0.00  0.00    -0.303 OA
ATOM     17  H   UNL     1       5.556  -3.598  26.003  0.00  0.00    +0.222 HD
ENDBRANCH  14  16
BRANCH  14  18
ATOM     18  O   UNL     1       7.922  -4.416  27.214  0.00  0.00    -0.303 OA
ATOM     19  H   UNL     1       8.293  -5.303  27.069  0.00  0.00    +0.222 HD
ENDBRANCH  14  18
ENDBRANCH  13  14
ENDBRANCH   2  13
BRANCH   4  20
ATOM     20  O   UNL     1       6.548   1.328  24.987  0.00  0.00    -0.278 OA
BRANCH  20  21
ATOM     21  P   UNL     1       5.419   2.305  24.111  0.00  0.00    +0.473 P 
ATOM     22  O   UNL     1       4.408   3.178  23.327  0.00  0.00    -0.228 OA
BRANCH  21  23
ATOM     23  O   UNL     1       5.807   1.419  22.784  0.00  0.00    -0.303 OA
ATOM     24  H   UNL     1       5.551   1.963  22.016  0.00  0.00    +0.222 HD
ENDBRANCH  21  23
BRANCH  21  25
ATOM     25  O   UNL     1       6.685   3.319  23.881  0.00  0.00    -0.303 OA
ATOM     26  H   UNL     1       7.324   3.289  24.611  0.00  0.00    +0.222 HD
ENDBRANCH  21  25
ENDBRANCH  20  21
ENDBRANCH   4  20
BRANCH   5  27
ATOM     27  O   UNL     1       8.969   1.515  23.375  0.00  0.00    -0.278 OA
BRANCH  27  28
ATOM     28  P   UNL     1       9.220   1.494  21.797  0.00  0.00    +0.473 P 
ATOM     29  O   UNL     1       9.360   0.164  21.148  0.00  0.00    -0.228 OA
BRANCH  28  30
ATOM     30  O   UNL     1      10.502   2.441  21.742  0.00  0.00    -0.303 OA
ATOM     31  H   UNL     1      11.090   2.138  21.025  0.00  0.00    +0.222 HD
ENDBRANCH  28  30
BRANCH  28  32
ATOM     32  O   UNL     1       8.107   2.492  21.253  0.00  0.00    -0.303 OA
ATOM     33  H   UNL     1       7.444   2.013  20.728  0.00  0.00    +0.222 HD
ENDBRANCH  28  32
ENDBRANCH  27  28
ENDBRANCH   5  27
TORSDOF 15
ENDMDL
MODEL 8
REMARK VINA RESULT:      -5.3      2.473      6.674
REMARK  Name = 
REMARK  15 active torsions:
REMARK  status: ('A' for Active; 'I' for Inactive)
REMARK    1  A    between atoms: O_1  and  C_2
REMARK    2  A    between atoms: C_4  and  O_6
REMARK    3  A    between atoms: C_7  and  O_9
REMARK    4  A    between atoms: O_9  and  P_10
REMARK    5  A    between atoms: P_10  and  O_11
REMARK    6  A    between atoms: P_10  and  O_12
REMARK    7  A    between atoms: C_14  and  O_16
REMARK    8  A    between atoms: O_16  and  P_17
REMARK    9  A    between atoms: P_17  and  O_18
REMARK   10  A    between atoms: P_17  and  O_19
REMARK   11  A    between atoms: C_21  and  O_23
REMARK   12  A    between atoms: C_24  and  O_26
REMARK   13  A    between atoms: O_26  and  P_27
REMARK   14  A    between atoms: P_27  and  O_28
REMARK   15  A    between atoms: P_27  and  O_29
REMARK                            x       y       z     vdW  Elec       q    Type
REMARK                         _______ _______ _______ _____ _____    ______ ____
ROOT
ATOM      1  C   UNL     1       8.342  -4.073  23.866  0.00  0.00    +0.177 C 
ATOM      2  C   UNL     1       6.908  -4.020  24.472  0.00  0.00    +0.192 C 
ATOM      3  C   UNL     1       6.228  -2.703  24.167  0.00  0.00    +0.178 C 
ATOM      4  C   UNL     1       7.142  -1.559  24.646  0.00  0.00    +0.193 C 
ATOM      5  C   UNL     1       8.451  -1.553  23.849  0.00  0.00    +0.193 C 
ATOM      6  C   UNL     1       9.207  -2.841  24.158  0.00  0.00    +0.177 C 
ENDROOT
BRANCH   1   7
ATOM      7  O   UNL     1       9.065  -5.206  24.382  0.00  0.00    -0.386 OA
ATOM      8  H   UNL     1       9.514  -5.691  23.664  0.00  0.00    +0.210 HD
ENDBRANCH   1   7
BRANCH   3   9
ATOM      9  O   UNL     1       4.994  -2.705  24.881  0.00  0.00    -0.386 OA
ATOM     10  H   UNL     1       4.291  -3.069  24.302  0.00  0.00    +0.210 HD
ENDBRANCH   3   9
BRANCH   6  11
ATOM     11  O   UNL     1      10.405  -2.922  23.376  0.00  0.00    -0.386 OA
ATOM     12  H   UNL     1      11.080  -2.372  23.818  0.00  0.00    +0.210 HD
ENDBRANCH   6  11
BRANCH   2  13
ATOM     13  O   UNL     1       6.043  -5.083  24.002  0.00  0.00    -0.278 OA
BRANCH  13  14
ATOM     14  P   UNL     1       5.967  -4.839  22.291  0.00  0.00    +0.473 P 
ATOM     15  O   UNL     1       5.898  -4.619  20.760  0.00  0.00    -0.228 OA
BRANCH  14  16
ATOM     16  O   UNL     1       4.351  -4.788  22.541  0.00  0.00    -0.303 OA
ATOM     17  H   UNL     1       4.176  -5.427  23.256  0.00  0.00    +0.222 HD
ENDBRANCH  14  16
BRANCH  14  18
ATOM     18  O   UNL     1       5.998  -6.475  22.199  0.00  0.00    -0.303 OA
ATOM     19  H   UNL     1       5.152  -6.846  21.898  0.00  0.00    +0.222 HD
ENDBRANCH  14  18
ENDBRANCH  13  14
ENDBRANCH   2  13
BRANCH   4  20
ATOM     20  O   UNL     1       7.452  -1.705  26.071  0.00  0.00    -0.278 OA
BRANCH  20  21
ATOM     21  P   UNL     1       6.931  -0.326  26.976  0.00  0.00    +0.473 P 
ATOM     22  O   UNL     1       6.465   0.909  27.786  0.00  0.00    -0.228 OA
BRANCH  21  23
ATOM     23  O   UNL     1       6.679   0.422  25.536  0.00  0.00    -0.303 OA
ATOM     24  H   UNL     1       6.880  -0.243  24.851  0.00  0.00    +0.222 HD
ENDBRANCH  21  23
BRANCH  21  25
ATOM     25  O   UNL     1       8.515   0.094  26.986  0.00  0.00    -0.303 OA
ATOM     26  H   UNL     1       9.105  -0.673  26.907  0.00  0.00    +0.222 HD
ENDBRANCH  21  25
ENDBRANCH  20  21
ENDBRANCH   4  20
BRANCH   5  27
ATOM     27  O   UNL     1       9.306  -0.466  24.193  0.00  0.00    -0.278 OA
BRANCH  27  28
ATOM     28  P   UNL     1       9.558   0.701  23.132  0.00  0.00    +0.473 P 
ATOM     29  O   UNL     1       9.908   0.296  21.746  0.00  0.00    -0.228 OA
BRANCH  28  30
ATOM     30  O   UNL     1      10.672   1.519  23.928  0.00  0.00    -0.303 OA
ATOM     31  H   UNL     1      11.374   1.787  23.307  0.00  0.00    +0.222 HD
ENDBRANCH  28  30
BRANCH  28  32
ATOM     32  O   UNL     1       8.300   1.650  23.353  0.00  0.00    -0.303 OA
ATOM     33  H   UNL     1       8.227   1.908  24.288  0.00  0.00    +0.222 HD
ENDBRANCH  28  32
ENDBRANCH  27  28
ENDBRANCH   5  27
TORSDOF 15
ENDMDL
MODEL 9
REMARK VINA RESULT:      -5.2      2.513      3.858
REMARK  Name = 
REMARK  15 active torsions:
REMARK  status: ('A' for Active; 'I' for Inactive)
REMARK    1  A    between atoms: O_1  and  C_2
REMARK    2  A    between atoms: C_4  and  O_6
REMARK    3  A    between atoms: C_7  and  O_9
REMARK    4  A    between atoms: O_9  and  P_10
REMARK    5  A    between atoms: P_10  and  O_11
REMARK    6  A    between atoms: P_10  and  O_12
REMARK    7  A    between atoms: C_14  and  O_16
REMARK    8  A    between atoms: O_16  and  P_17
REMARK    9  A    between atoms: P_17  and  O_18
REMARK   10  A    between atoms: P_17  and  O_19
REMARK   11  A    between atoms: C_21  and  O_23
REMARK   12  A    between atoms: C_24  and  O_26
REMARK   13  A    between atoms: O_26  and  P_27
REMARK   14  A    between atoms: P_27  and  O_28
REMARK   15  A    between atoms: P_27  and  O_29
REMARK                            x       y       z     vdW  Elec       q    Type
REMARK                         _______ _______ _______ _____ _____    ______ ____
ROOT
ATOM      1  C   UNL     1       9.525  -2.235  24.354  0.00  0.00    +0.177 C 
ATOM      2  C   UNL     1       9.192  -0.828  24.933  0.00  0.00    +0.192 C 
ATOM      3  C   UNL     1       8.613  -0.928  26.328  0.00  0.00    +0.178 C 
ATOM      4  C   UNL     1       7.403  -1.881  26.288  0.00  0.00    +0.193 C 
ATOM      5  C   UNL     1       7.852  -3.297  25.914  0.00  0.00    +0.193 C 
ATOM      6  C   UNL     1       8.400  -3.267  24.491  0.00  0.00    +0.177 C 
ENDROOT
BRANCH   1   7
ATOM      7  O   UNL     1       9.820  -2.142  22.948  0.00  0.00    -0.386 OA
ATOM      8  H   UNL     1      10.169  -2.987  22.607  0.00  0.00    +0.210 HD
ENDBRANCH   1   7
BRANCH   3   9
ATOM      9  O   UNL     1       8.215   0.389  26.702  0.00  0.00    -0.386 OA
ATOM     10  H   UNL     1       7.598   0.332  27.462  0.00  0.00    +0.210 HD
ENDBRANCH   3   9
BRANCH   6  11
ATOM     11  O   UNL     1       8.908  -4.555  24.118  0.00  0.00    -0.386 OA
ATOM     12  H   UNL     1       9.218  -4.489  23.195  0.00  0.00    +0.210 HD
ENDBRANCH   6  11
BRANCH   2  13
ATOM     13  O   UNL     1      10.336   0.058  24.993  0.00  0.00    -0.278 OA
BRANCH  13  14
ATOM     14  P   UNL     1      10.048   1.204  23.729  0.00  0.00    +0.473 P 
ATOM     15  O   UNL     1       9.790   2.230  22.598  0.00  0.00    -0.228 OA
BRANCH  14  16
ATOM     16  O   UNL     1      11.576   1.690  24.052  0.00  0.00    -0.303 OA
ATOM     17  H   UNL     1      11.992   1.841  23.184  0.00  0.00    +0.222 HD
ENDBRANCH  14  16
BRANCH  14  18
ATOM     18  O   UNL     1       9.400   2.134  24.914  0.00  0.00    -0.303 OA
ATOM     19  H   UNL     1       8.546   2.519  24.658  0.00  0.00    +0.222 HD
ENDBRANCH  14  18
ENDBRANCH  13  14
ENDBRANCH   2  13
BRANCH   4  20
ATOM     20  O   UNL     1       6.414  -1.421  25.310  0.00  0.00    -0.278 OA
BRANCH  20  21
ATOM     21  P   UNL     1       4.909  -1.028  26.070  0.00  0.00    +0.473 P 
ATOM     22  O   UNL     1       3.563  -0.676  26.750  0.00  0.00    -0.228 OA
BRANCH  21  23
ATOM     23  O   UNL     1       5.407  -1.939  27.342  0.00  0.00    -0.303 OA
ATOM     24  H   UNL     1       6.382  -1.929  27.312  0.00  0.00    +0.222 HD
ENDBRANCH  21  23
BRANCH  21  25
ATOM     25  O   UNL     1       4.325  -2.339  25.280  0.00  0.00    -0.303 OA
ATOM     26  H   UNL     1       4.671  -3.174  25.636  0.00  0.00    +0.222 HD
ENDBRANCH  21  25
ENDBRANCH  20  21
ENDBRANCH   4  20
BRANCH   5  27
ATOM     27  O   UNL     1       6.786  -4.243  25.937  0.00  0.00    -0.278 OA
BRANCH  27  28
ATOM     28  P   UNL     1       6.713  -5.314  27.121  0.00  0.00    +0.473 P 
ATOM     29  O   UNL     1       6.300  -4.821  28.460  0.00  0.00    -0.228 OA
BRANCH  28  30
ATOM     30  O   UNL     1       8.193  -5.898  27.012  0.00  0.00    -0.303 OA
ATOM     31  H   UNL     1       8.502  -5.811  26.090  0.00  0.00    +0.222 HD
ENDBRANCH  28  30
BRANCH  28  32
ATOM     32  O   UNL     1       5.890  -6.506  26.461  0.00  0.00    -0.303 OA
ATOM     33  H   UNL     1       6.461  -7.031  25.874  0.00  0.00    +0.222 HD
ENDBRANCH  28  32
ENDBRANCH  27  28
ENDBRANCH   5  27
TORSDOF 15
ENDMDL
