MODEL 1
REMARK VINA RESULT:      -5.1      0.000      0.000
REMARK  Name = 
REMARK  2 active torsions:
REMARK  status: ('A' for Active; 'I' for Inactive)
REMARK    1  A    between atoms: C_1  and  N_2
REMARK    2  A    between atoms: C_11  and  O_12
REMARK                            x       y       z     vdW  Elec       q    Type
REMARK                         _______ _______ _______ _____ _____    ______ ____
ROOT
ATOM      1  C   UNL     1       6.518  -1.681  23.395  0.00  0.00    +0.152 C 
ATOM      2  N   UNL     1       7.699  -2.421  23.751  0.00  0.00    -0.318 N 
ATOM      3  C   UNL     1       7.733  -3.545  24.525  0.00  0.00    +0.169 A 
ATOM      4  N   UNL     1       6.701  -4.188  25.097  0.00  0.00    -0.195 NA
ATOM      5  C   UNL     1       7.095  -5.279  25.773  0.00  0.00    +0.218 A 
ATOM      6  N   UNL     1       8.355  -5.716  25.944  0.00  0.00    -0.178 NA
ATOM      7  C   UNL     1       9.343  -5.023  25.349  0.00  0.00    +0.245 A 
ATOM      8  N   UNL     1       6.103  -6.017  26.388  0.00  0.00    -0.327 N 
ATOM      9  H   UNL     1       6.484  -6.537  27.165  0.00  0.00    +0.145 HD
ATOM     10  H   UNL     1       5.295  -5.437  26.567  0.00  0.00    +0.145 HD
ATOM     11  C   UNL     1       9.073  -3.888  24.594  0.00  0.00    +0.169 A 
ATOM     12  N   UNL     1       9.842  -2.998  23.876  0.00  0.00    -0.229 NA
ATOM     13  C   UNL     1       8.982  -2.133  23.376  0.00  0.00    +0.201 A 
ENDROOT
BRANCH   7  14
ATOM     14  O   UNL     1      10.599  -5.524  25.549  0.00  0.00    -0.491 OA
ATOM     15  H   UNL     1      10.906  -5.616  24.632  0.00  0.00    +0.294 HD
ENDBRANCH   7  14
TORSDOF 1
ENDMDL
MODEL 2
REMARK VINA RESULT:      -5.0      1.805      3.530
REMARK  Name = 
REMARK  2 active torsions:
REMARK  status: ('A' for Active; 'I' for Inactive)
REMARK    1  A    between atoms: C_1  and  N_2
REMARK    2  A    between atoms: C_11  and  O_12
REMARK                            x       y       z     vdW  Elec       q    Type
REMARK                         _______ _______ _______ _____ _____    ______ ____
ROOT
ATOM      1  C   UNL     1       4.277  -4.687  26.567  0.00  0.00    +0.152 C 
ATOM      2  N   UNL     1       5.675  -5.006  26.674  0.00  0.00    -0.318 N 
ATOM      3  C   UNL     1       6.589  -4.938  25.661  0.00  0.00    +0.169 A 
ATOM      4  N   UNL     1       6.385  -4.562  24.388  0.00  0.00    -0.195 NA
ATOM      5  C   UNL     1       7.516  -4.589  23.664  0.00  0.00    +0.218 A 
ATOM      6  N   UNL     1       8.734  -4.979  24.079  0.00  0.00    -0.178 NA
ATOM      7  C   UNL     1       8.868  -5.349  25.366  0.00  0.00    +0.245 A 
ATOM      8  N   UNL     1       7.413  -4.206  22.341  0.00  0.00    -0.327 N 
ATOM      9  H   UNL     1       8.155  -4.625  21.798  0.00  0.00    +0.145 HD
ATOM     10  H   UNL     1       6.467  -4.333  22.012  0.00  0.00    +0.145 HD
ATOM     11  C   UNL     1       7.783  -5.341  26.234  0.00  0.00    +0.169 A 
ATOM     12  N   UNL     1       7.608  -5.644  27.566  0.00  0.00    -0.229 NA
ATOM     13  C   UNL     1       6.330  -5.424  27.799  0.00  0.00    +0.201 A 
ENDROOT
BRANCH   7  14
ATOM     14  O   UNL     1      10.132  -5.721  25.729  0.00  0.00    -0.491 OA
ATOM     15  H   UNL     1       9.938  -6.419  26.377  0.00  0.00    +0.294 HD
ENDBRANCH   7  14
TORSDOF 1
ENDMDL
MODEL 3
REMARK VINA RESULT:      -4.9      2.124      3.020
REMARK  Name = 
REMARK  2 active torsions:
REMARK  status: ('A' for Active; 'I' for Inactive)
REMARK    1  A    between atoms: C_1  and  N_2
REMARK    2  A    between atoms: C_11  and  O_12
REMARK                            x       y       z     vdW  Elec       q    Type
REMARK                         _______ _______ _______ _____ _____    ______ ____
ROOT
ATOM      1  C   UNL     1       5.355  -5.520  22.934  0.00  0.00    +0.152 C 
ATOM      2  N   UNL     1       6.292  -4.434  22.842  0.00  0.00    -0.318 N 
ATOM      3  C   UNL     1       7.486  -4.352  23.500  0.00  0.00    +0.169 A 
ATOM      4  N   UNL     1       8.029  -5.246  24.343  0.00  0.00    -0.195 NA
ATOM      5  C   UNL     1       9.232  -4.855  24.792  0.00  0.00    +0.218 A 
ATOM      6  N   UNL     1       9.864  -3.700  24.516  0.00  0.00    -0.178 NA
ATOM      7  C   UNL     1       9.262  -2.845  23.669  0.00  0.00    +0.245 A 
ATOM      8  N   UNL     1       9.879  -5.714  25.658  0.00  0.00    -0.327 N 
ATOM      9  H   UNL     1      10.529  -5.203  26.238  0.00  0.00    +0.145 HD
ATOM     10  H   UNL     1       9.210  -6.311  26.123  0.00  0.00    +0.145 HD
ATOM     11  C   UNL     1       8.026  -3.138  23.106  0.00  0.00    +0.169 A 
ATOM     12  N   UNL     1       7.186  -2.494  22.225  0.00  0.00    -0.229 NA
ATOM     13  C   UNL     1       6.156  -3.305  22.082  0.00  0.00    +0.201 A 
ENDROOT
BRANCH   7  14
ATOM     14  O   UNL     1       9.960  -1.697  23.417  0.00  0.00    -0.491 OA
ATOM     15  H   UNL     1       9.765  -1.568  22.474  0.00  0.00    +0.294 HD
ENDBRANCH   7  14
TORSDOF 1
ENDMDL
MODEL 4
REMARK VINA RESULT:      -4.9      1.232      3.339
REMARK  Name = 
REMARK  2 active torsions:
REMARK  status: ('A' for Active; 'I' for Inactive)
REMARK    1  A    between atoms: C_1  and  N_2
REMARK    2  A    between atoms: C_11  and  O_12
REMARK                            x       y       z     vdW  Elec       q    Type
REMARK                         _______ _______ _______ _____ _____    ______ ____
ROOT
ATOM      1  C   UNL     1       4.738  -3.959  25.202  0.00  0.00    +0.152 C 
ATOM      2  N   UNL     1       6.003  -4.540  25.562  0.00  0.00    -0.318 N 
ATOM      3  C   UNL     1       7.218  -4.186  25.050  0.00  0.00    +0.169 A 
ATOM      4  N   UNL     1       7.486  -3.242  24.133  0.00  0.00    -0.195 NA
ATOM      5  C   UNL     1       8.800  -3.141  23.877  0.00  0.00    +0.218 A 
ATOM      6  N   UNL     1       9.787  -3.892  24.398  0.00  0.00    -0.178 NA
ATOM      7  C   UNL     1       9.450  -4.825  25.307  0.00  0.00    +0.245 A 
ATOM      8  N   UNL     1       9.180  -2.187  22.953  0.00  0.00    -0.327 N 
ATOM      9  H   UNL     1      10.062  -2.440  22.532  0.00  0.00    +0.145 HD
ATOM     10  H   UNL     1       8.412  -1.976  22.332  0.00  0.00    +0.145 HD
ATOM     11  C   UNL     1       8.127  -5.015  25.687  0.00  0.00    +0.169 A 
ATOM     12  N   UNL     1       7.485  -5.854  26.571  0.00  0.00    -0.229 NA
ATOM     13  C   UNL     1       6.209  -5.536  26.477  0.00  0.00    +0.201 A 
ENDROOT
BRANCH   7  14
ATOM     14  O   UNL     1      10.497  -5.544  25.809  0.00  0.00    -0.491 OA
ATOM     15  H   UNL     1      10.099  -5.907  26.617  0.00  0.00    +0.294 HD
ENDBRANCH   7  14
TORSDOF 1
ENDMDL
MODEL 5
REMARK VINA RESULT:      -4.9      2.276      2.956
REMARK  Name = 
REMARK  2 active torsions:
REMARK  status: ('A' for Active; 'I' for Inactive)
REMARK    1  A    between atoms: C_1  and  N_2
REMARK    2  A    between atoms: C_11  and  O_12
REMARK                            x       y       z     vdW  Elec       q    Type
REMARK                         _______ _______ _______ _____ _____    ______ ____
ROOT
ATOM      1  C   UNL     1      10.190  -0.631  23.929  0.00  0.00    +0.152 C 
ATOM      2  N   UNL     1       9.199  -1.545  23.430  0.00  0.00    -0.318 N 
ATOM      3  C   UNL     1       9.085  -2.863  23.769  0.00  0.00    +0.169 A 
ATOM      4  N   UNL     1       9.848  -3.566  24.622  0.00  0.00    -0.195 NA
ATOM      5  C   UNL     1       9.438  -4.840  24.737  0.00  0.00    +0.218 A 
ATOM      6  N   UNL     1       8.425  -5.428  24.077  0.00  0.00    -0.178 NA
ATOM      7  C   UNL     1       7.704  -4.668  23.232  0.00  0.00    +0.245 A 
ATOM      8  N   UNL     1      10.153  -5.644  25.603  0.00  0.00    -0.327 N 
ATOM      9  H   UNL     1      10.059  -6.614  25.337  0.00  0.00    +0.145 HD
ATOM     10  H   UNL     1      11.089  -5.283  25.724  0.00  0.00    +0.145 HD
ATOM     11  C   UNL     1       8.002  -3.324  23.039  0.00  0.00    +0.169 A 
ATOM     12  N   UNL     1       7.461  -2.313  22.276  0.00  0.00    -0.229 NA
ATOM     13  C   UNL     1       8.201  -1.255  22.541  0.00  0.00    +0.201 A 
ENDROOT
BRANCH   7  14
ATOM     14  O   UNL     1       6.681  -5.319  22.603  0.00  0.00    -0.491 OA
ATOM     15  H   UNL     1       6.395  -5.929  23.303  0.00  0.00    +0.294 HD
ENDBRANCH   7  14
TORSDOF 1
ENDMDL
MODEL 6
REMARK VINA RESULT:      -4.9      3.842      5.752
REMARK  Name = 
REMARK  2 active torsions:
REMARK  status: ('A' for Active; 'I' for Inactive)
REMARK    1  A    between atoms: C_1  and  N_2
REMARK    2  A    between atoms: C_11  and  O_12
REMARK                            x       y       z     vdW  Elec       q    Type
REMARK                         _______ _______ _______ _____ _____    ______ ____
ROOT
ATOM      1  C   UNL     1       7.757  -2.846  23.820  0.00  0.00    +0.152 C 
ATOM      2  N   UNL     1       8.596  -1.818  23.267  0.00  0.00    -0.318 N 
ATOM      3  C   UNL     1       8.193  -0.561  22.915  0.00  0.00    +0.169 A 
ATOM      4  N   UNL     1       6.963  -0.030  23.014  0.00  0.00    -0.195 NA
ATOM      5  C   UNL     1       6.927   1.246  22.597  0.00  0.00    +0.218 A 
ATOM      6  N   UNL     1       7.945   1.960  22.083  0.00  0.00    -0.178 NA
ATOM      7  C   UNL     1       9.149   1.365  22.005  0.00  0.00    +0.245 A 
ATOM      8  N   UNL     1       5.706   1.887  22.671  0.00  0.00    -0.327 N 
ATOM      9  H   UNL     1       5.665   2.641  21.999  0.00  0.00    +0.145 HD
ATOM     10  H   UNL     1       4.955   1.213  22.659  0.00  0.00    +0.145 HD
ATOM     11  C   UNL     1       9.334   0.055  22.430  0.00  0.00    +0.169 A 
ATOM     12  N   UNL     1      10.413  -0.800  22.489  0.00  0.00    -0.229 NA
ATOM     13  C   UNL     1       9.935  -1.915  23.004  0.00  0.00    +0.201 A 
ENDROOT
BRANCH   7  14
ATOM     14  O   UNL     1      10.144   2.146  21.488  0.00  0.00    -0.491 OA
ATOM     15  H   UNL     1       9.643   2.942  21.245  0.00  0.00    +0.294 HD
ENDBRANCH   7  14
TORSDOF 1
ENDMDL
MODEL 7
REMARK VINA RESULT:      -4.8      2.372      4.120
REMARK  Name = 
REMARK  2 active torsions:
REMARK  status: ('A' for Active; 'I' for Inactive)
REMARK    1  A    between atoms: C_1  and  N_2
REMARK    2  A    between atoms: C_11  and  O_12
REMARK                            x       y       z     vdW  Elec       q    Type
REMARK                         _______ _______ _______ _____ _____    ______ ____
ROOT
ATOM      1  C   UNL     1       5.346  -6.255  27.731  0.00  0.00    +0.152 C 
ATOM      2  N   UNL     1       5.517  -5.840  26.365  0.00  0.00    -0.318 N 
ATOM      3  C   UNL     1       6.710  -5.582  25.752  0.00  0.00    +0.169 A 
ATOM      4  N   UNL     1       7.944  -5.667  26.276  0.00  0.00    -0.195 NA
ATOM      5  C   UNL     1       8.897  -5.365  25.380  0.00  0.00    +0.218 A 
ATOM      6  N   UNL     1       8.717  -4.969  24.107  0.00  0.00    -0.178 NA
ATOM      7  C   UNL     1       7.455  -4.900  23.647  0.00  0.00    +0.245 A 
ATOM      8  N   UNL     1      10.205  -5.435  25.820  0.00  0.00    -0.327 N 
ATOM      9  H   UNL     1      10.794  -4.833  25.263  0.00  0.00    +0.145 HD
ATOM     10  H   UNL     1      10.243  -5.325  26.823  0.00  0.00    +0.145 HD
ATOM     11  C   UNL     1       6.373  -5.214  24.460  0.00  0.00    +0.169 A 
ATOM     12  N   UNL     1       5.007  -5.249  24.284  0.00  0.00    -0.229 NA
ATOM     13  C   UNL     1       4.524  -5.637  25.447  0.00  0.00    +0.201 A 
ENDROOT
BRANCH   7  14
ATOM     14  O   UNL     1       7.339  -4.506  22.344  0.00  0.00    -0.491 OA
ATOM     15  H   UNL     1       7.525  -3.555  22.423  0.00  0.00    +0.294 HD
ENDBRANCH   7  14
TORSDOF 1
ENDMDL
MODEL 8
REMARK VINA RESULT:      -4.8      2.234      2.964
REMARK  Name = 
REMARK  2 active torsions:
REMARK  status: ('A' for Active; 'I' for Inactive)
REMARK    1  A    between atoms: C_1  and  N_2
REMARK    2  A    between atoms: C_11  and  O_12
REMARK                            x       y       z     vdW  Elec       q    Type
REMARK                         _______ _______ _______ _____ _____    ______ ____
ROOT
ATOM      1  C   UNL     1       4.337  -5.764  23.508  0.00  0.00    +0.152 C 
ATOM      2  N   UNL     1       5.575  -5.389  24.137  0.00  0.00    -0.318 N 
ATOM      3  C   UNL     1       5.950  -5.704  25.412  0.00  0.00    +0.169 A 
ATOM      4  N   UNL     1       5.267  -6.418  26.322  0.00  0.00    -0.195 NA
ATOM      5  C   UNL     1       5.947  -6.558  27.471  0.00  0.00    +0.218 A 
ATOM      6  N   UNL     1       7.149  -6.035  27.770  0.00  0.00    -0.178 NA
ATOM      7  C   UNL     1       7.777  -5.325  26.815  0.00  0.00    +0.245 A 
ATOM      8  N   UNL     1       5.332  -7.288  28.469  0.00  0.00    -0.327 N 
ATOM      9  H   UNL     1       5.687  -7.013  29.374  0.00  0.00    +0.145 HD
ATOM     10  H   UNL     1       4.330  -7.283  28.341  0.00  0.00    +0.145 HD
ATOM     11  C   UNL     1       7.199  -5.127  25.567  0.00  0.00    +0.169 A 
ATOM     12  N   UNL     1       7.583  -4.478  24.414  0.00  0.00    -0.229 NA
ATOM     13  C   UNL     1       6.586  -4.662  23.573  0.00  0.00    +0.201 A 
ENDROOT
BRANCH   7  14
ATOM     14  O   UNL     1       9.000  -4.833  27.175  0.00  0.00    -0.491 OA
ATOM     15  H   UNL     1       9.195  -4.257  26.417  0.00  0.00    +0.294 HD
ENDBRANCH   7  14
TORSDOF 1
ENDMDL
MODEL 9
REMARK VINA RESULT:      -4.7      2.167      2.924
REMARK  Name = 
REMARK  2 active torsions:
REMARK  status: ('A' for Active; 'I' for Inactive)
REMARK    1  A    between atoms: C_1  and  N_2
REMARK    2  A    between atoms: C_11  and  O_12
REMARK                            x       y       z     vdW  Elec       q    Type
REMARK                         _______ _______ _______ _____ _____    ______ ____
ROOT
ATOM      1  C   UNL     1      10.359  -1.529  22.496  0.00  0.00    +0.152 C 
ATOM      2  N   UNL     1       9.367  -1.601  23.534  0.00  0.00    -0.318 N 
ATOM      3  C   UNL     1       9.170  -2.657  24.378  0.00  0.00    +0.169 A 
ATOM      4  N   UNL     1       9.847  -3.816  24.424  0.00  0.00    -0.195 NA
ATOM      5  C   UNL     1       9.402  -4.624  25.400  0.00  0.00    +0.218 A 
ATOM      6  N   UNL     1       8.378  -4.393  26.240  0.00  0.00    -0.178 NA
ATOM      7  C   UNL     1       7.739  -3.214  26.137  0.00  0.00    +0.245 A 
ATOM      8  N   UNL     1      10.044  -5.840  25.537  0.00  0.00    -0.327 N 
ATOM      9  H   UNL     1       9.429  -6.512  25.974  0.00  0.00    +0.145 HD
ATOM     10  H   UNL     1      10.479  -6.106  24.665  0.00  0.00    +0.145 HD
ATOM     11  C   UNL     1       8.115  -2.271  25.188  0.00  0.00    +0.169 A 
ATOM     12  N   UNL     1       7.678  -1.008  24.853  0.00  0.00    -0.229 NA
ATOM     13  C   UNL     1       8.458  -0.632  23.859  0.00  0.00    +0.201 A 
ENDROOT
BRANCH   7  14
ATOM     14  O   UNL     1       6.718  -3.033  27.027  0.00  0.00    -0.491 OA
ATOM     15  H   UNL     1       6.639  -3.927  27.399  0.00  0.00    +0.294 HD
ENDBRANCH   7  14
TORSDOF 1
ENDMDL
