MODEL 1
REMARK VINA RESULT:      -4.8      0.000      0.000
REMARK  Name = 
REMARK  4 active torsions:
REMARK  status: ('A' for Active; 'I' for Inactive)
REMARK    1  A    between atoms: C_1  and  C_2
REMARK    2  A    between atoms: C_2  and  C_3
REMARK    3  A    between atoms: C_3  and  N_5
REMARK    4  A    between atoms: C_3  and  C_11
REMARK                            x       y       z     vdW  Elec       q    Type
REMARK                         _______ _______ _______ _____ _____    ______ ____
ROOT
ATOM      1  C   UNL     1       8.682  -4.350  24.264  0.00  0.00    +0.161 C 
ENDROOT
BRANCH   1   2
ATOM      2  N   UNL     1       9.076  -2.972  24.605  0.00  0.00    -0.290 N 
ATOM      3  C   UNL     1       9.868  -2.120  23.844  0.00  0.00    +0.216 C 
ATOM      4  O   UNL     1      10.466  -2.393  22.819  0.00  0.00    -0.276 OA
ATOM      5  C   UNL     1       9.827  -0.759  24.492  0.00  0.00    +0.097 C 
ATOM      6  C   UNL     1       8.493  -0.806  25.222  0.00  0.00    +0.028 C 
ATOM      7  C   UNL     1       8.394  -2.256  25.660  0.00  0.00    +0.109 C 
ENDBRANCH   1   2
BRANCH   1   8
ATOM      8  C   UNL     1       8.960  -5.299  25.447  0.00  0.00    +0.231 C 
ATOM      9  O   UNL     1       8.070  -5.744  26.168  0.00  0.00    -0.274 OA
ATOM     10  N   UNL     1      10.271  -5.531  25.757  0.00  0.00    -0.328 N 
ATOM     11  H   UNL     1      10.458  -6.033  26.614  0.00  0.00    +0.145 HD
ATOM     12  H   UNL     1      10.992  -4.908  25.406  0.00  0.00    +0.145 HD
ENDBRANCH   1   8
BRANCH   1  14
ATOM     13  C   UNL     1       7.085  -5.494  22.641  0.00  0.00    +0.006 C 
ATOM     14  C   UNL     1       7.226  -4.521  23.804  0.00  0.00    +0.028 C 
ENDBRANCH   1  14
TORSDOF 3
ENDMDL
MODEL 2
REMARK VINA RESULT:      -4.6      2.383      3.434
REMARK  Name = 
REMARK  4 active torsions:
REMARK  status: ('A' for Active; 'I' for Inactive)
REMARK    1  A    between atoms: C_1  and  C_2
REMARK    2  A    between atoms: C_2  and  C_3
REMARK    3  A    between atoms: C_3  and  N_5
REMARK    4  A    between atoms: C_3  and  C_11
REMARK                            x       y       z     vdW  Elec       q    Type
REMARK                         _______ _______ _______ _____ _____    ______ ____
ROOT
ATOM      1  C   UNL     1       7.877  -5.077  24.883  0.00  0.00    +0.161 C 
ENDROOT
BRANCH   1   2
ATOM      2  N   UNL     1       7.244  -4.403  23.736  0.00  0.00    -0.290 N 
ATOM      3  C   UNL     1       7.042  -4.933  22.467  0.00  0.00    +0.216 C 
ATOM      4  O   UNL     1       7.445  -6.002  22.044  0.00  0.00    -0.276 OA
ATOM      5  C   UNL     1       6.182  -3.962  21.698  0.00  0.00    +0.097 C 
ATOM      6  C   UNL     1       5.442  -3.251  22.820  0.00  0.00    +0.028 C 
ATOM      7  C   UNL     1       6.477  -3.192  23.930  0.00  0.00    +0.109 C 
ENDBRANCH   1   2
BRANCH   1   8
ATOM      8  C   UNL     1       9.367  -4.694  24.979  0.00  0.00    +0.231 C 
ATOM      9  O   UNL     1       9.858  -3.765  24.343  0.00  0.00    -0.274 OA
ATOM     10  N   UNL     1      10.170  -5.523  25.711  0.00  0.00    -0.328 N 
ATOM     11  H   UNL     1      11.167  -5.359  25.660  0.00  0.00    +0.145 HD
ATOM     12  H   UNL     1       9.856  -6.460  25.939  0.00  0.00    +0.145 HD
ENDBRANCH   1   8
BRANCH   1  14
ATOM     13  C   UNL     1       6.038  -5.786  26.499  0.00  0.00    +0.006 C 
ATOM     14  C   UNL     1       7.198  -4.834  26.240  0.00  0.00    +0.028 C 
ENDBRANCH   1  14
TORSDOF 3
ENDMDL
MODEL 3
REMARK VINA RESULT:      -4.5      2.411      3.967
REMARK  Name = 
REMARK  4 active torsions:
REMARK  status: ('A' for Active; 'I' for Inactive)
REMARK    1  A    between atoms: C_1  and  C_2
REMARK    2  A    between atoms: C_2  and  C_3
REMARK    3  A    between atoms: C_3  and  N_5
REMARK    4  A    between atoms: C_3  and  C_11
REMARK                            x       y       z     vdW  Elec       q    Type
REMARK                         _______ _______ _______ _____ _____    ______ ____
ROOT
ATOM      1  C   UNL     1       6.397  -4.416  25.525  0.00  0.00    +0.161 C 
ENDROOT
BRANCH   1   2
ATOM      2  N   UNL     1       6.532  -4.740  24.094  0.00  0.00    -0.290 N 
ATOM      3  C   UNL     1       7.660  -5.242  23.456  0.00  0.00    +0.216 C 
ATOM      4  O   UNL     1       8.767  -5.402  23.938  0.00  0.00    -0.276 OA
ATOM      5  C   UNL     1       7.264  -5.606  22.047  0.00  0.00    +0.097 C 
ATOM      6  C   UNL     1       5.774  -5.864  22.203  0.00  0.00    +0.028 C 
ATOM      7  C   UNL     1       5.358  -4.851  23.255  0.00  0.00    +0.109 C 
ENDBRANCH   1   2
BRANCH   1   8
ATOM      8  C   UNL     1       6.689  -5.659  26.389  0.00  0.00    +0.231 C 
ATOM      9  O   UNL     1       5.840  -6.513  26.635  0.00  0.00    -0.274 OA
ATOM     10  N   UNL     1       7.912  -5.715  26.996  0.00  0.00    -0.328 N 
ATOM     11  H   UNL     1       8.054  -6.451  27.674  0.00  0.00    +0.145 HD
ATOM     12  H   UNL     1       8.471  -4.873  27.086  0.00  0.00    +0.145 HD
ENDBRANCH   1   8
BRANCH   1  14
ATOM     13  C   UNL     1       7.071  -1.984  25.174  0.00  0.00    +0.006 C 
ATOM     14  C   UNL     1       7.258  -3.241  26.014  0.00  0.00    +0.028 C 
ENDBRANCH   1  14
TORSDOF 3
ENDMDL
MODEL 4
REMARK VINA RESULT:      -4.5      2.294      4.615
REMARK  Name = 
REMARK  4 active torsions:
REMARK  status: ('A' for Active; 'I' for Inactive)
REMARK    1  A    between atoms: C_1  and  C_2
REMARK    2  A    between atoms: C_2  and  C_3
REMARK    3  A    between atoms: C_3  and  N_5
REMARK    4  A    between atoms: C_3  and  C_11
REMARK                            x       y       z     vdW  Elec       q    Type
REMARK                         _______ _______ _______ _____ _____    ______ ____
ROOT
ATOM      1  C   UNL     1       8.084  -2.189  23.118  0.00  0.00    +0.161 C 
ENDROOT
BRANCH   1   2
ATOM      2  N   UNL     1       7.518  -3.475  22.675  0.00  0.00    -0.290 N 
ATOM      3  C   UNL     1       7.816  -4.735  23.181  0.00  0.00    +0.216 C 
ATOM      4  O   UNL     1       8.672  -5.014  24.001  0.00  0.00    -0.276 OA
ATOM      5  C   UNL     1       6.851  -5.715  22.564  0.00  0.00    +0.097 C 
ATOM      6  C   UNL     1       5.669  -4.816  22.234  0.00  0.00    +0.028 C 
ATOM      7  C   UNL     1       6.332  -3.506  21.847  0.00  0.00    +0.109 C 
ENDBRANCH   1   2
BRANCH   1   8
ATOM      8  C   UNL     1       9.429  -1.920  22.414  0.00  0.00    +0.231 C 
ATOM      9  O   UNL     1      10.501  -2.340  22.843  0.00  0.00    -0.274 OA
ATOM     10  N   UNL     1       9.405  -1.068  21.346  0.00  0.00    -0.328 N 
ATOM     11  H   UNL     1      10.299  -0.776  20.972  0.00  0.00    +0.145 HD
ATOM     12  H   UNL     1       8.610  -0.453  21.206  0.00  0.00    +0.145 HD
ENDBRANCH   1   8
BRANCH   1  14
ATOM     13  C   UNL     1       6.389  -0.630  24.208  0.00  0.00    +0.006 C 
ATOM     14  C   UNL     1       7.162  -0.973  22.942  0.00  0.00    +0.028 C 
ENDBRANCH   1  14
TORSDOF 3
ENDMDL
MODEL 5
REMARK VINA RESULT:      -4.5      2.099      4.235
REMARK  Name = 
REMARK  4 active torsions:
REMARK  status: ('A' for Active; 'I' for Inactive)
REMARK    1  A    between atoms: C_1  and  C_2
REMARK    2  A    between atoms: C_2  and  C_3
REMARK    3  A    between atoms: C_3  and  N_5
REMARK    4  A    between atoms: C_3  and  C_11
REMARK                            x       y       z     vdW  Elec       q    Type
REMARK                         _______ _______ _______ _____ _____    ______ ____
ROOT
ATOM      1  C   UNL     1       7.966  -4.083  24.506  0.00  0.00    +0.161 C 
ENDROOT
BRANCH   1   2
ATOM      2  N   UNL     1       7.041  -4.951  23.757  0.00  0.00    -0.290 N 
ATOM      3  C   UNL     1       5.654  -4.971  23.854  0.00  0.00    +0.216 C 
ATOM      4  O   UNL     1       4.965  -4.357  24.649  0.00  0.00    -0.276 OA
ATOM      5  C   UNL     1       5.133  -5.866  22.759  0.00  0.00    +0.097 C 
ATOM      6  C   UNL     1       6.251  -5.779  21.732  0.00  0.00    +0.028 C 
ATOM      7  C   UNL     1       7.498  -5.674  22.590  0.00  0.00    +0.109 C 
ENDBRANCH   1   2
BRANCH   1   8
ATOM      8  C   UNL     1       8.993  -4.931  25.282  0.00  0.00    +0.231 C 
ATOM      9  O   UNL     1      10.181  -4.987  24.970  0.00  0.00    -0.274 OA
ATOM     10  N   UNL     1       8.506  -5.740  26.269  0.00  0.00    -0.328 N 
ATOM     11  H   UNL     1       9.151  -6.400  26.682  0.00  0.00    +0.145 HD
ATOM     12  H   UNL     1       7.516  -5.964  26.298  0.00  0.00    +0.145 HD
ENDBRANCH   1   8
BRANCH   1  14
ATOM     13  C   UNL     1       7.766  -1.985  23.074  0.00  0.00    +0.006 C 
ATOM     14  C   UNL     1       8.703  -3.031  23.664  0.00  0.00    +0.028 C 
ENDBRANCH   1  14
TORSDOF 3
ENDMDL
MODEL 6
REMARK VINA RESULT:      -4.4      2.710      3.897
REMARK  Name = 
REMARK  4 active torsions:
REMARK  status: ('A' for Active; 'I' for Inactive)
REMARK    1  A    between atoms: C_1  and  C_2
REMARK    2  A    between atoms: C_2  and  C_3
REMARK    3  A    between atoms: C_3  and  N_5
REMARK    4  A    between atoms: C_3  and  C_11
REMARK                            x       y       z     vdW  Elec       q    Type
REMARK                         _______ _______ _______ _____ _____    ______ ____
ROOT
ATOM      1  C   UNL     1       7.363  -4.475  22.857  0.00  0.00    +0.161 C 
ENDROOT
BRANCH   1   2
ATOM      2  N   UNL     1       7.421  -4.848  24.281  0.00  0.00    -0.290 N 
ATOM      3  C   UNL     1       8.565  -5.092  25.032  0.00  0.00    +0.216 C 
ATOM      4  O   UNL     1       9.712  -5.149  24.626  0.00  0.00    -0.276 OA
ATOM      5  C   UNL     1       8.144  -5.235  26.473  0.00  0.00    +0.097 C 
ATOM      6  C   UNL     1       6.856  -4.426  26.498  0.00  0.00    +0.028 C 
ATOM      7  C   UNL     1       6.259  -4.690  25.127  0.00  0.00    +0.109 C 
ENDBRANCH   1   2
BRANCH   1   8
ATOM      8  C   UNL     1       6.223  -5.232  22.147  0.00  0.00    +0.231 C 
ATOM      9  O   UNL     1       5.184  -4.684  21.785  0.00  0.00    -0.274 OA
ATOM     10  N   UNL     1       6.352  -6.589  22.047  0.00  0.00    -0.328 N 
ATOM     11  H   UNL     1       5.548  -7.103  21.713  0.00  0.00    +0.145 HD
ATOM     12  H   UNL     1       7.015  -7.079  22.639  0.00  0.00    +0.145 HD
ENDBRANCH   1   8
BRANCH   1  14
ATOM     13  C   UNL     1       8.574  -2.272  22.441  0.00  0.00    +0.006 C 
ATOM     14  C   UNL     1       7.227  -2.970  22.579  0.00  0.00    +0.028 C 
ENDBRANCH   1  14
TORSDOF 3
ENDMDL
MODEL 7
REMARK VINA RESULT:      -4.4      5.568      7.405
REMARK  Name = 
REMARK  4 active torsions:
REMARK  status: ('A' for Active; 'I' for Inactive)
REMARK    1  A    between atoms: C_1  and  C_2
REMARK    2  A    between atoms: C_2  and  C_3
REMARK    3  A    between atoms: C_3  and  N_5
REMARK    4  A    between atoms: C_3  and  C_11
REMARK                            x       y       z     vdW  Elec       q    Type
REMARK                         _______ _______ _______ _____ _____    ______ ____
ROOT
ATOM      1  C   UNL     1       9.315   2.573  23.838  0.00  0.00    +0.161 C 
ENDROOT
BRANCH   1   2
ATOM      2  N   UNL     1       9.673   3.989  24.027  0.00  0.00    -0.290 N 
ATOM      3  C   UNL     1      10.862   4.605  23.655  0.00  0.00    +0.216 C 
ATOM      4  O   UNL     1      11.859   4.067  23.207  0.00  0.00    -0.276 OA
ATOM      5  C   UNL     1      10.693   6.089  23.861  0.00  0.00    +0.097 C 
ATOM      6  C   UNL     1       9.185   6.245  23.740  0.00  0.00    +0.028 C 
ATOM      7  C   UNL     1       8.656   4.963  24.357  0.00  0.00    +0.109 C 
ENDBRANCH   1   2
BRANCH   1   8
ATOM      8  C   UNL     1       8.973   2.295  22.361  0.00  0.00    +0.231 C 
ATOM      9  O   UNL     1       7.819   2.242  21.943  0.00  0.00    -0.274 OA
ATOM     10  N   UNL     1      10.014   1.972  21.537  0.00  0.00    -0.328 N 
ATOM     11  H   UNL     1       9.781   1.651  20.606  0.00  0.00    +0.145 HD
ATOM     12  H   UNL     1      10.899   1.673  21.933  0.00  0.00    +0.145 HD
ENDBRANCH   1   8
BRANCH   1  14
ATOM     13  C   UNL     1       9.750   0.300  24.904  0.00  0.00    +0.006 C 
ATOM     14  C   UNL     1      10.369   1.561  24.317  0.00  0.00    +0.028 C 
ENDBRANCH   1  14
TORSDOF 3
ENDMDL
MODEL 8
REMARK VINA RESULT:      -4.4      2.026      2.248
REMARK  Name = 
REMARK  4 active torsions:
REMARK  status: ('A' for Active; 'I' for Inactive)
REMARK    1  A    between atoms: C_1  and  C_2
REMARK    2  A    between atoms: C_2  and  C_3
REMARK    3  A    between atoms: C_3  and  N_5
REMARK    4  A    between atoms: C_3  and  C_11
REMARK                            x       y       z     vdW  Elec       q    Type
REMARK                         _______ _______ _______ _____ _____    ______ ____
ROOT
ATOM      1  C   UNL     1       7.128  -4.795  25.065  0.00  0.00    +0.161 C 
ENDROOT
BRANCH   1   2
ATOM      2  N   UNL     1       8.022  -3.714  24.616  0.00  0.00    -0.290 N 
ATOM      3  C   UNL     1       9.404  -3.775  24.486  0.00  0.00    +0.216 C 
ATOM      4  O   UNL     1      10.134  -4.692  24.820  0.00  0.00    -0.276 OA
ATOM      5  C   UNL     1       9.856  -2.507  23.806  0.00  0.00    +0.097 C 
ATOM      6  C   UNL     1       8.606  -2.110  23.035  0.00  0.00    +0.028 C 
ATOM      7  C   UNL     1       7.482  -2.544  23.958  0.00  0.00    +0.109 C 
ENDBRANCH   1   2
BRANCH   1   8
ATOM      8  C   UNL     1       7.198  -4.954  26.596  0.00  0.00    +0.231 C 
ATOM      9  O   UNL     1       6.596  -4.213  27.371  0.00  0.00    -0.274 OA
ATOM     10  N   UNL     1       8.076  -5.882  27.081  0.00  0.00    -0.328 N 
ATOM     11  H   UNL     1       8.230  -5.890  28.080  0.00  0.00    +0.145 HD
ATOM     12  H   UNL     1       8.815  -6.239  26.485  0.00  0.00    +0.145 HD
ENDBRANCH   1   8
BRANCH   1  14
ATOM     13  C   UNL     1       4.922  -5.986  24.608  0.00  0.00    +0.006 C 
ATOM     14  C   UNL     1       5.660  -4.654  24.633  0.00  0.00    +0.028 C 
ENDBRANCH   1  14
TORSDOF 3
ENDMDL
MODEL 9
REMARK VINA RESULT:      -4.3      2.075      2.598
REMARK  Name = 
REMARK  4 active torsions:
REMARK  status: ('A' for Active; 'I' for Inactive)
REMARK    1  A    between atoms: C_1  and  C_2
REMARK    2  A    between atoms: C_2  and  C_3
REMARK    3  A    between atoms: C_3  and  N_5
REMARK    4  A    between atoms: C_3  and  C_11
REMARK                            x       y       z     vdW  Elec       q    Type
REMARK                         _______ _______ _______ _____ _____    ______ ____
ROOT
ATOM      1  C   UNL     1       7.401  -4.441  23.103  0.00  0.00    +0.161 C 
ENDROOT
BRANCH   1   2
ATOM      2  N   UNL     1       8.225  -3.225  23.212  0.00  0.00    -0.290 N 
ATOM      3  C   UNL     1       9.445  -3.101  23.866  0.00  0.00    +0.216 C 
ATOM      4  O   UNL     1       9.998  -3.940  24.555  0.00  0.00    -0.276 OA
ATOM      5  C   UNL     1      10.005  -1.740  23.537  0.00  0.00    +0.097 C 
ATOM      6  C   UNL     1       9.338  -1.449  22.202  0.00  0.00    +0.028 C 
ATOM      7  C   UNL     1       7.969  -2.088  22.356  0.00  0.00    +0.109 C 
ENDBRANCH   1   2
BRANCH   1   8
ATOM      8  C   UNL     1       6.543  -4.627  24.370  0.00  0.00    +0.231 C 
ATOM      9  O   UNL     1       6.842  -5.409  25.269  0.00  0.00    -0.274 OA
ATOM     10  N   UNL     1       5.342  -3.975  24.402  0.00  0.00    -0.328 N 
ATOM     11  H   UNL     1       4.715  -4.205  25.162  0.00  0.00    +0.145 HD
ATOM     12  H   UNL     1       4.935  -3.621  23.542  0.00  0.00    +0.145 HD
ENDBRANCH   1   8
BRANCH   1  14
ATOM     13  C   UNL     1       6.290  -5.936  21.365  0.00  0.00    +0.006 C 
ATOM     14  C   UNL     1       6.500  -4.512  21.861  0.00  0.00    +0.028 C 
ENDBRANCH   1  14
TORSDOF 3
ENDMDL
