MODEL 1
REMARK VINA RESULT:      -4.3      0.000      0.000
REMARK  Name = 
REMARK  8 active torsions:
REMARK  status: ('A' for Active; 'I' for Inactive)
REMARK    1  A    between atoms: N_1  and  CA_2
REMARK    2  A    between atoms: CA_2  and  C_4
REMARK    3  A    between atoms: CA_2  and  C_9
REMARK    4  A    between atoms: C_4  and  C_5
REMARK    5  A    between atoms: C_5  and  C_6
REMARK    6  A    between atoms: C_6  and  C_7
REMARK    7  A    between atoms: C_7  and  O_8
REMARK    8  A    between atoms: C_9  and  O_10
REMARK                            x       y       z     vdW  Elec       q    Type
REMARK                         _______ _______ _______ _____ _____    ______ ____
ROOT
ATOM      1  CA  UNL     1       9.842   2.473  23.585  0.00  0.00    +0.161 C 
ENDROOT
BRANCH   1   2
ATOM      2  N   UNL     1       9.882   1.506  24.727  0.00  0.00    -0.318 NA
ATOM      3  H1  UNL     1       8.924   1.192  24.917  0.00  0.00    +0.119 HD
ATOM      4  H2  UNL     1      10.355   0.659  24.394  0.00  0.00    +0.119 HD
ENDBRANCH   1   2
BRANCH   1   5
ATOM      5  C   UNL     1       9.698   1.669  22.278  0.00  0.00    +0.322 C 
ATOM      6  OXT UNL     1      10.156   0.556  22.076  0.00  0.00    -0.249 OA
BRANCH   5   7
ATOM      7  O   UNL     1       8.990   2.366  21.350  0.00  0.00    -0.480 OA
ATOM      8  H   UNL     1       8.039   2.239  21.600  0.00  0.00    +0.295 HD
ENDBRANCH   5   7
ENDBRANCH   1   5
BRANCH   1   9
ATOM      9  C   UNL     1      11.099   3.348  23.527  0.00  0.00    +0.030 C 
BRANCH   9  10
ATOM     10  C   UNL     1      10.802   4.844  23.628  0.00  0.00    +0.004 C 
BRANCH  10  11
ATOM     11  C   UNL     1      12.092   5.658  23.782  0.00  0.00    +0.028 C 
BRANCH  11  12
ATOM     12  C   UNL     1      13.057   5.421  22.626  0.00  0.00    +0.156 C 
BRANCH  12  13
ATOM     13  O   UNL     1      14.348   5.085  23.115  0.00  0.00    -0.395 OA
ATOM     14  H   UNL     1      14.990   5.293  22.414  0.00  0.00    +0.209 HD
ENDBRANCH  12  13
ENDBRANCH  11  12
ENDBRANCH  10  11
ENDBRANCH   9  10
ENDBRANCH   1   9
TORSDOF 8
ENDMDL
MODEL 2
REMARK VINA RESULT:      -4.2      6.180      7.991
REMARK  Name = 
REMARK  8 active torsions:
REMARK  status: ('A' for Active; 'I' for Inactive)
REMARK    1  A    between atoms: N_1  and  CA_2
REMARK    2  A    between atoms: CA_2  and  C_4
REMARK    3  A    between atoms: CA_2  and  C_9
REMARK    4  A    between atoms: C_4  and  C_5
REMARK    5  A    between atoms: C_5  and  C_6
REMARK    6  A    between atoms: C_6  and  C_7
REMARK    7  A    between atoms: C_7  and  O_8
REMARK    8  A    between atoms: C_9  and  O_10
REMARK                            x       y       z     vdW  Elec       q    Type
REMARK                         _______ _______ _______ _____ _____    ______ ____
ROOT
ATOM      1  CA  UNL     1       9.193  -4.506  25.403  0.00  0.00    +0.161 C 
ENDROOT
BRANCH   1   2
ATOM      2  N   UNL     1      10.130  -5.672  25.348  0.00  0.00    -0.318 NA
ATOM      3  H1  UNL     1       9.616  -6.512  25.637  0.00  0.00    +0.119 HD
ATOM      4  H2  UNL     1      10.346  -5.846  24.361  0.00  0.00    +0.119 HD
ENDBRANCH   1   2
BRANCH   1   5
ATOM      5  C   UNL     1       8.232  -4.715  26.590  0.00  0.00    +0.322 C 
ATOM      6  OXT UNL     1       7.578  -3.840  27.133  0.00  0.00    -0.249 OA
BRANCH   5   7
ATOM      7  O   UNL     1       8.205  -6.019  26.974  0.00  0.00    -0.480 OA
ATOM      8  H   UNL     1       8.963  -6.445  26.500  0.00  0.00    +0.295 HD
ENDBRANCH   5   7
ENDBRANCH   1   5
BRANCH   1   9
ATOM      9  C   UNL     1       8.396  -4.348  24.104  0.00  0.00    +0.030 C 
BRANCH   9  10
ATOM     10  C   UNL     1       8.543  -2.966  23.466  0.00  0.00    +0.004 C 
BRANCH  10  11
ATOM     11  C   UNL     1       9.920  -2.361  23.761  0.00  0.00    +0.028 C 
BRANCH  11  12
ATOM     12  C   UNL     1      10.241  -1.193  22.836  0.00  0.00    +0.156 C 
BRANCH  12  13
ATOM     13  O   UNL     1      10.171  -1.600  21.477  0.00  0.00    -0.395 OA
ATOM     14  H   UNL     1      10.805  -1.057  20.976  0.00  0.00    +0.209 HD
ENDBRANCH  12  13
ENDBRANCH  11  12
ENDBRANCH  10  11
ENDBRANCH   9  10
ENDBRANCH   1   9
TORSDOF 8
ENDMDL
MODEL 3
REMARK VINA RESULT:      -4.2      2.400      4.907
REMARK  Name = 
REMARK  8 active torsions:
REMARK  status: ('A' for Active; 'I' for Inactive)
REMARK    1  A    between atoms: N_1  and  CA_2
REMARK    2  A    between atoms: CA_2  and  C_4
REMARK    3  A    between atoms: CA_2  and  C_9
REMARK    4  A    between atoms: C_4  and  C_5
REMARK    5  A    between atoms: C_5  and  C_6
REMARK    6  A    between atoms: C_6  and  C_7
REMARK    7  A    between atoms: C_7  and  O_8
REMARK    8  A    between atoms: C_9  and  O_10
REMARK                            x       y       z     vdW  Elec       q    Type
REMARK                         _______ _______ _______ _____ _____    ______ ____
ROOT
ATOM      1  CA  UNL     1       9.771   1.772  24.052  0.00  0.00    +0.161 C 
ENDROOT
BRANCH   1   2
ATOM      2  N   UNL     1       8.438   1.432  23.462  0.00  0.00    -0.318 NA
ATOM      3  H1  UNL     1       7.962   0.780  24.096  0.00  0.00    +0.119 HD
ATOM      4  H2  UNL     1       7.861   2.278  23.503  0.00  0.00    +0.119 HD
ENDBRANCH   1   2
BRANCH   1   5
ATOM      5  C   UNL     1      10.544   2.633  23.033  0.00  0.00    +0.322 C 
ATOM      6  OXT UNL     1      11.310   3.541  23.310  0.00  0.00    -0.249 OA
BRANCH   5   7
ATOM      7  O   UNL     1      10.258   2.258  21.758  0.00  0.00    -0.480 OA
ATOM      8  H   UNL     1      11.120   2.310  21.273  0.00  0.00    +0.295 HD
ENDBRANCH   5   7
ENDBRANCH   1   5
BRANCH   1   9
ATOM      9  C   UNL     1      10.582   0.518  24.400  0.00  0.00    +0.030 C 
BRANCH   9  10
ATOM     10  C   UNL     1       9.792  -0.781  24.236  0.00  0.00    +0.004 C 
BRANCH  10  11
ATOM     11  C   UNL     1      10.306  -1.597  23.045  0.00  0.00    +0.028 C 
BRANCH  11  12
ATOM     12  C   UNL     1       9.316  -1.601  21.886  0.00  0.00    +0.156 C 
BRANCH  12  13
ATOM     13  O   UNL     1       9.494  -0.450  21.073  0.00  0.00    -0.395 OA
ATOM     14  H   UNL     1       9.066  -0.628  20.217  0.00  0.00    +0.209 HD
ENDBRANCH  12  13
ENDBRANCH  11  12
ENDBRANCH  10  11
ENDBRANCH   9  10
ENDBRANCH   1   9
TORSDOF 8
ENDMDL
MODEL 4
REMARK VINA RESULT:      -4.1      2.879      3.885
REMARK  Name = 
REMARK  8 active torsions:
REMARK  status: ('A' for Active; 'I' for Inactive)
REMARK    1  A    between atoms: N_1  and  CA_2
REMARK    2  A    between atoms: CA_2  and  C_4
REMARK    3  A    between atoms: CA_2  and  C_9
REMARK    4  A    between atoms: C_4  and  C_5
REMARK    5  A    between atoms: C_5  and  C_6
REMARK    6  A    between atoms: C_6  and  C_7
REMARK    7  A    between atoms: C_7  and  O_8
REMARK    8  A    between atoms: C_9  and  O_10
REMARK                            x       y       z     vdW  Elec       q    Type
REMARK                         _______ _______ _______ _____ _____    ______ ____
ROOT
ATOM      1  CA  UNL     1       8.964  -0.762  23.466  0.00  0.00    +0.161 C 
ENDROOT
BRANCH   1   2
ATOM      2  N   UNL     1       7.858  -1.745  23.695  0.00  0.00    -0.318 NA
ATOM      3  H1  UNL     1       6.977  -1.225  23.778  0.00  0.00    +0.119 HD
ATOM      4  H2  UNL     1       7.743  -2.283  22.831  0.00  0.00    +0.119 HD
ENDBRANCH   1   2
BRANCH   1   5
ATOM      5  C   UNL     1       9.907  -1.339  22.392  0.00  0.00    +0.322 C 
ATOM      6  OXT UNL     1      10.733  -2.220  22.574  0.00  0.00    -0.249 OA
BRANCH   5   7
ATOM      7  O   UNL     1       9.711  -0.733  21.191  0.00  0.00    -0.480 OA
ATOM      8  H   UNL     1      10.359  -1.161  20.576  0.00  0.00    +0.295 HD
ENDBRANCH   5   7
ENDBRANCH   1   5
BRANCH   1   9
ATOM      9  C   UNL     1       9.748  -0.468  24.750  0.00  0.00    +0.030 C 
BRANCH   9  10
ATOM     10  C   UNL     1      10.631   0.776  24.650  0.00  0.00    +0.004 C 
BRANCH  10  11
ATOM     11  C   UNL     1       9.843   1.975  24.111  0.00  0.00    +0.028 C 
BRANCH  11  12
ATOM     12  C   UNL     1      10.573   2.669  22.967  0.00  0.00    +0.156 C 
BRANCH  12  13
ATOM     13  O   UNL     1      10.120   2.178  21.715  0.00  0.00    -0.395 OA
ATOM     14  H   UNL     1       9.616   1.363  21.885  0.00  0.00    +0.209 HD
ENDBRANCH  12  13
ENDBRANCH  11  12
ENDBRANCH  10  11
ENDBRANCH   9  10
ENDBRANCH   1   9
TORSDOF 8
ENDMDL
MODEL 5
REMARK VINA RESULT:      -4.1      3.190      4.793
REMARK  Name = 
REMARK  8 active torsions:
REMARK  status: ('A' for Active; 'I' for Inactive)
REMARK    1  A    between atoms: N_1  and  CA_2
REMARK    2  A    between atoms: CA_2  and  C_4
REMARK    3  A    between atoms: CA_2  and  C_9
REMARK    4  A    between atoms: C_4  and  C_5
REMARK    5  A    between atoms: C_5  and  C_6
REMARK    6  A    between atoms: C_6  and  C_7
REMARK    7  A    between atoms: C_7  and  O_8
REMARK    8  A    between atoms: C_9  and  O_10
REMARK                            x       y       z     vdW  Elec       q    Type
REMARK                         _______ _______ _______ _____ _____    ______ ____
ROOT
ATOM      1  CA  UNL     1      10.428   1.783  23.008  0.00  0.00    +0.161 C 
ENDROOT
BRANCH   1   2
ATOM      2  N   UNL     1      10.691   3.257  23.014  0.00  0.00    -0.318 NA
ATOM      3  H1  UNL     1      11.417   3.451  23.713  0.00  0.00    +0.119 HD
ATOM      4  H2  UNL     1      11.141   3.491  22.123  0.00  0.00    +0.119 HD
ENDBRANCH   1   2
BRANCH   1   5
ATOM      5  C   UNL     1       9.480   1.468  21.835  0.00  0.00    +0.322 C 
ATOM      6  OXT UNL     1       9.400   0.395  21.258  0.00  0.00    -0.249 OA
BRANCH   5   7
ATOM      7  O   UNL     1       8.730   2.553  21.504  0.00  0.00    -0.480 OA
ATOM      8  H   UNL     1       7.981   2.557  22.152  0.00  0.00    +0.295 HD
ENDBRANCH   5   7
ENDBRANCH   1   5
BRANCH   1   9
ATOM      9  C   UNL     1       9.808   1.305  24.326  0.00  0.00    +0.030 C 
BRANCH   9  10
ATOM     10  C   UNL     1      10.332  -0.057  24.783  0.00  0.00    +0.004 C 
BRANCH  10  11
ATOM     11  C   UNL     1       9.327  -1.172  24.471  0.00  0.00    +0.028 C 
BRANCH  11  12
ATOM     12  C   UNL     1       9.974  -2.327  23.716  0.00  0.00    +0.156 C 
BRANCH  12  13
ATOM     13  O   UNL     1      10.589  -1.862  22.523  0.00  0.00    -0.395 OA
ATOM     14  H   UNL     1      10.682  -0.897  22.599  0.00  0.00    +0.209 HD
ENDBRANCH  12  13
ENDBRANCH  11  12
ENDBRANCH  10  11
ENDBRANCH   9  10
ENDBRANCH   1   9
TORSDOF 8
ENDMDL
MODEL 6
REMARK VINA RESULT:      -4.0      8.733     10.002
REMARK  Name = 
REMARK  8 active torsions:
REMARK  status: ('A' for Active; 'I' for Inactive)
REMARK    1  A    between atoms: N_1  and  CA_2
REMARK    2  A    between atoms: CA_2  and  C_4
REMARK    3  A    between atoms: CA_2  and  C_9
REMARK    4  A    between atoms: C_4  and  C_5
REMARK    5  A    between atoms: C_5  and  C_6
REMARK    6  A    between atoms: C_6  and  C_7
REMARK    7  A    between atoms: C_7  and  O_8
REMARK    8  A    between atoms: C_9  and  O_10
REMARK                            x       y       z     vdW  Elec       q    Type
REMARK                         _______ _______ _______ _____ _____    ______ ____
ROOT
ATOM      1  CA  UNL     1       9.224  -4.536  25.394  0.00  0.00    +0.161 C 
ENDROOT
BRANCH   1   2
ATOM      2  N   UNL     1       9.896  -5.859  25.197  0.00  0.00    -0.318 NA
ATOM      3  H1  UNL     1       9.758  -6.419  26.047  0.00  0.00    +0.119 HD
ATOM      4  H2  UNL     1       9.367  -6.367  24.482  0.00  0.00    +0.119 HD
ENDBRANCH   1   2
BRANCH   1   5
ATOM      5  C   UNL     1       8.179  -4.687  26.516  0.00  0.00    +0.322 C 
ATOM      6  OXT UNL     1       7.443  -3.802  26.922  0.00  0.00    -0.249 OA
BRANCH   5   7
ATOM      7  O   UNL     1       8.177  -5.951  27.016  0.00  0.00    -0.480 OA
ATOM      8  H   UNL     1       7.765  -5.874  27.914  0.00  0.00    +0.295 HD
ENDBRANCH   5   7
ENDBRANCH   1   5
BRANCH   1   9
ATOM      9  C   UNL     1       8.550  -4.037  24.111  0.00  0.00    +0.030 C 
BRANCH   9  10
ATOM     10  C   UNL     1       7.660  -5.088  23.445  0.00  0.00    +0.004 C 
BRANCH  10  11
ATOM     11  C   UNL     1       7.132  -4.593  22.094  0.00  0.00    +0.028 C 
BRANCH  11  12
ATOM     12  C   UNL     1       6.460  -5.708  21.302  0.00  0.00    +0.156 C 
BRANCH  12  13
ATOM     13  O   UNL     1       6.215  -6.833  22.133  0.00  0.00    -0.395 OA
ATOM     14  H   UNL     1       5.782  -7.512  21.586  0.00  0.00    +0.209 HD
ENDBRANCH  12  13
ENDBRANCH  11  12
ENDBRANCH  10  11
ENDBRANCH   9  10
ENDBRANCH   1   9
TORSDOF 8
ENDMDL
MODEL 7
REMARK VINA RESULT:      -4.0      8.702      9.969
REMARK  Name = 
REMARK  8 active torsions:
REMARK  status: ('A' for Active; 'I' for Inactive)
REMARK    1  A    between atoms: N_1  and  CA_2
REMARK    2  A    between atoms: CA_2  and  C_4
REMARK    3  A    between atoms: CA_2  and  C_9
REMARK    4  A    between atoms: C_4  and  C_5
REMARK    5  A    between atoms: C_5  and  C_6
REMARK    6  A    between atoms: C_6  and  C_7
REMARK    7  A    between atoms: C_7  and  O_8
REMARK    8  A    between atoms: C_9  and  O_10
REMARK                            x       y       z     vdW  Elec       q    Type
REMARK                         _______ _______ _______ _____ _____    ______ ____
ROOT
ATOM      1  CA  UNL     1       8.164  -5.382  25.632  0.00  0.00    +0.161 C 
ENDROOT
BRANCH   1   2
ATOM      2  N   UNL     1       8.159  -5.533  27.121  0.00  0.00    -0.318 NA
ATOM      3  H1  UNL     1       8.958  -6.119  27.388  0.00  0.00    +0.119 HD
ATOM      4  H2  UNL     1       8.382  -4.617  27.522  0.00  0.00    +0.119 HD
ENDBRANCH   1   2
BRANCH   1   5
ATOM      5  C   UNL     1       9.554  -4.871  25.204  0.00  0.00    +0.322 C 
ATOM      6  OXT UNL     1       9.764  -3.912  24.478  0.00  0.00    -0.249 OA
BRANCH   5   7
ATOM      7  O   UNL     1      10.543  -5.636  25.738  0.00  0.00    -0.480 OA
ATOM      8  H   UNL     1      10.983  -6.068  24.962  0.00  0.00    +0.295 HD
ENDBRANCH   5   7
ENDBRANCH   1   5
BRANCH   1   9
ATOM      9  C   UNL     1       7.078  -4.414  25.148  0.00  0.00    +0.030 C 
BRANCH   9  10
ATOM     10  C   UNL     1       6.234  -4.973  24.002  0.00  0.00    +0.004 C 
BRANCH  10  11
ATOM     11  C   UNL     1       6.827  -4.595  22.640  0.00  0.00    +0.028 C 
BRANCH  11  12
ATOM     12  C   UNL     1       7.101  -5.821  21.777  0.00  0.00    +0.156 C 
BRANCH  12  13
ATOM     13  O   UNL     1       6.124  -6.825  22.011  0.00  0.00    -0.395 OA
ATOM     14  H   UNL     1       6.478  -7.664  21.668  0.00  0.00    +0.209 HD
ENDBRANCH  12  13
ENDBRANCH  11  12
ENDBRANCH  10  11
ENDBRANCH   9  10
ENDBRANCH   1   9
TORSDOF 8
ENDMDL
MODEL 8
REMARK VINA RESULT:      -4.0      3.487      4.649
REMARK  Name = 
REMARK  8 active torsions:
REMARK  status: ('A' for Active; 'I' for Inactive)
REMARK    1  A    between atoms: N_1  and  CA_2
REMARK    2  A    between atoms: CA_2  and  C_4
REMARK    3  A    between atoms: CA_2  and  C_9
REMARK    4  A    between atoms: C_4  and  C_5
REMARK    5  A    between atoms: C_5  and  C_6
REMARK    6  A    between atoms: C_6  and  C_7
REMARK    7  A    between atoms: C_7  and  O_8
REMARK    8  A    between atoms: C_9  and  O_10
REMARK                            x       y       z     vdW  Elec       q    Type
REMARK                         _______ _______ _______ _____ _____    ______ ____
ROOT
ATOM      1  CA  UNL     1       9.636  -1.965  23.095  0.00  0.00    +0.161 C 
ENDROOT
BRANCH   1   2
ATOM      2  N   UNL     1      10.494  -1.613  21.920  0.00  0.00    -0.318 NA
ATOM      3  H1  UNL     1      10.202  -2.190  21.123  0.00  0.00    +0.119 HD
ATOM      4  H2  UNL     1      10.248  -0.660  21.635  0.00  0.00    +0.119 HD
ENDBRANCH   1   2
BRANCH   1   5
ATOM      5  C   UNL     1       8.176  -2.069  22.611  0.00  0.00    +0.322 C 
ATOM      6  OXT UNL     1       7.629  -3.089  22.225  0.00  0.00    -0.249 OA
BRANCH   5   7
ATOM      7  O   UNL     1       7.557  -0.859  22.660  0.00  0.00    -0.480 OA
ATOM      8  H   UNL     1       7.654  -0.482  21.749  0.00  0.00    +0.295 HD
ENDBRANCH   5   7
ENDBRANCH   1   5
BRANCH   1   9
ATOM      9  C   UNL     1       9.745  -0.928  24.218  0.00  0.00    +0.030 C 
BRANCH   9  10
ATOM     10  C   UNL     1      10.706   0.217  23.896  0.00  0.00    +0.004 C 
BRANCH  10  11
ATOM     11  C   UNL     1       9.949   1.525  23.643  0.00  0.00    +0.028 C 
BRANCH  11  12
ATOM     12  C   UNL     1      10.094   1.999  22.202  0.00  0.00    +0.156 C 
BRANCH  12  13
ATOM     13  O   UNL     1       9.362   1.158  21.323  0.00  0.00    -0.395 OA
ATOM     14  H   UNL     1       9.803   1.185  20.456  0.00  0.00    +0.209 HD
ENDBRANCH  12  13
ENDBRANCH  11  12
ENDBRANCH  10  11
ENDBRANCH   9  10
ENDBRANCH   1   9
TORSDOF 8
ENDMDL
MODEL 9
REMARK VINA RESULT:      -4.0      3.401      4.561
REMARK  Name = 
REMARK  8 active torsions:
REMARK  status: ('A' for Active; 'I' for Inactive)
REMARK    1  A    between atoms: N_1  and  CA_2
REMARK    2  A    between atoms: CA_2  and  C_4
REMARK    3  A    between atoms: CA_2  and  C_9
REMARK    4  A    between atoms: C_4  and  C_5
REMARK    5  A    between atoms: C_5  and  C_6
REMARK    6  A    between atoms: C_6  and  C_7
REMARK    7  A    between atoms: C_7  and  O_8
REMARK    8  A    between atoms: C_9  and  O_10
REMARK                            x       y       z     vdW  Elec       q    Type
REMARK                         _______ _______ _______ _____ _____    ______ ____
ROOT
ATOM      1  CA  UNL     1       8.834  -1.440  22.581  0.00  0.00    +0.161 C 
ENDROOT
BRANCH   1   2
ATOM      2  N   UNL     1       7.706  -0.694  23.223  0.00  0.00    -0.318 NA
ATOM      3  H1  UNL     1       6.994  -0.508  22.508  0.00  0.00    +0.119 HD
ATOM      4  H2  UNL     1       7.241  -1.339  23.870  0.00  0.00    +0.119 HD
ENDBRANCH   1   2
BRANCH   1   5
ATOM      5  C   UNL     1       9.798  -1.903  23.691  0.00  0.00    +0.322 C 
ATOM      6  OXT UNL     1      10.186  -3.048  23.860  0.00  0.00    -0.249 OA
BRANCH   5   7
ATOM      7  O   UNL     1      10.170  -0.862  24.482  0.00  0.00    -0.480 OA
ATOM      8  H   UNL     1       9.326  -0.399  24.716  0.00  0.00    +0.295 HD
ENDBRANCH   5   7
ENDBRANCH   1   5
BRANCH   1   9
ATOM      9  C   UNL     1       9.584  -0.580  21.558  0.00  0.00    +0.030 C 
BRANCH   9  10
ATOM     10  C   UNL     1       9.082   0.863  21.493  0.00  0.00    +0.004 C 
BRANCH  10  11
ATOM     11  C   UNL     1      10.091   1.831  22.119  0.00  0.00    +0.028 C 
BRANCH  11  12
ATOM     12  C   UNL     1       9.481   2.625  23.269  0.00  0.00    +0.156 C 
BRANCH  12  13
ATOM     13  O   UNL     1       9.215   1.775  24.376  0.00  0.00    -0.395 OA
ATOM     14  H   UNL     1       8.790   2.316  25.064  0.00  0.00    +0.209 HD
ENDBRANCH  12  13
ENDBRANCH  11  12
ENDBRANCH  10  11
ENDBRANCH   9  10
ENDBRANCH   1   9
TORSDOF 8
ENDMDL
