MODEL 1
REMARK VINA RESULT:      -5.9      0.000      0.000
REMARK  Name = 
REMARK  10 active torsions:
REMARK  status: ('A' for Active; 'I' for Inactive)
REMARK    1  A    between atoms: O_1  and  C_2
REMARK    2  A    between atoms: C_2  and  C_3
REMARK    3  A    between atoms: C_6  and  O_8
REMARK    4  A    between atoms: C_9  and  O_11
REMARK    5  A    between atoms: O_11  and  S_12
REMARK    6  A    between atoms: S_12  and  O_13
REMARK    7  A    between atoms: C_16  and  O_18
REMARK    8  A    between atoms: O_18  and  S_19
REMARK    9  A    between atoms: S_19  and  O_20
REMARK   10  A    between atoms: C_23  and  O_25
REMARK                            x       y       z     vdW  Elec       q    Type
REMARK                         _______ _______ _______ _____ _____    ______ ____
ROOT
ATOM      1  C   UNL     1       9.170   0.098  22.943  0.00  0.00    +0.178 C 
ATOM      2  C   UNL     1       9.709  -1.258  22.472  0.00  0.00    +0.179 C 
ATOM      3  C   UNL     1       8.934  -2.364  23.214  0.00  0.00    +0.219 C 
ATOM      4  C   UNL     1       9.206  -2.210  24.723  0.00  0.00    +0.241 C 
ATOM      5  C   UNL     1       8.852  -0.761  25.152  0.00  0.00    +0.282 C 
ATOM      6  O   UNL     1       9.486   0.230  24.343  0.00  0.00    -0.341 OA
ENDROOT
BRANCH   2   7
ATOM      7  O   UNL     1       9.671  -1.451  21.063  0.00  0.00    -0.386 OA
ATOM      8  H   UNL     1       9.547  -0.600  20.600  0.00  0.00    +0.210 HD
ENDBRANCH   2   7
BRANCH   5   9
ATOM      9  O   UNL     1       9.285  -0.558  26.489  0.00  0.00    -0.365 OA
ATOM     10  H   UNL     1       9.526  -1.441  26.816  0.00  0.00    +0.213 HD
ENDBRANCH   5   9
BRANCH   1  11
ATOM     11  C   UNL     1       9.745   1.274  22.147  0.00  0.00    +0.190 C 
BRANCH  11  12
ATOM     12  O   UNL     1       8.970   1.446  20.956  0.00  0.00    -0.392 OA
ATOM     13  H   UNL     1       9.276   2.267  20.533  0.00  0.00    +0.210 HD
ENDBRANCH  11  12
ENDBRANCH   1  11
BRANCH   3  14
ATOM     14  O   UNL     1       7.512  -2.243  23.076  0.00  0.00    -0.207 OA
BRANCH  14  15
ATOM     15  S   UNL     1       6.609  -3.495  22.602  0.00  0.00    +0.208 S 
ATOM     16  O   UNL     1       7.460  -4.588  22.214  0.00  0.00    -0.118 OA
ATOM     17  O   UNL     1       5.589  -2.962  21.729  0.00  0.00    -0.118 OA
BRANCH  15  18
ATOM     18  O   UNL     1       5.854  -3.898  23.969  0.00  0.00    -0.231 OA
ATOM     19  H   UNL     1       6.373  -3.541  24.717  0.00  0.00    +0.247 HD
ENDBRANCH  15  18
ENDBRANCH  14  15
ENDBRANCH   3  14
BRANCH   4  20
ATOM     20  O   UNL     1       8.396  -3.118  25.482  0.00  0.00    -0.205 OA
BRANCH  20  21
ATOM     21  S   UNL     1       8.870  -4.661  25.618  0.00  0.00    +0.208 S 
ATOM     22  O   UNL     1      10.023  -4.872  24.777  0.00  0.00    -0.118 OA
ATOM     23  O   UNL     1       7.697  -5.497  25.535  0.00  0.00    -0.118 OA
BRANCH  21  24
ATOM     24  O   UNL     1       9.329  -4.751  27.155  0.00  0.00    -0.231 OA
ATOM     25  H   UNL     1      10.196  -5.209  27.168  0.00  0.00    +0.247 HD
ENDBRANCH  21  24
ENDBRANCH  20  21
ENDBRANCH   4  20
TORSDOF 10
ENDMDL
MODEL 2
REMARK VINA RESULT:      -5.8      2.269      4.720
REMARK  Name = 
REMARK  10 active torsions:
REMARK  status: ('A' for Active; 'I' for Inactive)
REMARK    1  A    between atoms: O_1  and  C_2
REMARK    2  A    between atoms: C_2  and  C_3
REMARK    3  A    between atoms: C_6  and  O_8
REMARK    4  A    between atoms: C_9  and  O_11
REMARK    5  A    between atoms: O_11  and  S_12
REMARK    6  A    between atoms: S_12  and  O_13
REMARK    7  A    between atoms: C_16  and  O_18
REMARK    8  A    between atoms: O_18  and  S_19
REMARK    9  A    between atoms: S_19  and  O_20
REMARK   10  A    between atoms: C_23  and  O_25
REMARK                            x       y       z     vdW  Elec       q    Type
REMARK                         _______ _______ _______ _____ _____    ______ ____
ROOT
ATOM      1  C   UNL     1       8.233  -2.512  22.682  0.00  0.00    +0.178 C 
ATOM      2  C   UNL     1       7.447  -2.291  23.980  0.00  0.00    +0.179 C 
ATOM      3  C   UNL     1       6.975  -3.665  24.493  0.00  0.00    +0.219 C 
ATOM      4  C   UNL     1       6.039  -4.277  23.433  0.00  0.00    +0.241 C 
ATOM      5  C   UNL     1       6.776  -4.304  22.067  0.00  0.00    +0.282 C 
ATOM      6  O   UNL     1       7.318  -3.036  21.701  0.00  0.00    -0.341 OA
ENDROOT
BRANCH   2   7
ATOM      7  O   UNL     1       8.154  -1.574  24.984  0.00  0.00    -0.386 OA
ATOM      8  H   UNL     1       8.809  -2.150  25.424  0.00  0.00    +0.210 HD
ENDBRANCH   2   7
BRANCH   5   9
ATOM      9  O   UNL     1       5.854  -4.682  21.055  0.00  0.00    -0.365 OA
ATOM     10  H   UNL     1       6.333  -4.566  20.217  0.00  0.00    +0.213 HD
ENDBRANCH   5   9
BRANCH   1  11
ATOM     11  C   UNL     1       8.901  -1.232  22.169  0.00  0.00    +0.190 C 
BRANCH  11  12
ATOM     12  O   UNL     1      10.129  -1.581  21.522  0.00  0.00    -0.392 OA
ATOM     13  H   UNL     1       9.900  -1.927  20.642  0.00  0.00    +0.210 HD
ENDBRANCH  11  12
ENDBRANCH   1  11
BRANCH   3  14
ATOM     14  O   UNL     1       8.046  -4.609  24.636  0.00  0.00    -0.207 OA
BRANCH  14  15
ATOM     15  S   UNL     1       8.561  -5.073  26.093  0.00  0.00    +0.208 S 
ATOM     16  O   UNL     1       7.578  -5.924  26.708  0.00  0.00    -0.118 OA
ATOM     17  O   UNL     1       9.077  -3.892  26.745  0.00  0.00    -0.118 OA
BRANCH  15  18
ATOM     18  O   UNL     1       9.849  -5.969  25.722  0.00  0.00    -0.231 OA
ATOM     19  H   UNL     1       9.593  -6.910  25.790  0.00  0.00    +0.247 HD
ENDBRANCH  15  18
ENDBRANCH  14  15
ENDBRANCH   3  14
BRANCH   4  20
ATOM     20  O   UNL     1       5.684  -5.622  23.783  0.00  0.00    -0.205 OA
BRANCH  20  21
ATOM     21  S   UNL     1       4.115  -6.005  23.917  0.00  0.00    +0.208 S 
ATOM     22  O   UNL     1       3.437  -5.631  22.700  0.00  0.00    -0.118 OA
ATOM     23  O   UNL     1       3.658  -5.570  25.214  0.00  0.00    -0.118 OA
BRANCH  21  24
ATOM     24  O   UNL     1       4.154  -7.609  24.013  0.00  0.00    -0.231 OA
ATOM     25  H   UNL     1       3.867  -7.848  24.920  0.00  0.00    +0.247 HD
ENDBRANCH  21  24
ENDBRANCH  20  21
ENDBRANCH   4  20
TORSDOF 10
ENDMDL
MODEL 3
REMARK VINA RESULT:      -5.8      2.520      5.257
REMARK  Name = 
REMARK  10 active torsions:
REMARK  status: ('A' for Active; 'I' for Inactive)
REMARK    1  A    between atoms: O_1  and  C_2
REMARK    2  A    between atoms: C_2  and  C_3
REMARK    3  A    between atoms: C_6  and  O_8
REMARK    4  A    between atoms: C_9  and  O_11
REMARK    5  A    between atoms: O_11  and  S_12
REMARK    6  A    between atoms: S_12  and  O_13
REMARK    7  A    between atoms: C_16  and  O_18
REMARK    8  A    between atoms: O_18  and  S_19
REMARK    9  A    between atoms: S_19  and  O_20
REMARK   10  A    between atoms: C_23  and  O_25
REMARK                            x       y       z     vdW  Elec       q    Type
REMARK                         _______ _______ _______ _____ _____    ______ ____
ROOT
ATOM      1  C   UNL     1       6.883  -5.467  26.029  0.00  0.00    +0.178 C 
ATOM      2  C   UNL     1       6.544  -3.976  25.910  0.00  0.00    +0.179 C 
ATOM      3  C   UNL     1       7.125  -3.459  24.580  0.00  0.00    +0.219 C 
ATOM      4  C   UNL     1       8.656  -3.626  24.628  0.00  0.00    +0.241 C 
ATOM      5  C   UNL     1       8.989  -5.106  24.958  0.00  0.00    +0.282 C 
ATOM      6  O   UNL     1       8.316  -5.583  26.123  0.00  0.00    -0.341 OA
ENDROOT
BRANCH   2   7
ATOM      7  O   UNL     1       5.160  -3.673  26.027  0.00  0.00    -0.386 OA
ATOM      8  H   UNL     1       4.942  -3.391  26.937  0.00  0.00    +0.210 HD
ENDBRANCH   2   7
BRANCH   5   9
ATOM      9  O   UNL     1      10.385  -5.221  25.196  0.00  0.00    -0.365 OA
ATOM     10  H   UNL     1      10.511  -6.119  25.546  0.00  0.00    +0.213 HD
ENDBRANCH   5   9
BRANCH   1  11
ATOM     11  C   UNL     1       6.208  -6.134  27.232  0.00  0.00    +0.190 C 
BRANCH  11  12
ATOM     12  O   UNL     1       7.186  -6.334  28.257  0.00  0.00    -0.392 OA
ATOM     13  H   UNL     1       8.056  -6.158  27.859  0.00  0.00    +0.210 HD
ENDBRANCH  11  12
ENDBRANCH   1  11
BRANCH   3  14
ATOM     14  O   UNL     1       6.700  -4.226  23.445  0.00  0.00    -0.207 OA
BRANCH  14  15
ATOM     15  S   UNL     1       5.516  -3.705  22.480  0.00  0.00    +0.208 S 
ATOM     16  O   UNL     1       4.240  -4.065  23.039  0.00  0.00    -0.118 OA
ATOM     17  O   UNL     1       5.896  -4.055  21.132  0.00  0.00    -0.118 OA
BRANCH  15  18
ATOM     18  O   UNL     1       5.683  -2.104  22.584  0.00  0.00    -0.231 OA
ATOM     19  H   UNL     1       4.804  -1.720  22.776  0.00  0.00    +0.247 HD
ENDBRANCH  15  18
ENDBRANCH  14  15
ENDBRANCH   3  14
BRANCH   4  20
ATOM     20  O   UNL     1       9.244  -3.301  23.361  0.00  0.00    -0.205 OA
BRANCH  20  21
ATOM     21  S   UNL     1       9.491  -1.743  22.991  0.00  0.00    +0.208 S 
ATOM     22  O   UNL     1       9.972  -1.055  24.164  0.00  0.00    -0.118 OA
ATOM     23  O   UNL     1       8.350  -1.276  22.242  0.00  0.00    -0.118 OA
BRANCH  21  24
ATOM     24  O   UNL     1      10.682  -1.823  21.915  0.00  0.00    -0.231 OA
ATOM     25  H   UNL     1      10.331  -2.302  21.135  0.00  0.00    +0.247 HD
ENDBRANCH  21  24
ENDBRANCH  20  21
ENDBRANCH   4  20
TORSDOF 10
ENDMDL
MODEL 4
REMARK VINA RESULT:      -5.8      2.920      5.397
REMARK  Name = 
REMARK  10 active torsions:
REMARK  status: ('A' for Active; 'I' for Inactive)
REMARK    1  A    between atoms: O_1  and  C_2
REMARK    2  A    between atoms: C_2  and  C_3
REMARK    3  A    between atoms: C_6  and  O_8
REMARK    4  A    between atoms: C_9  and  O_11
REMARK    5  A    between atoms: O_11  and  S_12
REMARK    6  A    between atoms: S_12  and  O_13
REMARK    7  A    between atoms: C_16  and  O_18
REMARK    8  A    between atoms: O_18  and  S_19
REMARK    9  A    between atoms: S_19  and  O_20
REMARK   10  A    between atoms: C_23  and  O_25
REMARK                            x       y       z     vdW  Elec       q    Type
REMARK                         _______ _______ _______ _____ _____    ______ ____
ROOT
ATOM      1  C   UNL     1       6.222  -5.910  26.187  0.00  0.00    +0.178 C 
ATOM      2  C   UNL     1       5.775  -4.588  25.551  0.00  0.00    +0.179 C 
ATOM      3  C   UNL     1       6.789  -4.220  24.452  0.00  0.00    +0.219 C 
ATOM      4  C   UNL     1       8.165  -4.020  25.116  0.00  0.00    +0.241 C 
ATOM      5  C   UNL     1       8.517  -5.292  25.935  0.00  0.00    +0.282 C 
ATOM      6  O   UNL     1       7.484  -5.675  26.841  0.00  0.00    -0.341 OA
ENDROOT
BRANCH   2   7
ATOM      7  O   UNL     1       4.444  -4.594  25.050  0.00  0.00    -0.386 OA
ATOM      8  H   UNL     1       3.833  -5.003  25.694  0.00  0.00    +0.210 HD
ENDBRANCH   2   7
BRANCH   5   9
ATOM      9  O   UNL     1       9.684  -5.036  26.703  0.00  0.00    -0.365 OA
ATOM     10  H   UNL     1      10.293  -5.763  26.493  0.00  0.00    +0.213 HD
ENDBRANCH   5   9
BRANCH   1  11
ATOM     11  C   UNL     1       5.195  -6.468  27.178  0.00  0.00    +0.190 C 
BRANCH  11  12
ATOM     12  O   UNL     1       4.273  -7.300  26.467  0.00  0.00    -0.392 OA
ATOM     13  H   UNL     1       3.398  -7.161  26.866  0.00  0.00    +0.210 HD
ENDBRANCH  11  12
ENDBRANCH   1  11
BRANCH   3  14
ATOM     14  O   UNL     1       6.986  -5.269  23.493  0.00  0.00    -0.207 OA
BRANCH  14  15
ATOM     15  S   UNL     1       6.076  -5.368  22.164  0.00  0.00    +0.208 S 
ATOM     16  O   UNL     1       6.846  -5.932  21.089  0.00  0.00    -0.118 OA
ATOM     17  O   UNL     1       5.386  -4.105  22.041  0.00  0.00    -0.118 OA
BRANCH  15  18
ATOM     18  O   UNL     1       4.956  -6.441  22.606  0.00  0.00    -0.231 OA
ATOM     19  H   UNL     1       5.060  -6.610  23.563  0.00  0.00    +0.247 HD
ENDBRANCH  15  18
ENDBRANCH  14  15
ENDBRANCH   3  14
BRANCH   4  20
ATOM     20  O   UNL     1       9.185  -3.821  24.128  0.00  0.00    -0.205 OA
BRANCH  20  21
ATOM     21  S   UNL     1       9.271  -2.390  23.372  0.00  0.00    +0.208 S 
ATOM     22  O   UNL     1      10.569  -2.264  22.756  0.00  0.00    -0.118 OA
ATOM     23  O   UNL     1       8.742  -1.384  24.260  0.00  0.00    -0.118 OA
BRANCH  21  24
ATOM     24  O   UNL     1       8.164  -2.539  22.216  0.00  0.00    -0.231 OA
ATOM     25  H   UNL     1       7.565  -1.766  22.293  0.00  0.00    +0.247 HD
ENDBRANCH  21  24
ENDBRANCH  20  21
ENDBRANCH   4  20
TORSDOF 10
ENDMDL
MODEL 5
REMARK VINA RESULT:      -5.6      2.299      5.181
REMARK  Name = 
REMARK  10 active torsions:
REMARK  status: ('A' for Active; 'I' for Inactive)
REMARK    1  A    between atoms: O_1  and  C_2
REMARK    2  A    between atoms: C_2  and  C_3
REMARK    3  A    between atoms: C_6  and  O_8
REMARK    4  A    between atoms: C_9  and  O_11
REMARK    5  A    between atoms: O_11  and  S_12
REMARK    6  A    between atoms: S_12  and  O_13
REMARK    7  A    between atoms: C_16  and  O_18
REMARK    8  A    between atoms: O_18  and  S_19
REMARK    9  A    between atoms: S_19  and  O_20
REMARK   10  A    between atoms: C_23  and  O_25
REMARK                            x       y       z     vdW  Elec       q    Type
REMARK                         _______ _______ _______ _____ _____    ______ ____
ROOT
ATOM      1  C   UNL     1       5.747  -4.295  23.242  0.00  0.00    +0.178 C 
ATOM      2  C   UNL     1       7.138  -4.742  22.775  0.00  0.00    +0.179 C 
ATOM      3  C   UNL     1       8.183  -3.830  23.448  0.00  0.00    +0.219 C 
ATOM      4  C   UNL     1       7.932  -2.385  22.977  0.00  0.00    +0.241 C 
ATOM      5  C   UNL     1       6.453  -2.011  23.265  0.00  0.00    +0.282 C 
ATOM      6  O   UNL     1       5.526  -2.962  22.742  0.00  0.00    -0.341 OA
ENDROOT
BRANCH   2   7
ATOM      7  O   UNL     1       7.424  -6.116  23.001  0.00  0.00    -0.386 OA
ATOM      8  H   UNL     1       7.618  -6.573  22.159  0.00  0.00    +0.210 HD
ENDBRANCH   2   7
BRANCH   5   9
ATOM      9  O   UNL     1       6.168  -0.760  22.657  0.00  0.00    -0.365 OA
ATOM     10  H   UNL     1       6.541  -0.819  21.762  0.00  0.00    +0.213 HD
ENDBRANCH   5   9
BRANCH   1  11
ATOM     11  C   UNL     1       4.634  -5.239  22.774  0.00  0.00    +0.190 C 
BRANCH  11  12
ATOM     12  O   UNL     1       5.092  -5.955  21.623  0.00  0.00    -0.392 OA
ATOM     13  H   UNL     1       4.303  -6.285  21.159  0.00  0.00    +0.210 HD
ENDBRANCH  11  12
ENDBRANCH   1  11
BRANCH   3  14
ATOM     14  O   UNL     1       8.054  -3.786  24.876  0.00  0.00    -0.207 OA
BRANCH  14  15
ATOM     15  S   UNL     1       8.617  -4.981  25.803  0.00  0.00    +0.208 S 
ATOM     16  O   UNL     1       7.585  -5.960  26.013  0.00  0.00    -0.118 OA
ATOM     17  O   UNL     1       9.326  -4.358  26.896  0.00  0.00    -0.118 OA
BRANCH  15  18
ATOM     18  O   UNL     1       9.750  -5.631  24.857  0.00  0.00    -0.231 OA
ATOM     19  H   UNL     1      10.614  -5.522  25.301  0.00  0.00    +0.247 HD
ENDBRANCH  15  18
ENDBRANCH  14  15
ENDBRANCH   3  14
BRANCH   4  20
ATOM     20  O   UNL     1       8.777  -1.465  23.682  0.00  0.00    -0.205 OA
BRANCH  20  21
ATOM     21  S   UNL     1       9.784  -0.521  22.833  0.00  0.00    +0.208 S 
ATOM     22  O   UNL     1      10.805  -0.013  23.715  0.00  0.00    -0.118 OA
ATOM     23  O   UNL     1       8.986   0.349  22.003  0.00  0.00    -0.118 OA
BRANCH  21  24
ATOM     24  O   UNL     1      10.457  -1.560  21.808  0.00  0.00    -0.231 OA
ATOM     25  H   UNL     1      11.378  -1.258  21.658  0.00  0.00    +0.247 HD
ENDBRANCH  21  24
ENDBRANCH  20  21
ENDBRANCH   4  20
TORSDOF 10
ENDMDL
MODEL 6
REMARK VINA RESULT:      -5.5      2.089      4.910
REMARK  Name = 
REMARK  10 active torsions:
REMARK  status: ('A' for Active; 'I' for Inactive)
REMARK    1  A    between atoms: O_1  and  C_2
REMARK    2  A    between atoms: C_2  and  C_3
REMARK    3  A    between atoms: C_6  and  O_8
REMARK    4  A    between atoms: C_9  and  O_11
REMARK    5  A    between atoms: O_11  and  S_12
REMARK    6  A    between atoms: S_12  and  O_13
REMARK    7  A    between atoms: C_16  and  O_18
REMARK    8  A    between atoms: O_18  and  S_19
REMARK    9  A    between atoms: S_19  and  O_20
REMARK   10  A    between atoms: C_23  and  O_25
REMARK                            x       y       z     vdW  Elec       q    Type
REMARK                         _______ _______ _______ _____ _____    ______ ____
ROOT
ATOM      1  C   UNL     1       8.772  -4.144  24.482  0.00  0.00    +0.178 C 
ATOM      2  C   UNL     1       7.422  -3.479  24.775  0.00  0.00    +0.179 C 
ATOM      3  C   UNL     1       7.067  -2.572  23.581  0.00  0.00    +0.219 C 
ATOM      4  C   UNL     1       8.151  -1.483  23.467  0.00  0.00    +0.241 C 
ATOM      5  C   UNL     1       9.543  -2.167  23.381  0.00  0.00    +0.282 C 
ATOM      6  O   UNL     1       9.769  -3.105  24.433  0.00  0.00    -0.341 OA
ENDROOT
BRANCH   2   7
ATOM      7  O   UNL     1       6.368  -4.387  25.070  0.00  0.00    -0.386 OA
ATOM      8  H   UNL     1       5.777  -4.495  24.299  0.00  0.00    +0.210 HD
ENDBRANCH   2   7
BRANCH   5   9
ATOM      9  O   UNL     1      10.551  -1.171  23.475  0.00  0.00    -0.365 OA
ATOM     10  H   UNL     1      11.314  -1.617  23.879  0.00  0.00    +0.213 HD
ENDBRANCH   5   9
BRANCH   1  11
ATOM     11  C   UNL     1       9.148  -5.204  25.523  0.00  0.00    +0.190 C 
BRANCH  11  12
ATOM     12  O   UNL     1      10.544  -5.493  25.402  0.00  0.00    -0.392 OA
ATOM     13  H   UNL     1      10.697  -5.785  24.487  0.00  0.00    +0.210 HD
ENDBRANCH  11  12
ENDBRANCH   1  11
BRANCH   3  14
ATOM     14  O   UNL     1       7.096  -3.262  22.323  0.00  0.00    -0.207 OA
BRANCH  14  15
ATOM     15  S   UNL     1       5.832  -4.129  21.817  0.00  0.00    +0.208 S 
ATOM     16  O   UNL     1       5.771  -4.105  20.380  0.00  0.00    -0.118 OA
ATOM     17  O   UNL     1       4.711  -3.750  22.646  0.00  0.00    -0.118 OA
BRANCH  15  18
ATOM     18  O   UNL     1       6.241  -5.617  22.284  0.00  0.00    -0.231 OA
ATOM     19  H   UNL     1       6.352  -6.166  21.482  0.00  0.00    +0.247 HD
ENDBRANCH  15  18
ENDBRANCH  14  15
ENDBRANCH   3  14
BRANCH   4  20
ATOM     20  O   UNL     1       7.960  -0.696  22.284  0.00  0.00    -0.205 OA
BRANCH  20  21
ATOM     21  S   UNL     1       8.033   0.919  22.401  0.00  0.00    +0.208 S 
ATOM     22  O   UNL     1       8.853   1.269  23.535  0.00  0.00    -0.118 OA
ATOM     23  O   UNL     1       6.699   1.440  22.230  0.00  0.00    -0.118 OA
BRANCH  21  24
ATOM     24  O   UNL     1       8.810   1.332  21.056  0.00  0.00    -0.231 OA
ATOM     25  H   UNL     1       9.297   0.537  20.752  0.00  0.00    +0.247 HD
ENDBRANCH  21  24
ENDBRANCH  20  21
ENDBRANCH   4  20
TORSDOF 10
ENDMDL
MODEL 7
REMARK VINA RESULT:      -5.5      2.311      3.630
REMARK  Name = 
REMARK  10 active torsions:
REMARK  status: ('A' for Active; 'I' for Inactive)
REMARK    1  A    between atoms: O_1  and  C_2
REMARK    2  A    between atoms: C_2  and  C_3
REMARK    3  A    between atoms: C_6  and  O_8
REMARK    4  A    between atoms: C_9  and  O_11
REMARK    5  A    between atoms: O_11  and  S_12
REMARK    6  A    between atoms: S_12  and  O_13
REMARK    7  A    between atoms: C_16  and  O_18
REMARK    8  A    between atoms: O_18  and  S_19
REMARK    9  A    between atoms: S_19  and  O_20
REMARK   10  A    between atoms: C_23  and  O_25
REMARK                            x       y       z     vdW  Elec       q    Type
REMARK                         _______ _______ _______ _____ _____    ______ ____
ROOT
ATOM      1  C   UNL     1       9.561  -2.305  23.768  0.00  0.00    +0.178 C 
ATOM      2  C   UNL     1       8.151  -2.511  23.202  0.00  0.00    +0.179 C 
ATOM      3  C   UNL     1       7.274  -3.118  24.314  0.00  0.00    +0.219 C 
ATOM      4  C   UNL     1       7.868  -4.487  24.700  0.00  0.00    +0.241 C 
ATOM      5  C   UNL     1       9.363  -4.298  25.073  0.00  0.00    +0.282 C 
ATOM      6  O   UNL     1      10.105  -3.605  24.070  0.00  0.00    -0.341 OA
ENDROOT
BRANCH   2   7
ATOM      7  O   UNL     1       7.559  -1.341  22.652  0.00  0.00    -0.386 OA
ATOM      8  H   UNL     1       7.158  -1.532  21.781  0.00  0.00    +0.210 HD
ENDBRANCH   2   7
BRANCH   5   9
ATOM      9  O   UNL     1       9.961  -5.576  25.236  0.00  0.00    -0.365 OA
ATOM     10  H   UNL     1       9.730  -6.071  24.433  0.00  0.00    +0.213 HD
ENDBRANCH   5   9
BRANCH   1  11
ATOM     11  C   UNL     1      10.481  -1.545  22.806  0.00  0.00    +0.190 C 
BRANCH  11  12
ATOM     12  O   UNL     1       9.994  -1.717  21.472  0.00  0.00    -0.392 OA
ATOM     13  H   UNL     1       9.425  -0.954  21.275  0.00  0.00    +0.210 HD
ENDBRANCH  11  12
ENDBRANCH   1  11
BRANCH   3  14
ATOM     14  O   UNL     1       7.289  -2.349  25.525  0.00  0.00    -0.207 OA
BRANCH  14  15
ATOM     15  S   UNL     1       6.159  -1.236  25.822  0.00  0.00    +0.208 S 
ATOM     16  O   UNL     1       6.519   0.003  25.187  0.00  0.00    -0.118 OA
ATOM     17  O   UNL     1       5.853  -1.323  27.231  0.00  0.00    -0.118 OA
BRANCH  15  18
ATOM     18  O   UNL     1       4.879  -1.848  25.055  0.00  0.00    -0.231 OA
ATOM     19  H   UNL     1       4.530  -2.587  25.592  0.00  0.00    +0.247 HD
ENDBRANCH  15  18
ENDBRANCH  14  15
ENDBRANCH   3  14
BRANCH   4  20
ATOM     20  O   UNL     1       7.184  -5.038  25.833  0.00  0.00    -0.205 OA
BRANCH  20  21
ATOM     21  S   UNL     1       5.666  -5.573  25.645  0.00  0.00    +0.208 S 
ATOM     22  O   UNL     1       5.520  -6.103  24.312  0.00  0.00    -0.118 OA
ATOM     23  O   UNL     1       4.772  -4.574  26.176  0.00  0.00    -0.118 OA
BRANCH  21  24
ATOM     24  O   UNL     1       5.592  -6.789  26.695  0.00  0.00    -0.231 OA
ATOM     25  H   UNL     1       4.697  -7.180  26.615  0.00  0.00    +0.247 HD
ENDBRANCH  21  24
ENDBRANCH  20  21
ENDBRANCH   4  20
TORSDOF 10
ENDMDL
MODEL 8
REMARK VINA RESULT:      -5.4      2.471      5.206
REMARK  Name = 
REMARK  10 active torsions:
REMARK  status: ('A' for Active; 'I' for Inactive)
REMARK    1  A    between atoms: O_1  and  C_2
REMARK    2  A    between atoms: C_2  and  C_3
REMARK    3  A    between atoms: C_6  and  O_8
REMARK    4  A    between atoms: C_9  and  O_11
REMARK    5  A    between atoms: O_11  and  S_12
REMARK    6  A    between atoms: S_12  and  O_13
REMARK    7  A    between atoms: C_16  and  O_18
REMARK    8  A    between atoms: O_18  and  S_19
REMARK    9  A    between atoms: S_19  and  O_20
REMARK   10  A    between atoms: C_23  and  O_25
REMARK                            x       y       z     vdW  Elec       q    Type
REMARK                         _______ _______ _______ _____ _____    ______ ____
ROOT
ATOM      1  C   UNL     1       8.816  -3.979  24.639  0.00  0.00    +0.178 C 
ATOM      2  C   UNL     1       8.710  -3.068  25.868  0.00  0.00    +0.179 C 
ATOM      3  C   UNL     1       8.245  -1.678  25.394  0.00  0.00    +0.219 C 
ATOM      4  C   UNL     1       9.315  -1.114  24.439  0.00  0.00    +0.241 C 
ATOM      5  C   UNL     1       9.568  -2.144  23.305  0.00  0.00    +0.282 C 
ATOM      6  O   UNL     1       9.858  -3.453  23.795  0.00  0.00    -0.341 OA
ENDROOT
BRANCH   2   7
ATOM      7  O   UNL     1       7.877  -3.570  26.906  0.00  0.00    -0.386 OA
ATOM      8  H   UNL     1       8.399  -3.754  27.711  0.00  0.00    +0.210 HD
ENDBRANCH   2   7
BRANCH   5   9
ATOM      9  O   UNL     1      10.687  -1.719  22.539  0.00  0.00    -0.365 OA
ATOM     10  H   UNL     1      10.942  -0.860  22.915  0.00  0.00    +0.213 HD
ENDBRANCH   5   9
BRANCH   1  11
ATOM     11  C   UNL     1       9.105  -5.438  25.007  0.00  0.00    +0.190 C 
BRANCH  11  12
ATOM     12  O   UNL     1      10.214  -5.474  25.911  0.00  0.00    -0.392 OA
ATOM     13  H   UNL     1      10.030  -4.828  26.614  0.00  0.00    +0.210 HD
ENDBRANCH  11  12
ENDBRANCH   1  11
BRANCH   3  14
ATOM     14  O   UNL     1       7.038  -1.723  24.619  0.00  0.00    -0.207 OA
BRANCH  14  15
ATOM     15  S   UNL     1       5.607  -1.381  25.281  0.00  0.00    +0.208 S 
ATOM     16  O   UNL     1       5.752  -1.244  26.706  0.00  0.00    -0.118 OA
ATOM     17  O   UNL     1       4.649  -2.283  24.685  0.00  0.00    -0.118 OA
BRANCH  15  18
ATOM     18  O   UNL     1       5.290   0.072  24.659  0.00  0.00    -0.231 OA
ATOM     19  H   UNL     1       6.045   0.329  24.092  0.00  0.00    +0.247 HD
ENDBRANCH  15  18
ENDBRANCH  14  15
ENDBRANCH   3  14
BRANCH   4  20
ATOM     20  O   UNL     1       8.871   0.114  23.845  0.00  0.00    -0.205 OA
BRANCH  20  21
ATOM     21  S   UNL     1       9.930   1.330  23.685  0.00  0.00    +0.208 S 
ATOM     22  O   UNL     1       9.451   2.468  24.431  0.00  0.00    -0.118 OA
ATOM     23  O   UNL     1      10.294   1.425  22.292  0.00  0.00    -0.118 OA
BRANCH  21  24
ATOM     24  O   UNL     1      11.241   0.751  24.413  0.00  0.00    -0.231 OA
ATOM     25  H   UNL     1      10.944   0.022  24.997  0.00  0.00    +0.247 HD
ENDBRANCH  21  24
ENDBRANCH  20  21
ENDBRANCH   4  20
TORSDOF 10
ENDMDL
MODEL 9
REMARK VINA RESULT:      -5.3      4.095      6.370
REMARK  Name = 
REMARK  10 active torsions:
REMARK  status: ('A' for Active; 'I' for Inactive)
REMARK    1  A    between atoms: O_1  and  C_2
REMARK    2  A    between atoms: C_2  and  C_3
REMARK    3  A    between atoms: C_6  and  O_8
REMARK    4  A    between atoms: C_9  and  O_11
REMARK    5  A    between atoms: O_11  and  S_12
REMARK    6  A    between atoms: S_12  and  O_13
REMARK    7  A    between atoms: C_16  and  O_18
REMARK    8  A    between atoms: O_18  and  S_19
REMARK    9  A    between atoms: S_19  and  O_20
REMARK   10  A    between atoms: C_23  and  O_25
REMARK                            x       y       z     vdW  Elec       q    Type
REMARK                         _______ _______ _______ _____ _____    ______ ____
ROOT
ATOM      1  C   UNL     1       3.288  -5.588  23.834  0.00  0.00    +0.178 C 
ATOM      2  C   UNL     1       4.319  -6.682  24.135  0.00  0.00    +0.179 C 
ATOM      3  C   UNL     1       5.467  -6.047  24.942  0.00  0.00    +0.219 C 
ATOM      4  C   UNL     1       6.125  -4.961  24.068  0.00  0.00    +0.241 C 
ATOM      5  C   UNL     1       5.030  -3.969  23.592  0.00  0.00    +0.282 C 
ATOM      6  O   UNL     1       3.919  -4.618  22.975  0.00  0.00    -0.341 OA
ENDROOT
BRANCH   2   7
ATOM      7  O   UNL     1       3.791  -7.826  24.794  0.00  0.00    -0.386 OA
ATOM      8  H   UNL     1       4.252  -7.982  25.641  0.00  0.00    +0.210 HD
ENDBRANCH   2   7
BRANCH   5   9
ATOM      9  O   UNL     1       5.595  -3.087  22.632  0.00  0.00    -0.365 OA
ATOM     10  H   UNL     1       6.554  -3.237  22.680  0.00  0.00    +0.213 HD
ENDBRANCH   5   9
BRANCH   1  11
ATOM     11  C   UNL     1       2.014  -6.137  23.183  0.00  0.00    +0.190 C 
BRANCH  11  12
ATOM     12  O   UNL     1       2.352  -7.300  22.420  0.00  0.00    -0.392 OA
ATOM     13  H   UNL     1       1.595  -7.907  22.476  0.00  0.00    +0.210 HD
ENDBRANCH  11  12
ENDBRANCH   1  11
BRANCH   3  14
ATOM     14  O   UNL     1       5.015  -5.358  26.117  0.00  0.00    -0.207 OA
BRANCH  14  15
ATOM     15  S   UNL     1       5.402  -5.882  27.593  0.00  0.00    +0.208 S 
ATOM     16  O   UNL     1       4.627  -5.176  28.578  0.00  0.00    -0.118 OA
ATOM     17  O   UNL     1       6.844  -5.946  27.645  0.00  0.00    -0.118 OA
BRANCH  15  18
ATOM     18  O   UNL     1       4.895  -7.412  27.547  0.00  0.00    -0.231 OA
ATOM     19  H   UNL     1       4.158  -7.467  26.906  0.00  0.00    +0.247 HD
ENDBRANCH  15  18
ENDBRANCH  14  15
ENDBRANCH   3  14
BRANCH   4  20
ATOM     20  O   UNL     1       7.106  -4.229  24.816  0.00  0.00    -0.205 OA
BRANCH  20  21
ATOM     21  S   UNL     1       8.666  -4.640  24.669  0.00  0.00    +0.208 S 
ATOM     22  O   UNL     1       9.462  -3.438  24.605  0.00  0.00    -0.118 OA
ATOM     23  O   UNL     1       8.762  -5.677  23.670  0.00  0.00    -0.118 OA
BRANCH  21  24
ATOM     24  O   UNL     1       8.965  -5.383  26.062  0.00  0.00    -0.231 OA
ATOM     25  H   UNL     1       9.208  -6.308  25.846  0.00  0.00    +0.247 HD
ENDBRANCH  21  24
ENDBRANCH  20  21
ENDBRANCH   4  20
TORSDOF 10
ENDMDL
