MODEL 1
REMARK VINA RESULT:      -5.5      0.000      0.000
REMARK  Name = 
REMARK  15 active torsions:
REMARK  status: ('A' for Active; 'I' for Inactive)
REMARK    1  A    between atoms: C_1  and  C_2
REMARK    2  A    between atoms: C_2  and  C_3
REMARK    3  A    between atoms: C_3  and  C_4
REMARK    4  A    between atoms: C_4  and  O_5
REMARK    5  A    between atoms: O_5  and  C_6
REMARK    6  A    between atoms: C_7  and  N_8
REMARK    7  A    between atoms: C_11  and  C_13
REMARK    8  A    between atoms: C_13  and  O_15
REMARK    9  A    between atoms: O_15  and  C_16
REMARK   10  A    between atoms: C_16  and  C_17
REMARK   11  A    between atoms: C_17  and  N_18
REMARK   12  A    between atoms: N_18  and  C_19
REMARK   13  A    between atoms: N_18  and  C_21
REMARK   14  A    between atoms: C_19  and  C_20
REMARK   15  A    between atoms: C_21  and  C_22
REMARK                            x       y       z     vdW  Elec       q    Type
REMARK                         _______ _______ _______ _____ _____    ______ ____
ROOT
ATOM      1  C   UNL     1       9.679   1.187  23.795  0.00  0.00    +0.142 A 
ATOM      2  C   UNL     1       9.533   0.056  24.606  0.00  0.00    +0.062 A 
ATOM      3  C   UNL     1       9.507  -1.231  24.062  0.00  0.00    +0.063 A 
ATOM      4  C   UNL     1       9.669  -1.397  22.686  0.00  0.00    +0.017 A 
ATOM      5  C   UNL     1       9.839  -0.275  21.868  0.00  0.00    +0.027 A 
ATOM      6  C   UNL     1       9.799   1.022  22.402  0.00  0.00    +0.067 A 
ENDROOT
BRANCH   6   7
ATOM      7  N   UNL     1      10.087   2.114  21.565  0.00  0.00    -0.355 N 
ATOM      8  H   UNL     1      10.563   2.879  22.031  0.00  0.00    +0.142 HD
ATOM      9  H   UNL     1      10.550   1.815  20.709  0.00  0.00    +0.142 HD
ENDBRANCH   6   7
BRANCH   3  10
ATOM     10  C   UNL     1       9.180  -2.408  24.906  0.00  0.00    +0.339 C 
ATOM     11  O   UNL     1       8.789  -2.329  26.060  0.00  0.00    -0.245 OA
BRANCH  10  12
ATOM     12  O   UNL     1       9.568  -3.542  24.268  0.00  0.00    -0.460 OA
BRANCH  12  13
ATOM     13  C   UNL     1       8.937  -4.747  24.734  0.00  0.00    +0.248 C 
BRANCH  13  14
ATOM     14  C   UNL     1       7.558  -4.831  24.048  0.00  0.00    +0.125 C 
BRANCH  14  15
ATOM     15  N   UNL     1       7.524  -4.668  22.584  0.00  0.00    -0.300 NA
BRANCH  15  16
ATOM     16  C   UNL     1       6.669  -3.515  22.244  0.00  0.00    +0.081 C 
ATOM     17  C   UNL     1       5.828  -2.990  23.401  0.00  0.00    +0.020 C 
ENDBRANCH  15  16
BRANCH  15  18
ATOM     18  C   UNL     1       7.187  -5.904  21.866  0.00  0.00    +0.081 C 
ATOM     19  C   UNL     1       6.122  -5.786  20.779  0.00  0.00    +0.020 C 
ENDBRANCH  15  18
ENDBRANCH  14  15
ENDBRANCH  13  14
ENDBRANCH  12  13
ENDBRANCH  10  12
ENDBRANCH   3  10
BRANCH   1  20
ATOM     20  O   UNL     1       9.663   2.483  24.283  0.00  0.00    -0.490 OA
BRANCH  20  21
ATOM     21  C   UNL     1       8.452   2.842  24.958  0.00  0.00    +0.229 C 
BRANCH  21  22
ATOM     22  C   UNL     1       8.149   4.329  24.838  0.00  0.00    +0.041 C 
BRANCH  22  24
ATOM     23  C   UNL     1       7.312   4.451  22.454  0.00  0.00    +0.004 C 
ATOM     24  C   UNL     1       8.444   4.784  23.405  0.00  0.00    -0.000 C 
ENDBRANCH  22  24
ENDBRANCH  21  22
ENDBRANCH  20  21
ENDBRANCH   1  20
TORSDOF 12
ENDMDL
MODEL 2
REMARK VINA RESULT:      -5.5      0.872      1.724
REMARK  Name = 
REMARK  15 active torsions:
REMARK  status: ('A' for Active; 'I' for Inactive)
REMARK    1  A    between atoms: C_1  and  C_2
REMARK    2  A    between atoms: C_2  and  C_3
REMARK    3  A    between atoms: C_3  and  C_4
REMARK    4  A    between atoms: C_4  and  O_5
REMARK    5  A    between atoms: O_5  and  C_6
REMARK    6  A    between atoms: C_7  and  N_8
REMARK    7  A    between atoms: C_11  and  C_13
REMARK    8  A    between atoms: C_13  and  O_15
REMARK    9  A    between atoms: O_15  and  C_16
REMARK   10  A    between atoms: C_16  and  C_17
REMARK   11  A    between atoms: C_17  and  N_18
REMARK   12  A    between atoms: N_18  and  C_19
REMARK   13  A    between atoms: N_18  and  C_21
REMARK   14  A    between atoms: C_19  and  C_20
REMARK   15  A    between atoms: C_21  and  C_22
REMARK                            x       y       z     vdW  Elec       q    Type
REMARK                         _______ _______ _______ _____ _____    ______ ____
ROOT
ATOM      1  C   UNL     1       9.812   0.934  23.723  0.00  0.00    +0.142 A 
ATOM      2  C   UNL     1       9.776  -0.279  24.420  0.00  0.00    +0.062 A 
ATOM      3  C   UNL     1       9.729  -1.504  23.748  0.00  0.00    +0.063 A 
ATOM      4  C   UNL     1       9.757  -1.522  22.353  0.00  0.00    +0.017 A 
ATOM      5  C   UNL     1       9.816  -0.316  21.645  0.00  0.00    +0.027 A 
ATOM      6  C   UNL     1       9.796   0.917  22.315  0.00  0.00    +0.067 A 
ENDROOT
BRANCH   6   7
ATOM      7  N   UNL     1       9.971   2.099  21.575  0.00  0.00    -0.355 N 
ATOM      8  H   UNL     1       9.183   2.736  21.620  0.00  0.00    +0.142 HD
ATOM      9  H   UNL     1      10.861   2.544  21.790  0.00  0.00    +0.142 HD
ENDBRANCH   6   7
BRANCH   3  10
ATOM     10  C   UNL     1       9.518  -2.772  24.490  0.00  0.00    +0.339 C 
ATOM     11  O   UNL     1      10.108  -3.811  24.242  0.00  0.00    -0.245 OA
BRANCH  10  12
ATOM     12  O   UNL     1       8.455  -2.634  25.324  0.00  0.00    -0.460 OA
BRANCH  12  13
ATOM     13  C   UNL     1       7.731  -3.847  25.591  0.00  0.00    +0.248 C 
BRANCH  13  14
ATOM     14  C   UNL     1       6.301  -3.650  25.047  0.00  0.00    +0.125 C 
BRANCH  14  15
ATOM     15  N   UNL     1       5.936  -4.396  23.830  0.00  0.00    -0.300 NA
BRANCH  15  16
ATOM     16  C   UNL     1       7.013  -5.349  23.503  0.00  0.00    +0.081 C 
ATOM     17  C   UNL     1       7.171  -5.636  22.015  0.00  0.00    +0.020 C 
ENDBRANCH  15  16
BRANCH  15  18
ATOM     18  C   UNL     1       5.534  -3.531  22.713  0.00  0.00    +0.081 C 
ATOM     19  C   UNL     1       6.141  -2.131  22.689  0.00  0.00    +0.020 C 
ENDBRANCH  15  18
ENDBRANCH  14  15
ENDBRANCH  13  14
ENDBRANCH  12  13
ENDBRANCH  10  12
ENDBRANCH   3  10
BRANCH   1  20
ATOM     20  O   UNL     1       9.811   2.171  24.345  0.00  0.00    -0.490 OA
BRANCH  20  21
ATOM     21  C   UNL     1       8.564   2.522  24.954  0.00  0.00    +0.229 C 
BRANCH  21  22
ATOM     22  C   UNL     1       8.388   4.030  25.067  0.00  0.00    +0.041 C 
BRANCH  22  24
ATOM     23  C   UNL     1       7.566   4.587  22.741  0.00  0.00    +0.004 C 
ATOM     24  C   UNL     1       8.721   4.675  23.718  0.00  0.00    -0.000 C 
ENDBRANCH  22  24
ENDBRANCH  21  22
ENDBRANCH  20  21
ENDBRANCH   1  20
TORSDOF 12
ENDMDL
MODEL 3
REMARK VINA RESULT:      -5.5      0.904      1.760
REMARK  Name = 
REMARK  15 active torsions:
REMARK  status: ('A' for Active; 'I' for Inactive)
REMARK    1  A    between atoms: C_1  and  C_2
REMARK    2  A    between atoms: C_2  and  C_3
REMARK    3  A    between atoms: C_3  and  C_4
REMARK    4  A    between atoms: C_4  and  O_5
REMARK    5  A    between atoms: O_5  and  C_6
REMARK    6  A    between atoms: C_7  and  N_8
REMARK    7  A    between atoms: C_11  and  C_13
REMARK    8  A    between atoms: C_13  and  O_15
REMARK    9  A    between atoms: O_15  and  C_16
REMARK   10  A    between atoms: C_16  and  C_17
REMARK   11  A    between atoms: C_17  and  N_18
REMARK   12  A    between atoms: N_18  and  C_19
REMARK   13  A    between atoms: N_18  and  C_21
REMARK   14  A    between atoms: C_19  and  C_20
REMARK   15  A    between atoms: C_21  and  C_22
REMARK                            x       y       z     vdW  Elec       q    Type
REMARK                         _______ _______ _______ _____ _____    ______ ____
ROOT
ATOM      1  C   UNL     1       9.823   1.034  23.779  0.00  0.00    +0.142 A 
ATOM      2  C   UNL     1       9.638  -0.118  24.552  0.00  0.00    +0.062 A 
ATOM      3  C   UNL     1       9.461  -1.372  23.960  0.00  0.00    +0.063 A 
ATOM      4  C   UNL     1       9.509  -1.486  22.571  0.00  0.00    +0.017 A 
ATOM      5  C   UNL     1       9.717  -0.345  21.788  0.00  0.00    +0.027 A 
ATOM      6  C   UNL     1       9.828   0.924  22.375  0.00  0.00    +0.067 A 
ENDROOT
BRANCH   6   7
ATOM      7  N   UNL     1      10.148   2.027  21.564  0.00  0.00    -0.355 N 
ATOM      8  H   UNL     1      10.966   1.888  20.981  0.00  0.00    +0.142 HD
ATOM      9  H   UNL     1       9.335   2.355  21.046  0.00  0.00    +0.142 HD
ENDBRANCH   6   7
BRANCH   3  10
ATOM     10  C   UNL     1       9.095  -2.555  24.779  0.00  0.00    +0.339 C 
ATOM     11  O   UNL     1       8.693  -2.488  25.929  0.00  0.00    -0.245 OA
BRANCH  10  12
ATOM     12  O   UNL     1       9.462  -3.687  24.124  0.00  0.00    -0.460 OA
BRANCH  12  13
ATOM     13  C   UNL     1       8.709  -4.861  24.472  0.00  0.00    +0.248 C 
BRANCH  13  14
ATOM     14  C   UNL     1       7.711  -5.115  23.324  0.00  0.00    +0.125 C 
BRANCH  14  15
ATOM     15  N   UNL     1       6.287  -5.231  23.685  0.00  0.00    -0.300 NA
BRANCH  15  16
ATOM     16  C   UNL     1       5.506  -5.562  22.478  0.00  0.00    +0.081 C 
ATOM     17  C   UNL     1       6.345  -5.786  21.225  0.00  0.00    +0.020 C 
ENDBRANCH  15  16
BRANCH  15  18
ATOM     18  C   UNL     1       5.778  -4.075  24.435  0.00  0.00    +0.081 C 
ATOM     19  C   UNL     1       5.570  -2.790  23.640  0.00  0.00    +0.020 C 
ENDBRANCH  15  18
ENDBRANCH  14  15
ENDBRANCH  13  14
ENDBRANCH  12  13
ENDBRANCH  10  12
ENDBRANCH   3  10
BRANCH   1  20
ATOM     20  O   UNL     1       9.955   2.302  24.320  0.00  0.00    -0.490 OA
BRANCH  20  21
ATOM     21  C   UNL     1       8.723   2.885  24.759  0.00  0.00    +0.229 C 
BRANCH  21  22
ATOM     22  C   UNL     1       8.422   4.194  24.043  0.00  0.00    +0.041 C 
BRANCH  22  24
ATOM     23  C   UNL     1      10.267   5.906  23.789  0.00  0.00    +0.004 C 
ATOM     24  C   UNL     1       9.215   5.322  24.711  0.00  0.00    -0.000 C 
ENDBRANCH  22  24
ENDBRANCH  21  22
ENDBRANCH  20  21
ENDBRANCH   1  20
TORSDOF 12
ENDMDL
MODEL 4
REMARK VINA RESULT:      -5.4      2.237      3.364
REMARK  Name = 
REMARK  15 active torsions:
REMARK  status: ('A' for Active; 'I' for Inactive)
REMARK    1  A    between atoms: C_1  and  C_2
REMARK    2  A    between atoms: C_2  and  C_3
REMARK    3  A    between atoms: C_3  and  C_4
REMARK    4  A    between atoms: C_4  and  O_5
REMARK    5  A    between atoms: O_5  and  C_6
REMARK    6  A    between atoms: C_7  and  N_8
REMARK    7  A    between atoms: C_11  and  C_13
REMARK    8  A    between atoms: C_13  and  O_15
REMARK    9  A    between atoms: O_15  and  C_16
REMARK   10  A    between atoms: C_16  and  C_17
REMARK   11  A    between atoms: C_17  and  N_18
REMARK   12  A    between atoms: N_18  and  C_19
REMARK   13  A    between atoms: N_18  and  C_21
REMARK   14  A    between atoms: C_19  and  C_20
REMARK   15  A    between atoms: C_21  and  C_22
REMARK                            x       y       z     vdW  Elec       q    Type
REMARK                         _______ _______ _______ _____ _____    ______ ____
ROOT
ATOM      1  C   UNL     1       9.770  -1.273  24.179  0.00  0.00    +0.142 A 
ATOM      2  C   UNL     1       9.463  -2.637  24.116  0.00  0.00    +0.062 A 
ATOM      3  C   UNL     1       8.820  -3.288  25.172  0.00  0.00    +0.063 A 
ATOM      4  C   UNL     1       8.439  -2.558  26.298  0.00  0.00    +0.017 A 
ATOM      5  C   UNL     1       8.720  -1.188  26.363  0.00  0.00    +0.027 A 
ATOM      6  C   UNL     1       9.424  -0.545  25.334  0.00  0.00    +0.067 A 
ENDROOT
BRANCH   6   7
ATOM      7  N   UNL     1       9.586   0.851  25.385  0.00  0.00    -0.355 N 
ATOM      8  H   UNL     1       8.876   1.369  24.879  0.00  0.00    +0.142 HD
ATOM      9  H   UNL     1       9.715   1.175  26.342  0.00  0.00    +0.142 HD
ENDBRANCH   6   7
BRANCH   3  10
ATOM     10  C   UNL     1       8.655  -4.764  25.169  0.00  0.00    +0.339 C 
ATOM     11  O   UNL     1       9.337  -5.523  24.499  0.00  0.00    -0.245 OA
BRANCH  10  12
ATOM     12  O   UNL     1       7.529  -5.092  25.854  0.00  0.00    -0.460 OA
BRANCH  12  13
ATOM     13  C   UNL     1       6.305  -4.603  25.280  0.00  0.00    +0.248 C 
BRANCH  13  14
ATOM     14  C   UNL     1       5.965  -5.521  24.089  0.00  0.00    +0.125 C 
BRANCH  14  15
ATOM     15  N   UNL     1       5.277  -4.906  22.940  0.00  0.00    -0.300 NA
BRANCH  15  16
ATOM     16  C   UNL     1       5.904  -5.377  21.690  0.00  0.00    +0.081 C 
ATOM     17  C   UNL     1       7.201  -6.151  21.887  0.00  0.00    +0.020 C 
ENDBRANCH  15  16
BRANCH  15  18
ATOM     18  C   UNL     1       5.158  -3.445  23.043  0.00  0.00    +0.081 C 
ATOM     19  C   UNL     1       6.177  -2.626  22.256  0.00  0.00    +0.020 C 
ENDBRANCH  15  18
ENDBRANCH  14  15
ENDBRANCH  13  14
ENDBRANCH  12  13
ENDBRANCH  10  12
ENDBRANCH   3  10
BRANCH   1  20
ATOM     20  O   UNL     1      10.447  -0.597  23.179  0.00  0.00    -0.490 OA
BRANCH  20  21
ATOM     21  C   UNL     1       9.648  -0.289  22.031  0.00  0.00    +0.229 C 
BRANCH  21  22
ATOM     22  C   UNL     1       9.631   1.202  21.728  0.00  0.00    +0.041 C 
BRANCH  22  24
ATOM     23  C   UNL     1       7.259   0.991  22.583  0.00  0.00    +0.004 C 
ATOM     24  C   UNL     1       8.177   1.665  21.583  0.00  0.00    -0.000 C 
ENDBRANCH  22  24
ENDBRANCH  21  22
ENDBRANCH  20  21
ENDBRANCH   1  20
TORSDOF 12
ENDMDL
MODEL 5
REMARK VINA RESULT:      -5.3      2.030      3.241
REMARK  Name = 
REMARK  15 active torsions:
REMARK  status: ('A' for Active; 'I' for Inactive)
REMARK    1  A    between atoms: C_1  and  C_2
REMARK    2  A    between atoms: C_2  and  C_3
REMARK    3  A    between atoms: C_3  and  C_4
REMARK    4  A    between atoms: C_4  and  O_5
REMARK    5  A    between atoms: O_5  and  C_6
REMARK    6  A    between atoms: C_7  and  N_8
REMARK    7  A    between atoms: C_11  and  C_13
REMARK    8  A    between atoms: C_13  and  O_15
REMARK    9  A    between atoms: O_15  and  C_16
REMARK   10  A    between atoms: C_16  and  C_17
REMARK   11  A    between atoms: C_17  and  N_18
REMARK   12  A    between atoms: N_18  and  C_19
REMARK   13  A    between atoms: N_18  and  C_21
REMARK   14  A    between atoms: C_19  and  C_20
REMARK   15  A    between atoms: C_21  and  C_22
REMARK                            x       y       z     vdW  Elec       q    Type
REMARK                         _______ _______ _______ _____ _____    ______ ____
ROOT
ATOM      1  C   UNL     1       8.386   3.517  23.653  0.00  0.00    +0.142 A 
ATOM      2  C   UNL     1       9.232   2.507  24.123  0.00  0.00    +0.062 A 
ATOM      3  C   UNL     1       9.421   1.322  23.406  0.00  0.00    +0.063 A 
ATOM      4  C   UNL     1       8.784   1.157  22.176  0.00  0.00    +0.017 A 
ATOM      5  C   UNL     1       7.953   2.169  21.684  0.00  0.00    +0.027 A 
ATOM      6  C   UNL     1       7.708   3.331  22.432  0.00  0.00    +0.067 A 
ENDROOT
BRANCH   6   7
ATOM      7  N   UNL     1       6.960   4.371  21.854  0.00  0.00    -0.355 N 
ATOM      8  H   UNL     1       6.237   4.747  22.458  0.00  0.00    +0.142 HD
ATOM      9  H   UNL     1       7.565   5.089  21.458  0.00  0.00    +0.142 HD
ENDBRANCH   6   7
BRANCH   3  10
ATOM     10  C   UNL     1      10.181   0.190  23.992  0.00  0.00    +0.339 C 
ATOM     11  O   UNL     1      11.031   0.318  24.859  0.00  0.00    -0.245 OA
BRANCH  10  12
ATOM     12  O   UNL     1       9.924  -0.940  23.285  0.00  0.00    -0.460 OA
BRANCH  12  13
ATOM     13  C   UNL     1       9.887  -2.148  24.064  0.00  0.00    +0.248 C 
BRANCH  13  14
ATOM     14  C   UNL     1       8.637  -2.936  23.619  0.00  0.00    +0.125 C 
BRANCH  14  15
ATOM     15  N   UNL     1       8.662  -4.397  23.802  0.00  0.00    -0.300 NA
BRANCH  15  16
ATOM     16  C   UNL     1       7.330  -4.949  23.490  0.00  0.00    +0.081 C 
ATOM     17  C   UNL     1       7.283  -5.817  22.239  0.00  0.00    +0.020 C 
ENDBRANCH  15  16
BRANCH  15  18
ATOM     18  C   UNL     1       9.198  -4.814  25.104  0.00  0.00    +0.081 C 
ATOM     19  C   UNL     1       8.173  -5.154  26.181  0.00  0.00    +0.020 C 
ENDBRANCH  15  18
ENDBRANCH  14  15
ENDBRANCH  13  14
ENDBRANCH  12  13
ENDBRANCH  10  12
ENDBRANCH   3  10
BRANCH   1  20
ATOM     20  O   UNL     1       8.132   4.685  24.351  0.00  0.00    -0.490 OA
BRANCH  20  21
ATOM     21  C   UNL     1       9.306   5.361  24.813  0.00  0.00    +0.229 C 
BRANCH  21  22
ATOM     22  C   UNL     1      10.080   6.009  23.673  0.00  0.00    +0.041 C 
BRANCH  22  24
ATOM     23  C   UNL     1      12.205   4.721  23.196  0.00  0.00    +0.004 C 
ATOM     24  C   UNL     1      11.581   5.878  23.951  0.00  0.00    -0.000 C 
ENDBRANCH  22  24
ENDBRANCH  21  22
ENDBRANCH  20  21
ENDBRANCH   1  20
TORSDOF 12
ENDMDL
MODEL 6
REMARK VINA RESULT:      -5.2      1.952      2.727
REMARK  Name = 
REMARK  15 active torsions:
REMARK  status: ('A' for Active; 'I' for Inactive)
REMARK    1  A    between atoms: C_1  and  C_2
REMARK    2  A    between atoms: C_2  and  C_3
REMARK    3  A    between atoms: C_3  and  C_4
REMARK    4  A    between atoms: C_4  and  O_5
REMARK    5  A    between atoms: O_5  and  C_6
REMARK    6  A    between atoms: C_7  and  N_8
REMARK    7  A    between atoms: C_11  and  C_13
REMARK    8  A    between atoms: C_13  and  O_15
REMARK    9  A    between atoms: O_15  and  C_16
REMARK   10  A    between atoms: C_16  and  C_17
REMARK   11  A    between atoms: C_17  and  N_18
REMARK   12  A    between atoms: N_18  and  C_19
REMARK   13  A    between atoms: N_18  and  C_21
REMARK   14  A    between atoms: C_19  and  C_20
REMARK   15  A    between atoms: C_21  and  C_22
REMARK                            x       y       z     vdW  Elec       q    Type
REMARK                         _______ _______ _______ _____ _____    ______ ____
ROOT
ATOM      1  C   UNL     1       9.998   0.658  23.509  0.00  0.00    +0.142 A 
ATOM      2  C   UNL     1       9.873  -0.647  23.998  0.00  0.00    +0.062 A 
ATOM      3  C   UNL     1       9.505  -1.706  23.162  0.00  0.00    +0.063 A 
ATOM      4  C   UNL     1       9.296  -1.465  21.804  0.00  0.00    +0.017 A 
ATOM      5  C   UNL     1       9.440  -0.168  21.299  0.00  0.00    +0.027 A 
ATOM      6  C   UNL     1       9.744   0.908  22.147  0.00  0.00    +0.067 A 
ENDROOT
BRANCH   6   7
ATOM      7  N   UNL     1       9.992   2.172  21.584  0.00  0.00    -0.355 N 
ATOM      8  H   UNL     1       9.163   2.746  21.474  0.00  0.00    +0.142 HD
ATOM      9  H   UNL     1      10.751   2.651  22.066  0.00  0.00    +0.142 HD
ENDBRANCH   6   7
BRANCH   3  10
ATOM     10  C   UNL     1       9.208  -3.049  23.720  0.00  0.00    +0.339 C 
ATOM     11  O   UNL     1       9.981  -3.678  24.424  0.00  0.00    -0.245 OA
BRANCH  10  12
ATOM     12  O   UNL     1       8.060  -3.521  23.170  0.00  0.00    -0.460 OA
BRANCH  12  13
ATOM     13  C   UNL     1       7.498  -4.668  23.831  0.00  0.00    +0.248 C 
BRANCH  13  14
ATOM     14  C   UNL     1       6.212  -4.195  24.540  0.00  0.00    +0.125 C 
BRANCH  14  15
ATOM     15  N   UNL     1       6.107  -4.458  25.986  0.00  0.00    -0.300 NA
BRANCH  15  16
ATOM     16  C   UNL     1       7.128  -3.667  26.699  0.00  0.00    +0.081 C 
ATOM     17  C   UNL     1       6.946  -2.158  26.590  0.00  0.00    +0.020 C 
ENDBRANCH  15  16
BRANCH  15  18
ATOM     18  C   UNL     1       6.108  -5.888  26.323  0.00  0.00    +0.081 C 
ATOM     19  C   UNL     1       4.795  -6.460  26.851  0.00  0.00    +0.020 C 
ENDBRANCH  15  18
ENDBRANCH  14  15
ENDBRANCH  13  14
ENDBRANCH  12  13
ENDBRANCH  10  12
ENDBRANCH   3  10
BRANCH   1  20
ATOM     20  O   UNL     1      10.314   1.744  24.308  0.00  0.00    -0.490 OA
BRANCH  20  21
ATOM     21  C   UNL     1       9.218   2.631  24.554  0.00  0.00    +0.229 C 
BRANCH  21  22
ATOM     22  C   UNL     1       8.085   1.947  25.306  0.00  0.00    +0.041 C 
BRANCH  22  24
ATOM     23  C   UNL     1       6.320   0.644  24.046  0.00  0.00    +0.004 C 
ATOM     24  C   UNL     1       6.810   2.018  24.459  0.00  0.00    -0.000 C 
ENDBRANCH  22  24
ENDBRANCH  21  22
ENDBRANCH  20  21
ENDBRANCH   1  20
TORSDOF 12
ENDMDL
MODEL 7
REMARK VINA RESULT:      -5.2      1.828      7.120
REMARK  Name = 
REMARK  15 active torsions:
REMARK  status: ('A' for Active; 'I' for Inactive)
REMARK    1  A    between atoms: C_1  and  C_2
REMARK    2  A    between atoms: C_2  and  C_3
REMARK    3  A    between atoms: C_3  and  C_4
REMARK    4  A    between atoms: C_4  and  O_5
REMARK    5  A    between atoms: O_5  and  C_6
REMARK    6  A    between atoms: C_7  and  N_8
REMARK    7  A    between atoms: C_11  and  C_13
REMARK    8  A    between atoms: C_13  and  O_15
REMARK    9  A    between atoms: O_15  and  C_16
REMARK   10  A    between atoms: C_16  and  C_17
REMARK   11  A    between atoms: C_17  and  N_18
REMARK   12  A    between atoms: N_18  and  C_19
REMARK   13  A    between atoms: N_18  and  C_21
REMARK   14  A    between atoms: C_19  and  C_20
REMARK   15  A    between atoms: C_21  and  C_22
REMARK                            x       y       z     vdW  Elec       q    Type
REMARK                         _______ _______ _______ _____ _____    ______ ____
ROOT
ATOM      1  C   UNL     1       6.652  -4.067  24.753  0.00  0.00    +0.142 A 
ATOM      2  C   UNL     1       7.534  -3.169  24.143  0.00  0.00    +0.062 A 
ATOM      3  C   UNL     1       8.914  -3.244  24.358  0.00  0.00    +0.063 A 
ATOM      4  C   UNL     1       9.427  -4.259  25.165  0.00  0.00    +0.017 A 
ATOM      5  C   UNL     1       8.556  -5.177  25.762  0.00  0.00    +0.027 A 
ATOM      6  C   UNL     1       7.167  -5.065  25.603  0.00  0.00    +0.067 A 
ENDROOT
BRANCH   6   7
ATOM      7  N   UNL     1       6.336  -6.071  26.125  0.00  0.00    -0.355 N 
ATOM      8  H   UNL     1       5.430  -6.137  25.673  0.00  0.00    +0.142 HD
ATOM      9  H   UNL     1       6.822  -6.964  26.180  0.00  0.00    +0.142 HD
ENDBRANCH   6   7
BRANCH   3  10
ATOM     10  C   UNL     1       9.822  -2.187  23.847  0.00  0.00    +0.339 C 
ATOM     11  O   UNL     1      10.570  -2.335  22.894  0.00  0.00    -0.245 OA
BRANCH  10  12
ATOM     12  O   UNL     1       9.824  -1.139  24.711  0.00  0.00    -0.460 OA
BRANCH  12  13
ATOM     13  C   UNL     1      10.568   0.009  24.270  0.00  0.00    +0.248 C 
BRANCH  13  14
ATOM     14  C   UNL     1       9.662   1.241  24.473  0.00  0.00    +0.125 C 
BRANCH  14  15
ATOM     15  N   UNL     1       9.619   2.231  23.383  0.00  0.00    -0.300 NA
BRANCH  15  16
ATOM     16  C   UNL     1       9.460   3.580  23.959  0.00  0.00    +0.081 C 
ATOM     17  C   UNL     1       8.318   4.392  23.361  0.00  0.00    +0.020 C 
ENDBRANCH  15  16
BRANCH  15  18
ATOM     18  C   UNL     1       8.645   1.904  22.334  0.00  0.00    +0.081 C 
ATOM     19  C   UNL     1       9.049   0.808  21.353  0.00  0.00    +0.020 C 
ENDBRANCH  15  18
ENDBRANCH  14  15
ENDBRANCH  13  14
ENDBRANCH  12  13
ENDBRANCH  10  12
ENDBRANCH   3  10
BRANCH   1  20
ATOM     20  O   UNL     1       5.276  -4.002  24.608  0.00  0.00    -0.490 OA
BRANCH  20  21
ATOM     21  C   UNL     1       4.821  -4.127  23.257  0.00  0.00    +0.229 C 
BRANCH  21  22
ATOM     22  C   UNL     1       4.920  -5.559  22.749  0.00  0.00    +0.041 C 
BRANCH  22  24
ATOM     23  C   UNL     1       7.236  -6.150  21.921  0.00  0.00    +0.004 C 
ATOM     24  C   UNL     1       5.873  -5.599  21.551  0.00  0.00    -0.000 C 
ENDBRANCH  22  24
ENDBRANCH  21  22
ENDBRANCH  20  21
ENDBRANCH   1  20
TORSDOF 12
ENDMDL
MODEL 8
REMARK VINA RESULT:      -5.1      2.671      6.679
REMARK  Name = 
REMARK  15 active torsions:
REMARK  status: ('A' for Active; 'I' for Inactive)
REMARK    1  A    between atoms: C_1  and  C_2
REMARK    2  A    between atoms: C_2  and  C_3
REMARK    3  A    between atoms: C_3  and  C_4
REMARK    4  A    between atoms: C_4  and  O_5
REMARK    5  A    between atoms: O_5  and  C_6
REMARK    6  A    between atoms: C_7  and  N_8
REMARK    7  A    between atoms: C_11  and  C_13
REMARK    8  A    between atoms: C_13  and  O_15
REMARK    9  A    between atoms: O_15  and  C_16
REMARK   10  A    between atoms: C_16  and  C_17
REMARK   11  A    between atoms: C_17  and  N_18
REMARK   12  A    between atoms: N_18  and  C_19
REMARK   13  A    between atoms: N_18  and  C_21
REMARK   14  A    between atoms: C_19  and  C_20
REMARK   15  A    between atoms: C_21  and  C_22
REMARK                            x       y       z     vdW  Elec       q    Type
REMARK                         _______ _______ _______ _____ _____    ______ ____
ROOT
ATOM      1  C   UNL     1       6.859  -5.197  25.318  0.00  0.00    +0.142 A 
ATOM      2  C   UNL     1       7.194  -4.434  24.193  0.00  0.00    +0.062 A 
ATOM      3  C   UNL     1       8.376  -3.689  24.144  0.00  0.00    +0.063 A 
ATOM      4  C   UNL     1       9.260  -3.736  25.221  0.00  0.00    +0.017 A 
ATOM      5  C   UNL     1       8.948  -4.513  26.342  0.00  0.00    +0.027 A 
ATOM      6  C   UNL     1       7.732  -5.209  26.423  0.00  0.00    +0.067 A 
ENDROOT
BRANCH   6   7
ATOM      7  N   UNL     1       7.507  -6.067  27.513  0.00  0.00    -0.355 N 
ATOM      8  H   UNL     1       6.681  -6.647  27.421  0.00  0.00    +0.142 HD
ATOM      9  H   UNL     1       8.345  -6.596  27.749  0.00  0.00    +0.142 HD
ENDBRANCH   6   7
BRANCH   3  10
ATOM     10  C   UNL     1       8.638  -2.751  23.023  0.00  0.00    +0.339 C 
ATOM     11  O   UNL     1       7.773  -2.333  22.270  0.00  0.00    -0.245 OA
BRANCH  10  12
ATOM     12  O   UNL     1       9.978  -2.605  22.863  0.00  0.00    -0.460 OA
BRANCH  12  13
ATOM     13  C   UNL     1      10.391  -1.327  22.349  0.00  0.00    +0.248 C 
BRANCH  13  14
ATOM     14  C   UNL     1      10.497  -0.368  23.552  0.00  0.00    +0.125 C 
BRANCH  14  15
ATOM     15  N   UNL     1       9.818   0.935  23.435  0.00  0.00    -0.300 NA
BRANCH  15  16
ATOM     16  C   UNL     1       8.538   0.882  24.166  0.00  0.00    +0.081 C 
ATOM     17  C   UNL     1       8.579   0.066  25.452  0.00  0.00    +0.020 C 
ENDBRANCH  15  16
BRANCH  15  18
ATOM     18  C   UNL     1       9.703   1.413  22.051  0.00  0.00    +0.081 C 
ATOM     19  C   UNL     1       8.288   1.641  21.528  0.00  0.00    +0.020 C 
ENDBRANCH  15  18
ENDBRANCH  14  15
ENDBRANCH  13  14
ENDBRANCH  12  13
ENDBRANCH  10  12
ENDBRANCH   3  10
BRANCH   1  20
ATOM     20  O   UNL     1       5.679  -5.912  25.431  0.00  0.00    -0.490 OA
BRANCH  20  21
ATOM     21  C   UNL     1       4.498  -5.139  25.191  0.00  0.00    +0.229 C 
BRANCH  21  22
ATOM     22  C   UNL     1       4.159  -4.231  26.365  0.00  0.00    +0.041 C 
BRANCH  22  24
ATOM     23  C   UNL     1       5.434  -2.054  26.557  0.00  0.00    +0.004 C 
ATOM     24  C   UNL     1       4.263  -2.771  25.914  0.00  0.00    -0.000 C 
ENDBRANCH  22  24
ENDBRANCH  21  22
ENDBRANCH  20  21
ENDBRANCH   1  20
TORSDOF 12
ENDMDL
MODEL 9
REMARK VINA RESULT:      -5.1      1.948      7.266
REMARK  Name = 
REMARK  15 active torsions:
REMARK  status: ('A' for Active; 'I' for Inactive)
REMARK    1  A    between atoms: C_1  and  C_2
REMARK    2  A    between atoms: C_2  and  C_3
REMARK    3  A    between atoms: C_3  and  C_4
REMARK    4  A    between atoms: C_4  and  O_5
REMARK    5  A    between atoms: O_5  and  C_6
REMARK    6  A    between atoms: C_7  and  N_8
REMARK    7  A    between atoms: C_11  and  C_13
REMARK    8  A    between atoms: C_13  and  O_15
REMARK    9  A    between atoms: O_15  and  C_16
REMARK   10  A    between atoms: C_16  and  C_17
REMARK   11  A    between atoms: C_17  and  N_18
REMARK   12  A    between atoms: N_18  and  C_19
REMARK   13  A    between atoms: N_18  and  C_21
REMARK   14  A    between atoms: C_19  and  C_20
REMARK   15  A    between atoms: C_21  and  C_22
REMARK                            x       y       z     vdW  Elec       q    Type
REMARK                         _______ _______ _______ _____ _____    ______ ____
ROOT
ATOM      1  C   UNL     1       6.549  -4.276  24.955  0.00  0.00    +0.142 A 
ATOM      2  C   UNL     1       7.370  -3.383  24.257  0.00  0.00    +0.062 A 
ATOM      3  C   UNL     1       8.744  -3.311  24.504  0.00  0.00    +0.063 A 
ATOM      4  C   UNL     1       9.318  -4.173  25.437  0.00  0.00    +0.017 A 
ATOM      5  C   UNL     1       8.511  -5.087  26.125  0.00  0.00    +0.027 A 
ATOM      6  C   UNL     1       7.123  -5.116  25.929  0.00  0.00    +0.067 A 
ENDROOT
BRANCH   6   7
ATOM      7  N   UNL     1       6.365  -6.122  26.553  0.00  0.00    -0.355 N 
ATOM      8  H   UNL     1       5.629  -5.772  27.156  0.00  0.00    +0.142 HD
ATOM      9  H   UNL     1       6.039  -6.814  25.880  0.00  0.00    +0.142 HD
ENDBRANCH   6   7
BRANCH   3  10
ATOM     10  C   UNL     1       9.573  -2.246  23.885  0.00  0.00    +0.339 C 
ATOM     11  O   UNL     1      10.502  -2.464  23.124  0.00  0.00    -0.245 OA
BRANCH  10  12
ATOM     12  O   UNL     1       9.262  -1.050  24.447  0.00  0.00    -0.460 OA
BRANCH  12  13
ATOM     13  C   UNL     1      10.390  -0.213  24.755  0.00  0.00    +0.248 C 
BRANCH  13  14
ATOM     14  C   UNL     1      10.277   1.044  23.868  0.00  0.00    +0.125 C 
BRANCH  14  15
ATOM     15  N   UNL     1       8.921   1.542  23.577  0.00  0.00    -0.300 NA
BRANCH  15  16
ATOM     16  C   UNL     1       8.756   1.675  22.117  0.00  0.00    +0.081 C 
ATOM     17  C   UNL     1       9.254   0.480  21.314  0.00  0.00    +0.020 C 
ENDBRANCH  15  16
BRANCH  15  18
ATOM     18  C   UNL     1       8.565   2.747  24.337  0.00  0.00    +0.081 C 
ATOM     19  C   UNL     1       9.406   3.992  24.066  0.00  0.00    +0.020 C 
ENDBRANCH  15  18
ENDBRANCH  14  15
ENDBRANCH  13  14
ENDBRANCH  12  13
ENDBRANCH  10  12
ENDBRANCH   3  10
BRANCH   1  20
ATOM     20  O   UNL     1       5.178  -4.349  24.778  0.00  0.00    -0.490 OA
BRANCH  20  21
ATOM     21  C   UNL     1       4.773  -4.629  23.434  0.00  0.00    +0.229 C 
BRANCH  21  22
ATOM     22  C   UNL     1       4.919  -6.104  23.087  0.00  0.00    +0.041 C 
BRANCH  22  24
ATOM     23  C   UNL     1       6.246  -5.467  21.030  0.00  0.00    +0.004 C 
ATOM     24  C   UNL     1       6.214  -6.304  22.293  0.00  0.00    -0.000 C 
ENDBRANCH  22  24
ENDBRANCH  21  22
ENDBRANCH  20  21
ENDBRANCH   1  20
TORSDOF 12
ENDMDL
