MODEL 1
REMARK VINA RESULT:      -5.8      0.000      0.000
REMARK  Name = 
REMARK  3 active torsions:
REMARK  status: ('A' for Active; 'I' for Inactive)
REMARK    1  A    between atoms: C_1  and  N_2
REMARK    2  A    between atoms: C_6  and  C_7
REMARK    3  A    between atoms: C_6  and  C_10
REMARK                            x       y       z     vdW  Elec       q    Type
REMARK                         _______ _______ _______ _____ _____    ______ ____
ROOT
ATOM      1  C   UNL     1       9.723  -0.657  24.730  0.00  0.00    +0.141 C 
ATOM      2  N   UNL     1       9.651   0.468  23.825  0.00  0.00    -0.245 N 
ATOM      3  C   UNL     1       9.145   1.676  24.195  0.00  0.00    +0.232 C 
ATOM      4  O   UNL     1       8.615   1.910  25.274  0.00  0.00    -0.274 OA
ATOM      5  C   UNL     1       9.282   2.672  23.034  0.00  0.00    +0.078 C 
ATOM      6  C   UNL     1       7.873   3.146  22.621  0.00  0.00    +0.026 C 
ATOM      7  C   UNL     1       9.839   1.771  21.906  0.00  0.00    +0.117 C 
ATOM      8  C   UNL     1       9.882   0.391  22.492  0.00  0.00    +0.223 C 
ATOM      9  O   UNL     1      10.094  -0.619  21.839  0.00  0.00    -0.275 OA
ENDROOT
BRANCH   5  10
ATOM     10  C   UNL     1      10.156   3.857  23.482  0.00  0.00    -0.032 A 
ATOM     11  C   UNL     1      11.545   3.822  23.235  0.00  0.00    +0.004 A 
ATOM     12  C   UNL     1      12.372   4.915  23.509  0.00  0.00    +0.000 A 
ATOM     13  C   UNL     1      11.831   6.074  24.048  0.00  0.00    +0.000 A 
ATOM     14  C   UNL     1      10.473   6.124  24.340  0.00  0.00    +0.000 A 
ATOM     15  C   UNL     1       9.647   5.026  24.071  0.00  0.00    +0.004 A 
ENDBRANCH   5  10
TORSDOF 1
ENDMDL
MODEL 2
REMARK VINA RESULT:      -5.7      4.583      6.341
REMARK  Name = 
REMARK  3 active torsions:
REMARK  status: ('A' for Active; 'I' for Inactive)
REMARK    1  A    between atoms: C_1  and  N_2
REMARK    2  A    between atoms: C_6  and  C_7
REMARK    3  A    between atoms: C_6  and  C_10
REMARK                            x       y       z     vdW  Elec       q    Type
REMARK                         _______ _______ _______ _____ _____    ______ ____
ROOT
ATOM      1  C   UNL     1       7.186  -6.012  22.025  0.00  0.00    +0.141 C 
ATOM      2  N   UNL     1       7.025  -4.794  22.784  0.00  0.00    -0.245 N 
ATOM      3  C   UNL     1       7.909  -4.404  23.742  0.00  0.00    +0.232 C 
ATOM      4  O   UNL     1       8.860  -5.072  24.128  0.00  0.00    -0.274 OA
ATOM      5  C   UNL     1       7.494  -3.035  24.302  0.00  0.00    +0.078 C 
ATOM      6  C   UNL     1       7.207  -3.185  25.811  0.00  0.00    +0.026 C 
ATOM      7  C   UNL     1       6.150  -2.788  23.577  0.00  0.00    +0.117 C 
ATOM      8  C   UNL     1       5.905  -4.029  22.772  0.00  0.00    +0.223 C 
ATOM      9  O   UNL     1       4.850  -4.279  22.210  0.00  0.00    -0.275 OA
ENDROOT
BRANCH   5  10
ATOM     10  C   UNL     1       8.624  -2.020  24.052  0.00  0.00    -0.032 A 
ATOM     11  C   UNL     1       9.149  -1.880  22.749  0.00  0.00    +0.004 A 
ATOM     12  C   UNL     1      10.088  -0.894  22.434  0.00  0.00    +0.000 A 
ATOM     13  C   UNL     1      10.538  -0.025  23.418  0.00  0.00    +0.000 A 
ATOM     14  C   UNL     1      10.070  -0.166  24.720  0.00  0.00    +0.000 A 
ATOM     15  C   UNL     1       9.133  -1.157  25.036  0.00  0.00    +0.004 A 
ENDBRANCH   5  10
TORSDOF 1
ENDMDL
MODEL 3
REMARK VINA RESULT:      -5.6      6.077      9.392
REMARK  Name = 
REMARK  3 active torsions:
REMARK  status: ('A' for Active; 'I' for Inactive)
REMARK    1  A    between atoms: C_1  and  N_2
REMARK    2  A    between atoms: C_6  and  C_7
REMARK    3  A    between atoms: C_6  and  C_10
REMARK                            x       y       z     vdW  Elec       q    Type
REMARK                         _______ _______ _______ _____ _____    ______ ____
ROOT
ATOM      1  C   UNL     1       9.778  -2.767  24.128  0.00  0.00    +0.141 C 
ATOM      2  N   UNL     1       8.565  -3.367  23.622  0.00  0.00    -0.245 N 
ATOM      3  C   UNL     1       8.287  -4.691  23.764  0.00  0.00    +0.232 C 
ATOM      4  O   UNL     1       9.056  -5.520  24.232  0.00  0.00    -0.274 OA
ATOM      5  C   UNL     1       6.893  -4.992  23.189  0.00  0.00    +0.078 C 
ATOM      6  C   UNL     1       7.044  -6.001  22.033  0.00  0.00    +0.026 C 
ATOM      7  C   UNL     1       6.496  -3.623  22.587  0.00  0.00    +0.117 C 
ATOM      8  C   UNL     1       7.689  -2.740  22.798  0.00  0.00    +0.223 C 
ATOM      9  O   UNL     1       7.818  -1.636  22.290  0.00  0.00    -0.275 OA
ENDROOT
BRANCH   5  10
ATOM     10  C   UNL     1       5.995  -5.556  24.304  0.00  0.00    -0.032 A 
ATOM     11  C   UNL     1       4.948  -6.441  23.965  0.00  0.00    +0.004 A 
ATOM     12  C   UNL     1       4.177  -7.079  24.940  0.00  0.00    +0.000 A 
ATOM     13  C   UNL     1       4.425  -6.843  26.285  0.00  0.00    +0.000 A 
ATOM     14  C   UNL     1       5.422  -5.945  26.649  0.00  0.00    +0.000 A 
ATOM     15  C   UNL     1       6.190  -5.302  25.671  0.00  0.00    +0.004 A 
ENDBRANCH   5  10
TORSDOF 1
ENDMDL
MODEL 4
REMARK VINA RESULT:      -5.5      5.032      7.900
REMARK  Name = 
REMARK  3 active torsions:
REMARK  status: ('A' for Active; 'I' for Inactive)
REMARK    1  A    between atoms: C_1  and  N_2
REMARK    2  A    between atoms: C_6  and  C_7
REMARK    3  A    between atoms: C_6  and  C_10
REMARK                            x       y       z     vdW  Elec       q    Type
REMARK                         _______ _______ _______ _____ _____    ______ ____
ROOT
ATOM      1  C   UNL     1       7.760  -0.607  26.405  0.00  0.00    +0.141 C 
ATOM      2  N   UNL     1       8.377  -1.579  25.531  0.00  0.00    -0.245 N 
ATOM      3  C   UNL     1       8.008  -2.889  25.515  0.00  0.00    +0.232 C 
ATOM      4  O   UNL     1       7.206  -3.398  26.288  0.00  0.00    -0.274 OA
ATOM      5  C   UNL     1       8.796  -3.635  24.427  0.00  0.00    +0.078 C 
ATOM      6  C   UNL     1       9.634  -4.743  25.097  0.00  0.00    +0.026 C 
ATOM      7  C   UNL     1       9.762  -2.536  23.925  0.00  0.00    +0.117 C 
ATOM      8  C   UNL     1       9.494  -1.347  24.799  0.00  0.00    +0.223 C 
ATOM      9  O   UNL     1      10.194  -0.346  24.822  0.00  0.00    -0.275 OA
ENDROOT
BRANCH   5  10
ATOM     10  C   UNL     1       7.812  -4.226  23.403  0.00  0.00    -0.032 A 
ATOM     11  C   UNL     1       7.004  -3.355  22.639  0.00  0.00    +0.004 A 
ATOM     12  C   UNL     1       6.181  -3.823  21.612  0.00  0.00    +0.000 A 
ATOM     13  C   UNL     1       6.134  -5.181  21.325  0.00  0.00    +0.000 A 
ATOM     14  C   UNL     1       6.887  -6.067  22.087  0.00  0.00    +0.000 A 
ATOM     15  C   UNL     1       7.706  -5.598  23.120  0.00  0.00    +0.004 A 
ENDBRANCH   5  10
TORSDOF 1
ENDMDL
MODEL 5
REMARK VINA RESULT:      -5.5      3.318      5.183
REMARK  Name = 
REMARK  3 active torsions:
REMARK  status: ('A' for Active; 'I' for Inactive)
REMARK    1  A    between atoms: C_1  and  N_2
REMARK    2  A    between atoms: C_6  and  C_7
REMARK    3  A    between atoms: C_6  and  C_10
REMARK                            x       y       z     vdW  Elec       q    Type
REMARK                         _______ _______ _______ _____ _____    ______ ____
ROOT
ATOM      1  C   UNL     1       7.759  -5.016  23.253  0.00  0.00    +0.141 C 
ATOM      2  N   UNL     1       7.639  -3.694  23.822  0.00  0.00    -0.245 N 
ATOM      3  C   UNL     1       8.721  -2.925  24.124  0.00  0.00    +0.232 C 
ATOM      4  O   UNL     1       9.885  -3.296  24.045  0.00  0.00    -0.274 OA
ATOM      5  C   UNL     1       8.255  -1.554  24.636  0.00  0.00    +0.078 C 
ATOM      6  C   UNL     1       8.764  -1.367  26.080  0.00  0.00    +0.026 C 
ATOM      7  C   UNL     1       6.719  -1.739  24.687  0.00  0.00    +0.117 C 
ATOM      8  C   UNL     1       6.483  -3.166  24.292  0.00  0.00    +0.223 C 
ATOM      9  O   UNL     1       5.405  -3.732  24.395  0.00  0.00    -0.275 OA
ENDROOT
BRANCH   5  10
ATOM     10  C   UNL     1       8.799  -0.453  23.709  0.00  0.00    -0.032 A 
ATOM     11  C   UNL     1       9.588   0.582  24.257  0.00  0.00    +0.004 A 
ATOM     12  C   UNL     1      10.210   1.541  23.453  0.00  0.00    +0.000 A 
ATOM     13  C   UNL     1      10.052   1.497  22.075  0.00  0.00    +0.000 A 
ATOM     14  C   UNL     1       9.248   0.514  21.509  0.00  0.00    +0.000 A 
ATOM     15  C   UNL     1       8.620  -0.442  22.317  0.00  0.00    +0.004 A 
ENDBRANCH   5  10
TORSDOF 1
ENDMDL
MODEL 6
REMARK VINA RESULT:      -5.4      2.834      4.518
REMARK  Name = 
REMARK  3 active torsions:
REMARK  status: ('A' for Active; 'I' for Inactive)
REMARK    1  A    between atoms: C_1  and  N_2
REMARK    2  A    between atoms: C_6  and  C_7
REMARK    3  A    between atoms: C_6  and  C_10
REMARK                            x       y       z     vdW  Elec       q    Type
REMARK                         _______ _______ _______ _____ _____    ______ ____
ROOT
ATOM      1  C   UNL     1       6.782  -2.436  26.619  0.00  0.00    +0.141 C 
ATOM      2  N   UNL     1       7.728  -2.400  25.527  0.00  0.00    -0.245 N 
ATOM      3  C   UNL     1       7.555  -1.610  24.432  0.00  0.00    +0.232 C 
ATOM      4  O   UNL     1       6.558  -0.937  24.207  0.00  0.00    -0.274 OA
ATOM      5  C   UNL     1       8.769  -1.746  23.500  0.00  0.00    +0.078 C 
ATOM      6  C   UNL     1       8.289  -2.300  22.142  0.00  0.00    +0.026 C 
ATOM      7  C   UNL     1       9.591  -2.849  24.207  0.00  0.00    +0.117 C 
ATOM      8  C   UNL     1       8.757  -3.271  25.379  0.00  0.00    +0.223 C 
ATOM      9  O   UNL     1       8.995  -4.251  26.069  0.00  0.00    -0.275 OA
ENDROOT
BRANCH   5  10
ATOM     10  C   UNL     1       9.436  -0.370  23.332  0.00  0.00    -0.032 A 
ATOM     11  C   UNL     1       9.398   0.266  22.072  0.00  0.00    +0.004 A 
ATOM     12  C   UNL     1       9.879   1.565  21.886  0.00  0.00    +0.000 A 
ATOM     13  C   UNL     1      10.423   2.262  22.955  0.00  0.00    +0.000 A 
ATOM     14  C   UNL     1      10.512   1.647  24.199  0.00  0.00    +0.000 A 
ATOM     15  C   UNL     1      10.035   0.344  24.382  0.00  0.00    +0.004 A 
ENDBRANCH   5  10
TORSDOF 1
ENDMDL
MODEL 7
REMARK VINA RESULT:      -5.4      5.048      7.557
REMARK  Name = 
REMARK  3 active torsions:
REMARK  status: ('A' for Active; 'I' for Inactive)
REMARK    1  A    between atoms: C_1  and  N_2
REMARK    2  A    between atoms: C_6  and  C_7
REMARK    3  A    between atoms: C_6  and  C_10
REMARK                            x       y       z     vdW  Elec       q    Type
REMARK                         _______ _______ _______ _____ _____    ______ ____
ROOT
ATOM      1  C   UNL     1       5.228  -5.858  24.252  0.00  0.00    +0.141 C 
ATOM      2  N   UNL     1       6.380  -5.418  25.006  0.00  0.00    -0.245 N 
ATOM      3  C   UNL     1       7.487  -4.893  24.413  0.00  0.00    +0.232 C 
ATOM      4  O   UNL     1       7.669  -4.832  23.204  0.00  0.00    -0.274 OA
ATOM      5  C   UNL     1       8.491  -4.454  25.489  0.00  0.00    +0.078 C 
ATOM      6  C   UNL     1       9.795  -5.258  25.305  0.00  0.00    +0.026 C 
ATOM      7  C   UNL     1       7.802  -4.944  26.785  0.00  0.00    +0.117 C 
ATOM      8  C   UNL     1       6.564  -5.656  26.327  0.00  0.00    +0.223 C 
ATOM      9  O   UNL     1       5.860  -6.335  27.058  0.00  0.00    -0.275 OA
ENDROOT
BRANCH   5  10
ATOM     10  C   UNL     1       8.749  -2.943  25.358  0.00  0.00    -0.032 A 
ATOM     11  C   UNL     1       8.279  -2.073  26.366  0.00  0.00    +0.004 A 
ATOM     12  C   UNL     1       8.584  -0.709  26.365  0.00  0.00    +0.000 A 
ATOM     13  C   UNL     1       9.362  -0.174  25.348  0.00  0.00    +0.000 A 
ATOM     14  C   UNL     1       9.805  -0.998  24.319  0.00  0.00    +0.000 A 
ATOM     15  C   UNL     1       9.493  -2.363  24.318  0.00  0.00    +0.004 A 
ENDBRANCH   5  10
TORSDOF 1
ENDMDL
MODEL 8
REMARK VINA RESULT:      -5.4      4.949      6.987
REMARK  Name = 
REMARK  3 active torsions:
REMARK  status: ('A' for Active; 'I' for Inactive)
REMARK    1  A    between atoms: C_1  and  N_2
REMARK    2  A    between atoms: C_6  and  C_7
REMARK    3  A    between atoms: C_6  and  C_10
REMARK                            x       y       z     vdW  Elec       q    Type
REMARK                         _______ _______ _______ _____ _____    ______ ____
ROOT
ATOM      1  C   UNL     1       5.598  -3.730  27.278  0.00  0.00    +0.141 C 
ATOM      2  N   UNL     1       6.608  -4.052  26.296  0.00  0.00    -0.245 N 
ATOM      3  C   UNL     1       6.519  -3.662  24.996  0.00  0.00    +0.232 C 
ATOM      4  O   UNL     1       5.551  -3.097  24.501  0.00  0.00    -0.274 OA
ATOM      5  C   UNL     1       7.783  -4.094  24.237  0.00  0.00    +0.078 C 
ATOM      6  C   UNL     1       7.373  -5.059  23.106  0.00  0.00    +0.026 C 
ATOM      7  C   UNL     1       8.537  -4.908  25.316  0.00  0.00    +0.117 C 
ATOM      8  C   UNL     1       7.625  -4.924  26.506  0.00  0.00    +0.223 C 
ATOM      9  O   UNL     1       7.800  -5.627  27.489  0.00  0.00    -0.275 OA
ENDROOT
BRANCH   5  10
ATOM     10  C   UNL     1       8.489  -2.849  23.675  0.00  0.00    -0.032 A 
ATOM     11  C   UNL     1       9.286  -2.061  24.534  0.00  0.00    +0.004 A 
ATOM     12  C   UNL     1      10.047  -0.990  24.058  0.00  0.00    +0.000 A 
ATOM     13  C   UNL     1      10.025  -0.669  22.708  0.00  0.00    +0.000 A 
ATOM     14  C   UNL     1       9.218  -1.401  21.844  0.00  0.00    +0.000 A 
ATOM     15  C   UNL     1       8.451  -2.470  22.323  0.00  0.00    +0.004 A 
ENDBRANCH   5  10
TORSDOF 1
ENDMDL
MODEL 9
REMARK VINA RESULT:      -5.3      3.790      7.272
REMARK  Name = 
REMARK  3 active torsions:
REMARK  status: ('A' for Active; 'I' for Inactive)
REMARK    1  A    between atoms: C_1  and  N_2
REMARK    2  A    between atoms: C_6  and  C_7
REMARK    3  A    between atoms: C_6  and  C_10
REMARK                            x       y       z     vdW  Elec       q    Type
REMARK                         _______ _______ _______ _____ _____    ______ ____
ROOT
ATOM      1  C   UNL     1       7.520   1.321  23.471  0.00  0.00    +0.141 C 
ATOM      2  N   UNL     1       8.139   0.071  23.095  0.00  0.00    -0.245 N 
ATOM      3  C   UNL     1       8.033  -1.057  23.850  0.00  0.00    +0.232 C 
ATOM      4  O   UNL     1       7.503  -1.112  24.952  0.00  0.00    -0.274 OA
ATOM      5  C   UNL     1       8.735  -2.224  23.138  0.00  0.00    +0.078 C 
ATOM      6  C   UNL     1       9.881  -2.734  24.036  0.00  0.00    +0.026 C 
ATOM      7  C   UNL     1       9.360  -1.518  21.912  0.00  0.00    +0.117 C 
ATOM      8  C   UNL     1       9.034  -0.065  22.086  0.00  0.00    +0.223 C 
ATOM      9  O   UNL     1       9.520   0.829  21.409  0.00  0.00    -0.275 OA
ENDROOT
BRANCH   5  10
ATOM     10  C   UNL     1       7.711  -3.339  22.860  0.00  0.00    -0.032 A 
ATOM     11  C   UNL     1       6.589  -3.058  22.050  0.00  0.00    +0.004 A 
ATOM     12  C   UNL     1       5.690  -4.056  21.664  0.00  0.00    +0.000 A 
ATOM     13  C   UNL     1       5.883  -5.364  22.086  0.00  0.00    +0.000 A 
ATOM     14  C   UNL     1       6.956  -5.663  22.918  0.00  0.00    +0.000 A 
ATOM     15  C   UNL     1       7.852  -4.661  23.309  0.00  0.00    +0.004 A 
ENDBRANCH   5  10
TORSDOF 1
ENDMDL
