MODEL 1
REMARK VINA RESULT:      -6.2      0.000      0.000
REMARK  Name = 
REMARK  5 active torsions:
REMARK  status: ('A' for Active; 'I' for Inactive)
REMARK    1  A    between atoms: C_4  and  N_5
REMARK    2  A    between atoms: C_6  and  N_7
REMARK    3  A    between atoms: C_9  and  O_10
REMARK    4  A    between atoms: O_10  and  C_11
REMARK    5  A    between atoms: C_11  and  C_12
REMARK                            x       y       z     vdW  Elec       q    Type
REMARK                         _______ _______ _______ _____ _____    ______ ____
ROOT
ATOM      1  N   UNL     1       9.797  -5.580  25.614  0.00  0.00    -0.327 N 
ATOM      2  H   UNL     1      10.649  -5.035  25.576  0.00  0.00    +0.145 HD
ATOM      3  H   UNL     1       9.482  -5.876  26.525  0.00  0.00    +0.145 HD
ATOM      4  C   UNL     1       8.782  -4.951  24.926  0.00  0.00    +0.217 A 
ATOM      5  N   UNL     1       9.112  -4.077  23.971  0.00  0.00    -0.178 NA
ATOM      6  C   UNL     1       8.073  -3.489  23.338  0.00  0.00    +0.251 A 
ATOM      7  C   UNL     1       6.731  -3.737  23.617  0.00  0.00    +0.208 A 
ATOM      8  C   UNL     1       6.526  -4.638  24.655  0.00  0.00    +0.154 A 
ATOM      9  N   UNL     1       7.535  -5.240  25.312  0.00  0.00    -0.198 NA
ENDROOT
BRANCH   8  10
ATOM     10  N   UNL     1       5.249  -4.932  25.159  0.00  0.00    -0.341 N 
ATOM     11  H   UNL     1       5.164  -5.891  25.478  0.00  0.00    +0.144 HD
ATOM     12  H   UNL     1       5.014  -4.250  25.875  0.00  0.00    +0.144 HD
ENDBRANCH   8  10
BRANCH   7  13
ATOM     13  N   UNL     1       5.672  -3.113  22.979  0.00  0.00    -0.022 NA
ATOM     14  O   UNL     1       5.006  -3.885  22.279  0.00  0.00    -0.143 OA
ENDBRANCH   7  13
BRANCH   6  15
ATOM     15  O   UNL     1       8.323  -2.541  22.373  0.00  0.00    -0.474 OA
BRANCH  15  16
ATOM     16  C   UNL     1       9.446  -1.675  22.514  0.00  0.00    +0.234 C 
BRANCH  16  17
ATOM     17  C   UNL     1       8.886  -0.435  23.244  0.00  0.00    +0.027 C 
ATOM     18  C   UNL     1       8.732   0.791  22.336  0.00  0.00    +0.007 C 
ATOM     19  C   UNL     1      10.008   1.608  22.182  0.00  0.00    +0.000 C 
ATOM     20  C   UNL     1      10.547   2.022  23.543  0.00  0.00    +0.000 C 
ATOM     21  C   UNL     1      10.871   0.789  24.378  0.00  0.00    +0.000 C 
ATOM     22  C   UNL     1       9.656  -0.119  24.549  0.00  0.00    +0.007 C 
ENDBRANCH  16  17
ENDBRANCH  15  16
ENDBRANCH   6  15
TORSDOF 5
ENDMDL
MODEL 2
REMARK VINA RESULT:      -6.2      0.641      1.368
REMARK  Name = 
REMARK  5 active torsions:
REMARK  status: ('A' for Active; 'I' for Inactive)
REMARK    1  A    between atoms: C_4  and  N_5
REMARK    2  A    between atoms: C_6  and  N_7
REMARK    3  A    between atoms: C_9  and  O_10
REMARK    4  A    between atoms: O_10  and  C_11
REMARK    5  A    between atoms: C_11  and  C_12
REMARK                            x       y       z     vdW  Elec       q    Type
REMARK                         _______ _______ _______ _____ _____    ______ ____
ROOT
ATOM      1  N   UNL     1       9.855  -5.598  25.601  0.00  0.00    -0.327 N 
ATOM      2  H   UNL     1      10.635  -4.963  25.710  0.00  0.00    +0.145 HD
ATOM      3  H   UNL     1       9.520  -6.061  26.432  0.00  0.00    +0.145 HD
ATOM      4  C   UNL     1       8.817  -4.990  24.929  0.00  0.00    +0.217 A 
ATOM      5  N   UNL     1       9.098  -3.951  24.138  0.00  0.00    -0.178 NA
ATOM      6  C   UNL     1       8.038  -3.393  23.513  0.00  0.00    +0.251 A 
ATOM      7  C   UNL     1       6.721  -3.828  23.643  0.00  0.00    +0.208 A 
ATOM      8  C   UNL     1       6.561  -4.893  24.523  0.00  0.00    +0.154 A 
ATOM      9  N   UNL     1       7.593  -5.470  25.168  0.00  0.00    -0.198 NA
ENDROOT
BRANCH   8  10
ATOM     10  N   UNL     1       5.300  -5.399  24.874  0.00  0.00    -0.341 N 
ATOM     11  H   UNL     1       4.691  -5.524  24.073  0.00  0.00    +0.144 HD
ATOM     12  H   UNL     1       5.428  -6.249  25.416  0.00  0.00    +0.144 HD
ENDBRANCH   8  10
BRANCH   7  13
ATOM     13  N   UNL     1       5.637  -3.236  23.017  0.00  0.00    -0.022 NA
ATOM     14  O   UNL     1       5.107  -3.969  22.174  0.00  0.00    -0.143 OA
ENDBRANCH   7  13
BRANCH   6  15
ATOM     15  O   UNL     1       8.232  -2.289  22.716  0.00  0.00    -0.474 OA
BRANCH  15  16
ATOM     16  C   UNL     1       8.356  -1.002  23.317  0.00  0.00    +0.234 C 
BRANCH  16  17
ATOM     17  C   UNL     1       9.727  -0.483  22.832  0.00  0.00    +0.027 C 
ATOM     18  C   UNL     1      10.588   0.109  23.954  0.00  0.00    +0.007 C 
ATOM     19  C   UNL     1      10.280   1.567  24.263  0.00  0.00    +0.000 C 
ATOM     20  C   UNL     1      10.392   2.417  23.006  0.00  0.00    +0.000 C 
ATOM     21  C   UNL     1       9.401   1.936  21.954  0.00  0.00    +0.000 C 
ATOM     22  C   UNL     1       9.603   0.462  21.612  0.00  0.00    +0.007 C 
ENDBRANCH  16  17
ENDBRANCH  15  16
ENDBRANCH   6  15
TORSDOF 5
ENDMDL
MODEL 3
REMARK VINA RESULT:      -6.2      1.376      1.952
REMARK  Name = 
REMARK  5 active torsions:
REMARK  status: ('A' for Active; 'I' for Inactive)
REMARK    1  A    between atoms: C_4  and  N_5
REMARK    2  A    between atoms: C_6  and  N_7
REMARK    3  A    between atoms: C_9  and  O_10
REMARK    4  A    between atoms: O_10  and  C_11
REMARK    5  A    between atoms: C_11  and  C_12
REMARK                            x       y       z     vdW  Elec       q    Type
REMARK                         _______ _______ _______ _____ _____    ______ ____
ROOT
ATOM      1  N   UNL     1       7.945  -5.842  27.158  0.00  0.00    -0.327 N 
ATOM      2  H   UNL     1       8.499  -5.325  27.828  0.00  0.00    +0.145 HD
ATOM      3  H   UNL     1       7.022  -6.125  27.447  0.00  0.00    +0.145 HD
ATOM      4  C   UNL     1       7.899  -5.184  25.948  0.00  0.00    +0.217 A 
ATOM      5  N   UNL     1       8.879  -4.324  25.657  0.00  0.00    -0.178 NA
ATOM      6  C   UNL     1       8.773  -3.706  24.461  0.00  0.00    +0.251 A 
ATOM      7  C   UNL     1       7.738  -3.910  23.551  0.00  0.00    +0.208 A 
ATOM      8  C   UNL     1       6.766  -4.802  23.990  0.00  0.00    +0.154 A 
ATOM      9  N   UNL     1       6.835  -5.432  25.178  0.00  0.00    -0.198 NA
ENDROOT
BRANCH   8  10
ATOM     10  N   UNL     1       5.590  -5.053  23.267  0.00  0.00    -0.341 N 
ATOM     11  H   UNL     1       5.772  -5.361  22.318  0.00  0.00    +0.144 HD
ATOM     12  H   UNL     1       5.013  -5.703  23.794  0.00  0.00    +0.144 HD
ENDBRANCH   8  10
BRANCH   7  13
ATOM     13  N   UNL     1       7.625  -3.256  22.336  0.00  0.00    -0.022 NA
ATOM     14  O   UNL     1       6.713  -2.420  22.320  0.00  0.00    -0.143 OA
ENDBRANCH   7  13
BRANCH   6  15
ATOM     15  O   UNL     1       9.714  -2.770  24.102  0.00  0.00    -0.474 OA
BRANCH  15  16
ATOM     16  C   UNL     1       9.475  -1.392  24.379  0.00  0.00    +0.234 C 
BRANCH  16  17
ATOM     17  C   UNL     1      10.515  -0.641  23.519  0.00  0.00    +0.027 C 
ATOM     18  C   UNL     1      10.879   0.743  24.068  0.00  0.00    +0.007 C 
ATOM     19  C   UNL     1       9.916   1.845  23.650  0.00  0.00    +0.000 C 
ATOM     20  C   UNL     1       9.784   1.895  22.134  0.00  0.00    +0.000 C 
ATOM     21  C   UNL     1       9.247   0.570  21.608  0.00  0.00    +0.000 C 
ATOM     22  C   UNL     1      10.128  -0.607  22.020  0.00  0.00    +0.007 C 
ENDBRANCH  16  17
ENDBRANCH  15  16
ENDBRANCH   6  15
TORSDOF 5
ENDMDL
MODEL 4
REMARK VINA RESULT:      -6.2      2.157      3.188
REMARK  Name = 
REMARK  5 active torsions:
REMARK  status: ('A' for Active; 'I' for Inactive)
REMARK    1  A    between atoms: C_4  and  N_5
REMARK    2  A    between atoms: C_6  and  N_7
REMARK    3  A    between atoms: C_9  and  O_10
REMARK    4  A    between atoms: O_10  and  C_11
REMARK    5  A    between atoms: C_11  and  C_12
REMARK                            x       y       z     vdW  Elec       q    Type
REMARK                         _______ _______ _______ _____ _____    ______ ____
ROOT
ATOM      1  N   UNL     1       5.677  -1.892  27.203  0.00  0.00    -0.327 N 
ATOM      2  H   UNL     1       5.399  -1.142  26.584  0.00  0.00    +0.145 HD
ATOM      3  H   UNL     1       4.955  -2.521  27.517  0.00  0.00    +0.145 HD
ATOM      4  C   UNL     1       6.740  -2.594  26.676  0.00  0.00    +0.217 A 
ATOM      5  N   UNL     1       7.525  -1.980  25.786  0.00  0.00    -0.178 NA
ATOM      6  C   UNL     1       8.544  -2.723  25.301  0.00  0.00    +0.251 A 
ATOM      7  C   UNL     1       8.810  -4.040  25.667  0.00  0.00    +0.208 A 
ATOM      8  C   UNL     1       7.899  -4.571  26.572  0.00  0.00    +0.154 A 
ATOM      9  N   UNL     1       6.868  -3.864  27.073  0.00  0.00    -0.198 NA
ENDROOT
BRANCH   8  10
ATOM     10  N   UNL     1       7.931  -5.915  26.975  0.00  0.00    -0.341 N 
ATOM     11  H   UNL     1       8.657  -6.447  26.508  0.00  0.00    +0.144 HD
ATOM     12  H   UNL     1       7.997  -5.952  27.989  0.00  0.00    +0.144 HD
ENDBRANCH   8  10
BRANCH   7  13
ATOM     13  N   UNL     1       9.844  -4.802  25.148  0.00  0.00    -0.022 NA
ATOM     14  O   UNL     1       9.450  -5.714  24.412  0.00  0.00    -0.143 OA
ENDBRANCH   7  13
BRANCH   6  15
ATOM     15  O   UNL     1       9.373  -2.184  24.345  0.00  0.00    -0.474 OA
BRANCH  15  16
ATOM     16  C   UNL     1       8.830  -1.314  23.355  0.00  0.00    +0.234 C 
BRANCH  16  17
ATOM     17  C   UNL     1      10.037  -0.479  22.873  0.00  0.00    +0.027 C 
ATOM     18  C   UNL     1      10.722   0.310  23.995  0.00  0.00    +0.007 C 
ATOM     19  C   UNL     1      10.067   1.651  24.294  0.00  0.00    +0.000 C 
ATOM     20  C   UNL     1       9.977   2.497  23.032  0.00  0.00    +0.000 C 
ATOM     21  C   UNL     1       9.139   1.784  21.979  0.00  0.00    +0.000 C 
ATOM     22  C   UNL     1       9.695   0.401  21.647  0.00  0.00    +0.007 C 
ENDBRANCH  16  17
ENDBRANCH  15  16
ENDBRANCH   6  15
TORSDOF 5
ENDMDL
MODEL 5
REMARK VINA RESULT:      -5.8      2.049      2.973
REMARK  Name = 
REMARK  5 active torsions:
REMARK  status: ('A' for Active; 'I' for Inactive)
REMARK    1  A    between atoms: C_4  and  N_5
REMARK    2  A    between atoms: C_6  and  N_7
REMARK    3  A    between atoms: C_9  and  O_10
REMARK    4  A    between atoms: O_10  and  C_11
REMARK    5  A    between atoms: C_11  and  C_12
REMARK                            x       y       z     vdW  Elec       q    Type
REMARK                         _______ _______ _______ _____ _____    ______ ____
ROOT
ATOM      1  N   UNL     1       5.971  -5.463  21.819  0.00  0.00    -0.327 N 
ATOM      2  H   UNL     1       6.675  -5.287  21.115  0.00  0.00    +0.145 HD
ATOM      3  H   UNL     1       5.539  -6.373  21.821  0.00  0.00    +0.145 HD
ATOM      4  C   UNL     1       6.444  -5.145  23.074  0.00  0.00    +0.217 A 
ATOM      5  N   UNL     1       7.447  -4.267  23.169  0.00  0.00    -0.178 NA
ATOM      6  C   UNL     1       7.870  -4.003  24.425  0.00  0.00    +0.251 A 
ATOM      7  C   UNL     1       7.337  -4.572  25.578  0.00  0.00    +0.208 A 
ATOM      8  C   UNL     1       6.324  -5.494  25.338  0.00  0.00    +0.154 A 
ATOM      9  N   UNL     1       5.880  -5.787  24.102  0.00  0.00    -0.198 NA
ENDROOT
BRANCH   8  10
ATOM     10  N   UNL     1       5.739  -6.257  26.362  0.00  0.00    -0.341 N 
ATOM     11  H   UNL     1       5.753  -5.784  27.259  0.00  0.00    +0.144 HD
ATOM     12  H   UNL     1       4.806  -6.535  26.070  0.00  0.00    +0.144 HD
ENDBRANCH   8  10
BRANCH   7  13
ATOM     13  N   UNL     1       7.792  -4.313  26.860  0.00  0.00    -0.022 NA
ATOM     14  O   UNL     1       8.139  -5.334  27.466  0.00  0.00    -0.143 OA
ENDBRANCH   7  13
BRANCH   6  15
ATOM     15  O   UNL     1       8.930  -3.146  24.611  0.00  0.00    -0.474 OA
BRANCH  15  16
ATOM     16  C   UNL     1       8.718  -1.739  24.526  0.00  0.00    +0.234 C 
BRANCH  16  17
ATOM     17  C   UNL     1      10.033  -1.187  23.933  0.00  0.00    +0.027 C 
ATOM     18  C   UNL     1      10.341   0.252  24.362  0.00  0.00    +0.007 C 
ATOM     19  C   UNL     1       9.654   1.310  23.510  0.00  0.00    +0.000 C 
ATOM     20  C   UNL     1       9.989   1.113  22.039  0.00  0.00    +0.000 C 
ATOM     21  C   UNL     1       9.515  -0.256  21.569  0.00  0.00    +0.000 C 
ATOM     22  C   UNL     1      10.118  -1.385  22.400  0.00  0.00    +0.007 C 
ENDBRANCH  16  17
ENDBRANCH  15  16
ENDBRANCH   6  15
TORSDOF 5
ENDMDL
MODEL 6
REMARK VINA RESULT:      -5.7      2.888      5.911
REMARK  Name = 
REMARK  5 active torsions:
REMARK  status: ('A' for Active; 'I' for Inactive)
REMARK    1  A    between atoms: C_4  and  N_5
REMARK    2  A    between atoms: C_6  and  N_7
REMARK    3  A    between atoms: C_9  and  O_10
REMARK    4  A    between atoms: O_10  and  C_11
REMARK    5  A    between atoms: C_11  and  C_12
REMARK                            x       y       z     vdW  Elec       q    Type
REMARK                         _______ _______ _______ _____ _____    ______ ____
ROOT
ATOM      1  N   UNL     1       9.046  -0.680  27.045  0.00  0.00    -0.327 N 
ATOM      2  H   UNL     1       9.070  -1.645  27.346  0.00  0.00    +0.145 HD
ATOM      3  H   UNL     1       9.653  -0.033  27.524  0.00  0.00    +0.145 HD
ATOM      4  C   UNL     1       9.213  -0.588  25.680  0.00  0.00    +0.217 A 
ATOM      5  N   UNL     1       8.906  -1.650  24.931  0.00  0.00    -0.178 NA
ATOM      6  C   UNL     1       9.099  -1.500  23.602  0.00  0.00    +0.251 A 
ATOM      7  C   UNL     1       9.580  -0.342  22.997  0.00  0.00    +0.208 A 
ATOM      8  C   UNL     1       9.894   0.676  23.890  0.00  0.00    +0.154 A 
ATOM      9  N   UNL     1       9.721   0.561  25.221  0.00  0.00    -0.198 NA
ENDROOT
BRANCH   8  10
ATOM     10  N   UNL     1      10.497   1.877  23.485  0.00  0.00    -0.341 N 
ATOM     11  H   UNL     1      10.005   2.696  23.825  0.00  0.00    +0.144 HD
ATOM     12  H   UNL     1      11.477   1.859  23.753  0.00  0.00    +0.144 HD
ENDBRANCH   8  10
BRANCH   7  13
ATOM     13  N   UNL     1       9.796  -0.203  21.636  0.00  0.00    -0.022 NA
ATOM     14  O   UNL     1       9.075   0.657  21.117  0.00  0.00    -0.143 OA
ENDBRANCH   7  13
BRANCH   6  15
ATOM     15  O   UNL     1       8.852  -2.561  22.762  0.00  0.00    -0.474 OA
BRANCH  15  16
ATOM     16  C   UNL     1       7.528  -3.079  22.657  0.00  0.00    +0.234 C 
BRANCH  16  17
ATOM     17  C   UNL     1       7.652  -4.545  23.126  0.00  0.00    +0.027 C 
ATOM     18  C   UNL     1       7.164  -5.563  22.088  0.00  0.00    +0.007 C 
ATOM     19  C   UNL     1       5.661  -5.805  22.121  0.00  0.00    +0.000 C 
ATOM     20  C   UNL     1       5.215  -6.217  23.517  0.00  0.00    +0.000 C 
ATOM     21  C   UNL     1       5.541  -5.119  24.520  0.00  0.00    +0.000 C 
ATOM     22  C   UNL     1       7.028  -4.772  24.525  0.00  0.00    +0.007 C 
ENDBRANCH  16  17
ENDBRANCH  15  16
ENDBRANCH   6  15
TORSDOF 5
ENDMDL
MODEL 7
REMARK VINA RESULT:      -5.5      3.367      6.090
REMARK  Name = 
REMARK  5 active torsions:
REMARK  status: ('A' for Active; 'I' for Inactive)
REMARK    1  A    between atoms: C_4  and  N_5
REMARK    2  A    between atoms: C_6  and  N_7
REMARK    3  A    between atoms: C_9  and  O_10
REMARK    4  A    between atoms: O_10  and  C_11
REMARK    5  A    between atoms: C_11  and  C_12
REMARK                            x       y       z     vdW  Elec       q    Type
REMARK                         _______ _______ _______ _____ _____    ______ ____
ROOT
ATOM      1  N   UNL     1       7.988   2.538  25.905  0.00  0.00    -0.327 N 
ATOM      2  H   UNL     1       8.057   2.109  26.818  0.00  0.00    +0.145 HD
ATOM      3  H   UNL     1       8.356   3.471  25.806  0.00  0.00    +0.145 HD
ATOM      4  C   UNL     1       8.498   1.705  24.932  0.00  0.00    +0.217 A 
ATOM      5  N   UNL     1       8.541   0.394  25.181  0.00  0.00    -0.178 NA
ATOM      6  C   UNL     1       9.058  -0.368  24.192  0.00  0.00    +0.251 A 
ATOM      7  C   UNL     1       9.528   0.122  22.976  0.00  0.00    +0.208 A 
ATOM      8  C   UNL     1       9.459   1.505  22.859  0.00  0.00    +0.154 A 
ATOM      9  N   UNL     1       8.955   2.297  23.824  0.00  0.00    -0.198 NA
ENDROOT
BRANCH   8  10
ATOM     10  N   UNL     1       9.985   2.197  21.756  0.00  0.00    -0.341 N 
ATOM     11  H   UNL     1       9.353   2.905  21.399  0.00  0.00    +0.144 HD
ATOM     12  H   UNL     1      10.899   2.566  22.007  0.00  0.00    +0.144 HD
ENDBRANCH   8  10
BRANCH   7  13
ATOM     13  N   UNL     1      10.077  -0.664  21.976  0.00  0.00    -0.022 NA
ATOM     14  O   UNL     1       9.389  -0.690  20.949  0.00  0.00    -0.143 OA
ENDBRANCH   7  13
BRANCH   6  15
ATOM     15  O   UNL     1       9.184  -1.725  24.384  0.00  0.00    -0.474 OA
BRANCH  15  16
ATOM     16  C   UNL     1       8.016  -2.514  24.599  0.00  0.00    +0.234 C 
BRANCH  16  17
ATOM     17  C   UNL     1       7.912  -3.397  23.337  0.00  0.00    +0.027 C 
ATOM     18  C   UNL     1       6.904  -2.875  22.307  0.00  0.00    +0.007 C 
ATOM     19  C   UNL     1       5.468  -3.302  22.577  0.00  0.00    +0.000 C 
ATOM     20  C   UNL     1       5.372  -4.816  22.691  0.00  0.00    +0.000 C 
ATOM     21  C   UNL     1       6.240  -5.315  23.839  0.00  0.00    +0.000 C 
ATOM     22  C   UNL     1       7.697  -4.892  23.678  0.00  0.00    +0.007 C 
ENDBRANCH  16  17
ENDBRANCH  15  16
ENDBRANCH   6  15
TORSDOF 5
ENDMDL
MODEL 8
REMARK VINA RESULT:      -5.4      2.108      2.709
REMARK  Name = 
REMARK  5 active torsions:
REMARK  status: ('A' for Active; 'I' for Inactive)
REMARK    1  A    between atoms: C_4  and  N_5
REMARK    2  A    between atoms: C_6  and  N_7
REMARK    3  A    between atoms: C_9  and  O_10
REMARK    4  A    between atoms: O_10  and  C_11
REMARK    5  A    between atoms: C_11  and  C_12
REMARK                            x       y       z     vdW  Elec       q    Type
REMARK                         _______ _______ _______ _____ _____    ______ ____
ROOT
ATOM      1  N   UNL     1       7.171  -5.587  27.461  0.00  0.00    -0.327 N 
ATOM      2  H   UNL     1       7.544  -4.675  27.690  0.00  0.00    +0.145 HD
ATOM      3  H   UNL     1       6.627  -6.052  28.171  0.00  0.00    +0.145 HD
ATOM      4  C   UNL     1       6.486  -5.551  26.266  0.00  0.00    +0.217 A 
ATOM      5  N   UNL     1       6.787  -4.586  25.393  0.00  0.00    -0.178 NA
ATOM      6  C   UNL     1       6.076  -4.600  24.244  0.00  0.00    +0.251 A 
ATOM      7  C   UNL     1       5.088  -5.531  23.934  0.00  0.00    +0.208 A 
ATOM      8  C   UNL     1       4.848  -6.459  24.941  0.00  0.00    +0.154 A 
ATOM      9  N   UNL     1       5.532  -6.473  26.101  0.00  0.00    -0.198 NA
ENDROOT
BRANCH   8  10
ATOM     10  N   UNL     1       3.815  -7.406  24.865  0.00  0.00    -0.341 N 
ATOM     11  H   UNL     1       3.785  -7.882  23.969  0.00  0.00    +0.144 HD
ATOM     12  H   UNL     1       3.894  -8.042  25.653  0.00  0.00    +0.144 HD
ENDBRANCH   8  10
BRANCH   7  13
ATOM     13  N   UNL     1       4.348  -5.525  22.763  0.00  0.00    -0.022 NA
ATOM     14  O   UNL     1       3.172  -5.184  22.936  0.00  0.00    -0.143 OA
ENDBRANCH   7  13
BRANCH   6  15
ATOM     15  O   UNL     1       6.289  -3.614  23.309  0.00  0.00    -0.474 OA
BRANCH  15  16
ATOM     16  C   UNL     1       7.545  -3.542  22.638  0.00  0.00    +0.234 C 
BRANCH  16  17
ATOM     17  C   UNL     1       7.842  -2.030  22.540  0.00  0.00    +0.027 C 
ATOM     18  C   UNL     1       9.256  -1.716  22.037  0.00  0.00    +0.007 C 
ATOM     19  C   UNL     1      10.317  -1.731  23.128  0.00  0.00    +0.000 C 
ATOM     20  C   UNL     1       9.936  -0.786  24.259  0.00  0.00    +0.000 C 
ATOM     21  C   UNL     1       8.611  -1.213  24.879  0.00  0.00    +0.000 C 
ATOM     22  C   UNL     1       7.490  -1.273  23.844  0.00  0.00    +0.007 C 
ENDBRANCH  16  17
ENDBRANCH  15  16
ENDBRANCH   6  15
TORSDOF 5
ENDMDL
MODEL 9
REMARK VINA RESULT:      -5.4      2.499      5.948
REMARK  Name = 
REMARK  5 active torsions:
REMARK  status: ('A' for Active; 'I' for Inactive)
REMARK    1  A    between atoms: C_4  and  N_5
REMARK    2  A    between atoms: C_6  and  N_7
REMARK    3  A    between atoms: C_9  and  O_10
REMARK    4  A    between atoms: O_10  and  C_11
REMARK    5  A    between atoms: C_11  and  C_12
REMARK                            x       y       z     vdW  Elec       q    Type
REMARK                         _______ _______ _______ _____ _____    ______ ____
ROOT
ATOM      1  N   UNL     1       6.070   1.099  23.531  0.00  0.00    -0.327 N 
ATOM      2  H   UNL     1       5.161   0.663  23.449  0.00  0.00    +0.145 HD
ATOM      3  H   UNL     1       6.227   1.686  24.336  0.00  0.00    +0.145 HD
ATOM      4  C   UNL     1       7.075   0.165  23.405  0.00  0.00    +0.217 A 
ATOM      5  N   UNL     1       6.806  -0.970  22.753  0.00  0.00    -0.178 NA
ATOM      6  C   UNL     1       7.829  -1.848  22.669  0.00  0.00    +0.251 A 
ATOM      7  C   UNL     1       9.098  -1.640  23.203  0.00  0.00    +0.208 A 
ATOM      8  C   UNL     1       9.235  -0.437  23.886  0.00  0.00    +0.154 A 
ATOM      9  N   UNL     1       8.237   0.460  23.995  0.00  0.00    -0.198 NA
ENDROOT
BRANCH   8  10
ATOM     10  N   UNL     1      10.402  -0.096  24.589  0.00  0.00    -0.341 N 
ATOM     11  H   UNL     1      11.220  -0.596  24.257  0.00  0.00    +0.144 HD
ATOM     12  H   UNL     1      10.514   0.914  24.568  0.00  0.00    +0.144 HD
ENDBRANCH   8  10
BRANCH   7  13
ATOM     13  N   UNL     1      10.136  -2.555  23.133  0.00  0.00    -0.022 NA
ATOM     14  O   UNL     1      10.196  -3.295  24.123  0.00  0.00    -0.143 OA
ENDBRANCH   7  13
BRANCH   6  15
ATOM     15  O   UNL     1       7.625  -3.062  22.056  0.00  0.00    -0.474 OA
BRANCH  15  16
ATOM     16  C   UNL     1       6.295  -3.546  21.881  0.00  0.00    +0.234 C 
BRANCH  16  17
ATOM     17  C   UNL     1       6.363  -5.024  22.324  0.00  0.00    +0.027 C 
ATOM     18  C   UNL     1       4.995  -5.622  22.669  0.00  0.00    +0.007 C 
ATOM     19  C   UNL     1       4.541  -5.342  24.095  0.00  0.00    +0.000 C 
ATOM     20  C   UNL     1       5.590  -5.810  25.093  0.00  0.00    +0.000 C 
ATOM     21  C   UNL     1       6.904  -5.075  24.860  0.00  0.00    +0.000 C 
ATOM     22  C   UNL     1       7.416  -5.260  23.434  0.00  0.00    +0.007 C 
ENDBRANCH  16  17
ENDBRANCH  15  16
ENDBRANCH   6  15
TORSDOF 5
ENDMDL
