MODEL 1
REMARK VINA RESULT:      -6.0      0.000      0.000
REMARK  Name = 
REMARK  3 active torsions:
REMARK  status: ('A' for Active; 'I' for Inactive)
REMARK    1  A    between atoms: O_1  and  C_2
REMARK    2  A    between atoms: C_2  and  C_4
REMARK    3  A    between atoms: C_7  and  C_9
REMARK                            x       y       z     vdW  Elec       q    Type
REMARK                         _______ _______ _______ _____ _____    ______ ____
ROOT
ATOM      1  C   UNL     1      12.040   5.169  23.165  0.00  0.00    +0.212 A 
ATOM      2  O   UNL     1      11.448   3.943  23.014  0.00  0.00    -0.448 OA
ATOM      3  C   UNL     1      10.233   3.987  23.634  0.00  0.00    +0.137 A 
ATOM      4  C   UNL     1      10.041   5.246  24.173  0.00  0.00    +0.051 A 
ATOM      5  C   UNL     1      11.197   6.004  23.867  0.00  0.00    +0.057 A 
ENDROOT
BRANCH   3   6
ATOM      6  C   UNL     1       9.393   2.792  23.534  0.00  0.00    +0.037 A 
ATOM      7  C   UNL     1       8.110   2.768  22.953  0.00  0.00    +0.052 A 
ATOM      8 CL   UNL     1       7.388   4.146  22.192  0.00  0.00    -0.083 Cl
ATOM      9  C   UNL     1       7.358   1.583  22.933  0.00  0.00    +0.022 A 
ATOM     10  C   UNL     1       7.874   0.408  23.478  0.00  0.00    +0.021 A 
ATOM     11  C   UNL     1       9.145   0.415  24.038  0.00  0.00    +0.042 A 
ATOM     12 CL   UNL     1       9.794  -1.031  24.706  0.00  0.00    -0.084 Cl
ATOM     13  C   UNL     1       9.899   1.589  24.066  0.00  0.00    +0.033 A 
ENDBRANCH   3   6
BRANCH   1  14
ATOM     14  C   UNL     1      13.350   5.383  22.599  0.00  0.00    +0.372 C 
ATOM     15  O   UNL     1      13.590   5.923  21.530  0.00  0.00    -0.242 OA
BRANCH  14  16
ATOM     16  O   UNL     1      14.323   4.906  23.418  0.00  0.00    -0.475 OA
ATOM     17  H   UNL     1      14.598   4.011  23.124  0.00  0.00    +0.296 HD
ENDBRANCH  14  16
ENDBRANCH   1  14
TORSDOF 3
ENDMDL
MODEL 2
REMARK VINA RESULT:      -5.9      3.086      5.611
REMARK  Name = 
REMARK  3 active torsions:
REMARK  status: ('A' for Active; 'I' for Inactive)
REMARK    1  A    between atoms: O_1  and  C_2
REMARK    2  A    between atoms: C_2  and  C_4
REMARK    3  A    between atoms: C_7  and  C_9
REMARK                            x       y       z     vdW  Elec       q    Type
REMARK                         _______ _______ _______ _____ _____    ______ ____
ROOT
ATOM      1  C   UNL     1       9.664  -0.357  23.028  0.00  0.00    +0.212 A 
ATOM      2  O   UNL     1       9.653   0.994  22.802  0.00  0.00    -0.448 OA
ATOM      3  C   UNL     1      10.142   1.607  23.919  0.00  0.00    +0.137 A 
ATOM      4  C   UNL     1      10.476   0.649  24.857  0.00  0.00    +0.051 A 
ATOM      5  C   UNL     1      10.175  -0.610  24.284  0.00  0.00    +0.057 A 
ENDROOT
BRANCH   3   6
ATOM      6  C   UNL     1      10.285   3.064  23.867  0.00  0.00    +0.037 A 
ATOM      7  C   UNL     1       9.291   3.975  24.276  0.00  0.00    +0.052 A 
ATOM      8 CL   UNL     1       7.788   3.485  24.985  0.00  0.00    -0.083 Cl
ATOM      9  C   UNL     1       9.499   5.358  24.157  0.00  0.00    +0.022 A 
ATOM     10  C   UNL     1      10.697   5.852  23.643  0.00  0.00    +0.021 A 
ATOM     11  C   UNL     1      11.691   4.963  23.253  0.00  0.00    +0.042 A 
ATOM     12 CL   UNL     1      13.176   5.562  22.625  0.00  0.00    -0.084 Cl
ATOM     13  C   UNL     1      11.492   3.586  23.364  0.00  0.00    +0.033 A 
ENDBRANCH   3   6
BRANCH   1  14
ATOM     14  C   UNL     1       9.184  -1.240  21.993  0.00  0.00    +0.372 C 
ATOM     15  O   UNL     1       8.565  -2.279  22.165  0.00  0.00    -0.242 OA
BRANCH  14  16
ATOM     16  O   UNL     1       9.503  -0.770  20.759  0.00  0.00    -0.475 OA
ATOM     17  H   UNL     1      10.424  -1.022  20.533  0.00  0.00    +0.296 HD
ENDBRANCH  14  16
ENDBRANCH   1  14
TORSDOF 3
ENDMDL
MODEL 3
REMARK VINA RESULT:      -5.9      4.281      6.458
REMARK  Name = 
REMARK  3 active torsions:
REMARK  status: ('A' for Active; 'I' for Inactive)
REMARK    1  A    between atoms: O_1  and  C_2
REMARK    2  A    between atoms: C_2  and  C_4
REMARK    3  A    between atoms: C_7  and  C_9
REMARK                            x       y       z     vdW  Elec       q    Type
REMARK                         _______ _______ _______ _____ _____    ______ ____
ROOT
ATOM      1  C   UNL     1       9.142   0.093  22.275  0.00  0.00    +0.212 A 
ATOM      2  O   UNL     1       8.176  -0.860  22.459  0.00  0.00    -0.448 OA
ATOM      3  C   UNL     1       8.779  -1.970  22.976  0.00  0.00    +0.137 A 
ATOM      4  C   UNL     1      10.130  -1.724  23.134  0.00  0.00    +0.051 A 
ATOM      5  C   UNL     1      10.362  -0.400  22.689  0.00  0.00    +0.057 A 
ENDROOT
BRANCH   3   6
ATOM      6  C   UNL     1       7.911  -3.098  23.319  0.00  0.00    +0.037 A 
ATOM      7  C   UNL     1       7.564  -3.463  24.635  0.00  0.00    +0.052 A 
ATOM      8 CL   UNL     1       8.055  -2.561  26.030  0.00  0.00    -0.083 Cl
ATOM      9  C   UNL     1       6.753  -4.584  24.875  0.00  0.00    +0.022 A 
ATOM     10  C   UNL     1       6.269  -5.346  23.813  0.00  0.00    +0.021 A 
ATOM     11  C   UNL     1       6.589  -4.985  22.510  0.00  0.00    +0.042 A 
ATOM     12 CL   UNL     1       5.990  -5.914  21.193  0.00  0.00    -0.084 Cl
ATOM     13  C   UNL     1       7.398  -3.875  22.262  0.00  0.00    +0.033 A 
ENDBRANCH   3   6
BRANCH   1  14
ATOM     14  C   UNL     1       8.762   1.372  21.726  0.00  0.00    +0.372 C 
ATOM     15  O   UNL     1       7.618   1.754  21.523  0.00  0.00    -0.242 OA
BRANCH  14  16
ATOM     16  O   UNL     1       9.851   2.136  21.456  0.00  0.00    -0.475 OA
ATOM     17  H   UNL     1       9.676   3.068  21.710  0.00  0.00    +0.296 HD
ENDBRANCH  14  16
ENDBRANCH   1  14
TORSDOF 3
ENDMDL
MODEL 4
REMARK VINA RESULT:      -5.8      3.289      5.681
REMARK  Name = 
REMARK  3 active torsions:
REMARK  status: ('A' for Active; 'I' for Inactive)
REMARK    1  A    between atoms: O_1  and  C_2
REMARK    2  A    between atoms: C_2  and  C_4
REMARK    3  A    between atoms: C_7  and  C_9
REMARK                            x       y       z     vdW  Elec       q    Type
REMARK                         _______ _______ _______ _____ _____    ______ ____
ROOT
ATOM      1  C   UNL     1       9.720  -0.759  23.273  0.00  0.00    +0.212 A 
ATOM      2  O   UNL     1       9.837   0.471  23.866  0.00  0.00    -0.448 OA
ATOM      3  C   UNL     1       9.841   1.411  22.876  0.00  0.00    +0.137 A 
ATOM      4  C   UNL     1       9.716   0.785  21.650  0.00  0.00    +0.051 A 
ATOM      5  C   UNL     1       9.633  -0.605  21.905  0.00  0.00    +0.057 A 
ENDROOT
BRANCH   3   6
ATOM      6  C   UNL     1       9.887   2.814  23.294  0.00  0.00    +0.037 A 
ATOM      7  C   UNL     1       8.762   3.562  23.695  0.00  0.00    +0.052 A 
ATOM      8 CL   UNL     1       7.173   2.886  23.830  0.00  0.00    -0.083 Cl
ATOM      9  C   UNL     1       8.893   4.914  24.045  0.00  0.00    +0.022 A 
ATOM     10  C   UNL     1      10.140   5.536  24.014  0.00  0.00    +0.021 A 
ATOM     11  C   UNL     1      11.260   4.804  23.638  0.00  0.00    +0.042 A 
ATOM     12 CL   UNL     1      12.805   5.559  23.605  0.00  0.00    -0.084 Cl
ATOM     13  C   UNL     1      11.139   3.460  23.284  0.00  0.00    +0.033 A 
ENDBRANCH   3   6
BRANCH   1  14
ATOM     14  C   UNL     1       9.699  -1.934  24.110  0.00  0.00    +0.372 C 
ATOM     15  O   UNL     1      10.208  -3.013  23.844  0.00  0.00    -0.242 OA
BRANCH  14  16
ATOM     16  O   UNL     1       9.033  -1.701  25.269  0.00  0.00    -0.475 OA
ATOM     17  H   UNL     1       9.650  -1.346  25.945  0.00  0.00    +0.296 HD
ENDBRANCH  14  16
ENDBRANCH   1  14
TORSDOF 3
ENDMDL
MODEL 5
REMARK VINA RESULT:      -5.8      6.793      9.958
REMARK  Name = 
REMARK  3 active torsions:
REMARK  status: ('A' for Active; 'I' for Inactive)
REMARK    1  A    between atoms: O_1  and  C_2
REMARK    2  A    between atoms: C_2  and  C_4
REMARK    3  A    between atoms: C_7  and  C_9
REMARK                            x       y       z     vdW  Elec       q    Type
REMARK                         _______ _______ _______ _____ _____    ______ ____
ROOT
ATOM      1  C   UNL     1       5.413  -5.693  22.730  0.00  0.00    +0.212 A 
ATOM      2  O   UNL     1       5.991  -4.582  23.285  0.00  0.00    -0.448 OA
ATOM      3  C   UNL     1       7.256  -4.476  22.783  0.00  0.00    +0.137 A 
ATOM      4  C   UNL     1       7.484  -5.513  21.898  0.00  0.00    +0.051 A 
ATOM      5  C   UNL     1       6.301  -6.290  21.860  0.00  0.00    +0.057 A 
ENDROOT
BRANCH   3   6
ATOM      6  C   UNL     1       8.037  -3.307  23.193  0.00  0.00    +0.037 A 
ATOM      7  C   UNL     1       8.539  -3.103  24.494  0.00  0.00    +0.052 A 
ATOM      8 CL   UNL     1       8.371  -4.264  25.768  0.00  0.00    -0.083 Cl
ATOM      9  C   UNL     1       9.248  -1.934  24.809  0.00  0.00    +0.022 A 
ATOM     10  C   UNL     1       9.477  -0.961  23.837  0.00  0.00    +0.021 A 
ATOM     11  C   UNL     1       9.002  -1.159  22.546  0.00  0.00    +0.042 A 
ATOM     12 CL   UNL     1       9.287   0.030  21.337  0.00  0.00    -0.084 Cl
ATOM     13  C   UNL     1       8.293  -2.317  22.224  0.00  0.00    +0.033 A 
ENDBRANCH   3   6
BRANCH   1  14
ATOM     14  C   UNL     1       4.062  -6.034  23.106  0.00  0.00    +0.372 C 
ATOM     15  O   UNL     1       3.069  -5.348  22.916  0.00  0.00    -0.242 OA
BRANCH  14  16
ATOM     16  O   UNL     1       4.012  -7.249  23.712  0.00  0.00    -0.475 OA
ATOM     17  H   UNL     1       3.667  -7.153  24.626  0.00  0.00    +0.296 HD
ENDBRANCH  14  16
ENDBRANCH   1  14
TORSDOF 3
ENDMDL
MODEL 6
REMARK VINA RESULT:      -5.7      5.420      8.298
REMARK  Name = 
REMARK  3 active torsions:
REMARK  status: ('A' for Active; 'I' for Inactive)
REMARK    1  A    between atoms: O_1  and  C_2
REMARK    2  A    between atoms: C_2  and  C_4
REMARK    3  A    between atoms: C_7  and  C_9
REMARK                            x       y       z     vdW  Elec       q    Type
REMARK                         _______ _______ _______ _____ _____    ______ ____
ROOT
ATOM      1  C   UNL     1       6.464  -4.088  22.280  0.00  0.00    +0.212 A 
ATOM      2  O   UNL     1       7.573  -3.317  22.504  0.00  0.00    -0.448 OA
ATOM      3  C   UNL     1       7.186  -2.233  23.238  0.00  0.00    +0.137 A 
ATOM      4  C   UNL     1       5.830  -2.316  23.495  0.00  0.00    +0.051 A 
ATOM      5  C   UNL     1       5.369  -3.508  22.885  0.00  0.00    +0.057 A 
ENDROOT
BRANCH   3   6
ATOM      6  C   UNL     1       8.238  -1.303  23.654  0.00  0.00    +0.037 A 
ATOM      7  C   UNL     1       8.847  -1.308  24.925  0.00  0.00    +0.052 A 
ATOM      8 CL   UNL     1       8.488  -2.484  26.144  0.00  0.00    -0.083 Cl
ATOM      9  C   UNL     1       9.824  -0.354  25.251  0.00  0.00    +0.022 A 
ATOM     10  C   UNL     1      10.215   0.606  24.318  0.00  0.00    +0.021 A 
ATOM     11  C   UNL     1       9.635   0.609  23.056  0.00  0.00    +0.042 A 
ATOM     12 CL   UNL     1      10.117   1.783  21.895  0.00  0.00    -0.084 Cl
ATOM     13  C   UNL     1       8.660  -0.333  22.723  0.00  0.00    +0.033 A 
ENDBRANCH   3   6
BRANCH   1  14
ATOM     14  C   UNL     1       6.604  -5.301  21.512  0.00  0.00    +0.372 C 
ATOM     15  O   UNL     1       6.004  -5.572  20.482  0.00  0.00    -0.242 OA
BRANCH  14  16
ATOM     16  O   UNL     1       7.513  -6.138  22.075  0.00  0.00    -0.475 OA
ATOM     17  H   UNL     1       7.948  -6.677  21.379  0.00  0.00    +0.296 HD
ENDBRANCH  14  16
ENDBRANCH   1  14
TORSDOF 3
ENDMDL
MODEL 7
REMARK VINA RESULT:      -5.6      4.426      6.124
REMARK  Name = 
REMARK  3 active torsions:
REMARK  status: ('A' for Active; 'I' for Inactive)
REMARK    1  A    between atoms: O_1  and  C_2
REMARK    2  A    between atoms: C_2  and  C_4
REMARK    3  A    between atoms: C_7  and  C_9
REMARK                            x       y       z     vdW  Elec       q    Type
REMARK                         _______ _______ _______ _____ _____    ______ ____
ROOT
ATOM      1  C   UNL     1       8.316   0.668  22.118  0.00  0.00    +0.212 A 
ATOM      2  O   UNL     1       7.769  -0.393  22.790  0.00  0.00    -0.448 OA
ATOM      3  C   UNL     1       8.548  -1.487  22.546  0.00  0.00    +0.137 A 
ATOM      4  C   UNL     1       9.601  -1.124  21.726  0.00  0.00    +0.051 A 
ATOM      5  C   UNL     1       9.455   0.258  21.457  0.00  0.00    +0.057 A 
ENDROOT
BRANCH   3   6
ATOM      6  C   UNL     1       8.182  -2.728  23.230  0.00  0.00    +0.037 A 
ATOM      7  C   UNL     1       6.943  -3.384  23.078  0.00  0.00    +0.052 A 
ATOM      8 CL   UNL     1       5.714  -2.847  21.983  0.00  0.00    -0.083 Cl
ATOM      9  C   UNL     1       6.662  -4.552  23.803  0.00  0.00    +0.022 A 
ATOM     10  C   UNL     1       7.608  -5.090  24.675  0.00  0.00    +0.021 A 
ATOM     11  C   UNL     1       8.839  -4.462  24.819  0.00  0.00    +0.042 A 
ATOM     12 CL   UNL     1      10.016  -5.122  25.885  0.00  0.00    -0.084 Cl
ATOM     13  C   UNL     1       9.127  -3.298  24.106  0.00  0.00    +0.033 A 
ENDBRANCH   3   6
BRANCH   1  14
ATOM     14  C   UNL     1       7.670   1.955  22.207  0.00  0.00    +0.372 C 
ATOM     15  O   UNL     1       6.498   2.151  22.492  0.00  0.00    -0.242 OA
BRANCH  14  16
ATOM     16  O   UNL     1       8.539   2.963  21.937  0.00  0.00    -0.475 OA
ATOM     17  H   UNL     1       8.572   3.125  20.970  0.00  0.00    +0.296 HD
ENDBRANCH  14  16
ENDBRANCH   1  14
TORSDOF 3
ENDMDL
MODEL 8
REMARK VINA RESULT:      -5.5      5.030      7.540
REMARK  Name = 
REMARK  3 active torsions:
REMARK  status: ('A' for Active; 'I' for Inactive)
REMARK    1  A    between atoms: O_1  and  C_2
REMARK    2  A    between atoms: C_2  and  C_4
REMARK    3  A    between atoms: C_7  and  C_9
REMARK                            x       y       z     vdW  Elec       q    Type
REMARK                         _______ _______ _______ _____ _____    ______ ____
ROOT
ATOM      1  C   UNL     1       8.498  -3.554  26.004  0.00  0.00    +0.212 A 
ATOM      2  O   UNL     1       8.961  -2.933  24.874  0.00  0.00    -0.448 OA
ATOM      3  C   UNL     1       8.541  -1.634  24.911  0.00  0.00    +0.137 A 
ATOM      4  C   UNL     1       7.818  -1.420  26.070  0.00  0.00    +0.051 A 
ATOM      5  C   UNL     1       7.796  -2.649  26.773  0.00  0.00    +0.057 A 
ENDROOT
BRANCH   3   6
ATOM      6  C   UNL     1       8.987  -0.761  23.823  0.00  0.00    +0.037 A 
ATOM      7  C   UNL     1       8.863  -1.071  22.454  0.00  0.00    +0.052 A 
ATOM      8 CL   UNL     1       8.077  -2.501  21.872  0.00  0.00    -0.083 Cl
ATOM      9  C   UNL     1       9.352  -0.190  21.477  0.00  0.00    +0.022 A 
ATOM     10  C   UNL     1       9.959   1.010  21.845  0.00  0.00    +0.021 A 
ATOM     11  C   UNL     1      10.070   1.334  23.192  0.00  0.00    +0.042 A 
ATOM     12 CL   UNL     1      10.808   2.816  23.657  0.00  0.00    -0.084 Cl
ATOM     13  C   UNL     1       9.590   0.464  24.171  0.00  0.00    +0.033 A 
ENDBRANCH   3   6
BRANCH   1  14
ATOM     14  C   UNL     1       8.802  -4.950  26.203  0.00  0.00    +0.372 C 
ATOM     15  O   UNL     1       8.035  -5.796  26.638  0.00  0.00    -0.242 OA
BRANCH  14  16
ATOM     16  O   UNL     1      10.078  -5.233  25.837  0.00  0.00    -0.475 OA
ATOM     17  H   UNL     1      10.684  -4.537  26.170  0.00  0.00    +0.296 HD
ENDBRANCH  14  16
ENDBRANCH   1  14
TORSDOF 3
ENDMDL
MODEL 9
REMARK VINA RESULT:      -5.5      5.423      8.025
REMARK  Name = 
REMARK  3 active torsions:
REMARK  status: ('A' for Active; 'I' for Inactive)
REMARK    1  A    between atoms: O_1  and  C_2
REMARK    2  A    between atoms: C_2  and  C_4
REMARK    3  A    between atoms: C_7  and  C_9
REMARK                            x       y       z     vdW  Elec       q    Type
REMARK                         _______ _______ _______ _____ _____    ______ ____
ROOT
ATOM      1  C   UNL     1       8.219  -4.605  24.592  0.00  0.00    +0.212 A 
ATOM      2  O   UNL     1       8.276  -3.242  24.716  0.00  0.00    -0.448 OA
ATOM      3  C   UNL     1       7.841  -2.699  23.541  0.00  0.00    +0.137 A 
ATOM      4  C   UNL     1       7.496  -3.714  22.669  0.00  0.00    +0.051 A 
ATOM      5  C   UNL     1       7.733  -4.935  23.345  0.00  0.00    +0.057 A 
ENDROOT
BRANCH   3   6
ATOM      6  C   UNL     1       7.753  -1.239  23.477  0.00  0.00    +0.037 A 
ATOM      7  C   UNL     1       6.709  -0.480  24.043  0.00  0.00    +0.052 A 
ATOM      8 CL   UNL     1       5.425  -1.178  24.973  0.00  0.00    -0.083 Cl
ATOM      9  C   UNL     1       6.685   0.917  23.902  0.00  0.00    +0.022 A 
ATOM     10  C   UNL     1       7.701   1.576  23.211  0.00  0.00    +0.021 A 
ATOM     11  C   UNL     1       8.745   0.840  22.665  0.00  0.00    +0.042 A 
ATOM     12 CL   UNL     1      10.008   1.644  21.818  0.00  0.00    -0.084 Cl
ATOM     13  C   UNL     1       8.776  -0.549  22.796  0.00  0.00    +0.033 A 
ENDBRANCH   3   6
BRANCH   1  14
ATOM     14  C   UNL     1       8.637  -5.421  25.706  0.00  0.00    +0.372 C 
ATOM     15  O   UNL     1       7.921  -5.813  26.616  0.00  0.00    -0.242 OA
BRANCH  14  16
ATOM     16  O   UNL     1       9.958  -5.724  25.627  0.00  0.00    -0.475 OA
ATOM     17  H   UNL     1      10.169  -6.067  24.732  0.00  0.00    +0.296 HD
ENDBRANCH  14  16
ENDBRANCH   1  14
TORSDOF 3
ENDMDL
