MODEL 1
REMARK VINA RESULT:      -5.6      0.000      0.000
REMARK  Name = 
REMARK  7 active torsions:
REMARK  status: ('A' for Active; 'I' for Inactive)
REMARK    1  A    between atoms: C_1  and  C_2
REMARK    2  A    between atoms: C_2  and  C_4
REMARK    3  A    between atoms: C_4  and  N_6
REMARK    4  A    between atoms: C_4  and  C_7
REMARK    5  A    between atoms: C_7  and  O_8
REMARK    6  A    between atoms: O_8  and  C_9
REMARK    7  A    between atoms: C_9  and  C_10
REMARK                            x       y       z     vdW  Elec       q    Type
REMARK                         _______ _______ _______ _____ _____    ______ ____
ROOT
ATOM      1  C   UNL     1       8.747  -3.643  24.533  0.00  0.00    +0.186 C 
ENDROOT
BRANCH   1   2
ATOM      2  C   UNL     1       9.114  -4.540  25.726  0.00  0.00    +0.143 C 
BRANCH   2   4
ATOM      3  C   UNL     1       6.655  -5.307  25.414  0.00  0.00    +0.087 C 
ATOM      4  C   UNL     1       7.855  -5.178  26.321  0.00  0.00    +0.149 C 
ATOM      5  O   UNL     1       7.824  -5.639  27.463  0.00  0.00    -0.296 OA
ENDBRANCH   2   4
BRANCH   2   6
ATOM      6  N   UNL     1      10.078  -5.585  25.312  0.00  0.00    -0.319 NA
ATOM      7  H   UNL     1      10.592  -5.860  26.155  0.00  0.00    +0.119 HD
ATOM      8  H   UNL     1       9.576  -6.419  25.015  0.00  0.00    +0.119 HD
ENDBRANCH   2   6
ENDBRANCH   1   2
BRANCH   1   9
ATOM      9  O   UNL     1       9.795  -2.684  24.350  0.00  0.00    -0.373 OA
BRANCH   9  10
ATOM     10  C   UNL     1       9.796  -2.153  23.024  0.00  0.00    +0.195 C 
BRANCH  10  11
ATOM     11  C   UNL     1       9.969  -0.654  23.071  0.00  0.00    -0.022 A 
ATOM     12  C   UNL     1       9.784   0.138  21.928  0.00  0.00    +0.006 A 
ATOM     13  C   UNL     1       9.956   1.521  21.983  0.00  0.00    +0.000 A 
ATOM     14  C   UNL     1      10.334   2.129  23.177  0.00  0.00    +0.000 A 
ATOM     15  C   UNL     1      10.547   1.354  24.315  0.00  0.00    +0.000 A 
ATOM     16  C   UNL     1      10.371  -0.032  24.262  0.00  0.00    +0.006 A 
ENDBRANCH  10  11
ENDBRANCH   9  10
ENDBRANCH   1   9
TORSDOF 6
ENDMDL
MODEL 2
REMARK VINA RESULT:      -5.3      2.706      2.833
REMARK  Name = 
REMARK  7 active torsions:
REMARK  status: ('A' for Active; 'I' for Inactive)
REMARK    1  A    between atoms: C_1  and  C_2
REMARK    2  A    between atoms: C_2  and  C_4
REMARK    3  A    between atoms: C_4  and  N_6
REMARK    4  A    between atoms: C_4  and  C_7
REMARK    5  A    between atoms: C_7  and  O_8
REMARK    6  A    between atoms: O_8  and  C_9
REMARK    7  A    between atoms: C_9  and  C_10
REMARK                            x       y       z     vdW  Elec       q    Type
REMARK                         _______ _______ _______ _____ _____    ______ ____
ROOT
ATOM      1  C   UNL     1       7.618  -2.628  22.800  0.00  0.00    +0.186 C 
ENDROOT
BRANCH   1   2
ATOM      2  C   UNL     1       6.895  -3.735  22.015  0.00  0.00    +0.143 C 
BRANCH   2   4
ATOM      3  C   UNL     1       6.564  -6.308  21.978  0.00  0.00    +0.087 C 
ATOM      4  C   UNL     1       7.278  -5.113  22.562  0.00  0.00    +0.149 C 
ATOM      5  O   UNL     1       8.179  -5.270  23.387  0.00  0.00    -0.296 OA
ENDBRANCH   2   4
BRANCH   2   6
ATOM      6  N   UNL     1       5.428  -3.542  22.077  0.00  0.00    -0.319 NA
ATOM      7  H   UNL     1       5.042  -4.376  22.531  0.00  0.00    +0.119 HD
ATOM      8  H   UNL     1       5.209  -2.767  22.700  0.00  0.00    +0.119 HD
ENDBRANCH   2   6
ENDBRANCH   1   2
BRANCH   1   9
ATOM      9  O   UNL     1       8.767  -2.218  22.048  0.00  0.00    -0.373 OA
BRANCH   9  10
ATOM     10  C   UNL     1       9.860  -1.880  22.902  0.00  0.00    +0.195 C 
BRANCH  10  11
ATOM     11  C   UNL     1      10.033  -0.380  22.946  0.00  0.00    -0.022 A 
ATOM     12  C   UNL     1       9.725   0.423  21.837  0.00  0.00    +0.006 A 
ATOM     13  C   UNL     1       9.898   1.805  21.887  0.00  0.00    +0.000 A 
ATOM     14  C   UNL     1      10.399   2.403  23.041  0.00  0.00    +0.000 A 
ATOM     15  C   UNL     1      10.735   1.617  24.141  0.00  0.00    +0.000 A 
ATOM     16  C   UNL     1      10.558   0.232  24.093  0.00  0.00    +0.006 A 
ENDBRANCH  10  11
ENDBRANCH   9  10
ENDBRANCH   1   9
TORSDOF 6
ENDMDL
MODEL 3
REMARK VINA RESULT:      -5.3      1.366      1.419
REMARK  Name = 
REMARK  7 active torsions:
REMARK  status: ('A' for Active; 'I' for Inactive)
REMARK    1  A    between atoms: C_1  and  C_2
REMARK    2  A    between atoms: C_2  and  C_4
REMARK    3  A    between atoms: C_4  and  N_6
REMARK    4  A    between atoms: C_4  and  C_7
REMARK    5  A    between atoms: C_7  and  O_8
REMARK    6  A    between atoms: O_8  and  C_9
REMARK    7  A    between atoms: C_9  and  C_10
REMARK                            x       y       z     vdW  Elec       q    Type
REMARK                         _______ _______ _______ _____ _____    ______ ____
ROOT
ATOM      1  C   UNL     1       8.849  -2.932  24.864  0.00  0.00    +0.186 C 
ENDROOT
BRANCH   1   2
ATOM      2  C   UNL     1       8.806  -4.457  25.057  0.00  0.00    +0.143 C 
BRANCH   2   4
ATOM      3  C   UNL     1       6.349  -4.919  24.365  0.00  0.00    +0.087 C 
ATOM      4  C   UNL     1       7.820  -5.091  24.073  0.00  0.00    +0.149 C 
ATOM      5  O   UNL     1       8.186  -5.657  23.042  0.00  0.00    -0.296 OA
ENDBRANCH   2   4
BRANCH   2   6
ATOM      6  N   UNL     1      10.156  -5.039  24.887  0.00  0.00    -0.319 NA
ATOM      7  H   UNL     1      10.021  -6.025  24.643  0.00  0.00    +0.119 HD
ATOM      8  H   UNL     1      10.614  -4.619  24.081  0.00  0.00    +0.119 HD
ENDBRANCH   2   6
ENDBRANCH   1   2
BRANCH   1   9
ATOM      9  O   UNL     1      10.029  -2.605  24.120  0.00  0.00    -0.373 OA
BRANCH   9  10
ATOM     10  C   UNL     1       9.709  -2.003  22.865  0.00  0.00    +0.195 C 
BRANCH  10  11
ATOM     11  C   UNL     1       9.940  -0.512  22.936  0.00  0.00    -0.022 A 
ATOM     12  C   UNL     1       9.677   0.321  21.839  0.00  0.00    +0.006 A 
ATOM     13  C   UNL     1       9.905   1.695  21.914  0.00  0.00    +0.000 A 
ATOM     14  C   UNL     1      10.416   2.252  23.084  0.00  0.00    +0.000 A 
ATOM     15  C   UNL     1      10.708   1.435  24.174  0.00  0.00    +0.000 A 
ATOM     16  C   UNL     1      10.476   0.059  24.099  0.00  0.00    +0.006 A 
ENDBRANCH  10  11
ENDBRANCH   9  10
ENDBRANCH   1   9
TORSDOF 6
ENDMDL
MODEL 4
REMARK VINA RESULT:      -5.2      1.788      2.552
REMARK  Name = 
REMARK  7 active torsions:
REMARK  status: ('A' for Active; 'I' for Inactive)
REMARK    1  A    between atoms: C_1  and  C_2
REMARK    2  A    between atoms: C_2  and  C_4
REMARK    3  A    between atoms: C_4  and  N_6
REMARK    4  A    between atoms: C_4  and  C_7
REMARK    5  A    between atoms: C_7  and  O_8
REMARK    6  A    between atoms: O_8  and  C_9
REMARK    7  A    between atoms: C_9  and  C_10
REMARK                            x       y       z     vdW  Elec       q    Type
REMARK                         _______ _______ _______ _____ _____    ______ ____
ROOT
ATOM      1  C   UNL     1       8.372  -2.557  24.209  0.00  0.00    +0.186 C 
ENDROOT
BRANCH   1   2
ATOM      2  C   UNL     1       7.975  -4.040  24.118  0.00  0.00    +0.143 C 
BRANCH   2   4
ATOM      3  C   UNL     1       7.293  -5.812  22.351  0.00  0.00    +0.087 C 
ATOM      4  C   UNL     1       7.411  -4.356  22.730  0.00  0.00    +0.149 C 
ATOM      5  O   UNL     1       6.995  -3.481  21.970  0.00  0.00    -0.296 OA
ENDBRANCH   2   4
BRANCH   2   6
ATOM      6  N   UNL     1       9.139  -4.907  24.415  0.00  0.00    -0.319 NA
ATOM      7  H   UNL     1       8.770  -5.852  24.562  0.00  0.00    +0.119 HD
ATOM      8  H   UNL     1       9.737  -4.973  23.594  0.00  0.00    +0.119 HD
ENDBRANCH   2   6
ENDBRANCH   1   2
BRANCH   1   9
ATOM      9  O   UNL     1       9.797  -2.463  24.100  0.00  0.00    -0.373 OA
BRANCH   9  10
ATOM     10  C   UNL     1      10.193  -1.924  22.839  0.00  0.00    +0.195 C 
BRANCH  10  11
ATOM     11  C   UNL     1      10.226  -0.416  22.913  0.00  0.00    -0.022 A 
ATOM     12  C   UNL     1      10.669   0.249  24.067  0.00  0.00    +0.006 A 
ATOM     13  C   UNL     1      10.685   1.642  24.127  0.00  0.00    +0.000 A 
ATOM     14  C   UNL     1      10.241   2.390  23.040  0.00  0.00    +0.000 A 
ATOM     15  C   UNL     1       9.774   1.746  21.896  0.00  0.00    +0.000 A 
ATOM     16  C   UNL     1       9.761   0.350  21.834  0.00  0.00    +0.006 A 
ENDBRANCH  10  11
ENDBRANCH   9  10
ENDBRANCH   1   9
TORSDOF 6
ENDMDL
MODEL 5
REMARK VINA RESULT:      -5.0      1.624      2.210
REMARK  Name = 
REMARK  7 active torsions:
REMARK  status: ('A' for Active; 'I' for Inactive)
REMARK    1  A    between atoms: C_1  and  C_2
REMARK    2  A    between atoms: C_2  and  C_4
REMARK    3  A    between atoms: C_4  and  N_6
REMARK    4  A    between atoms: C_4  and  C_7
REMARK    5  A    between atoms: C_7  and  O_8
REMARK    6  A    between atoms: O_8  and  C_9
REMARK    7  A    between atoms: C_9  and  C_10
REMARK                            x       y       z     vdW  Elec       q    Type
REMARK                         _______ _______ _______ _____ _____    ______ ____
ROOT
ATOM      1  C   UNL     1       7.778  -2.791  23.943  0.00  0.00    +0.186 C 
ENDROOT
BRANCH   1   2
ATOM      2  C   UNL     1       8.153  -4.268  23.742  0.00  0.00    +0.143 C 
BRANCH   2   4
ATOM      3  C   UNL     1       8.151  -5.256  26.140  0.00  0.00    +0.087 C 
ATOM      4  C   UNL     1       8.944  -4.786  24.945  0.00  0.00    +0.149 C 
ATOM      5  O   UNL     1      10.171  -4.894  24.933  0.00  0.00    -0.296 OA
ENDBRANCH   2   4
BRANCH   2   6
ATOM      6  N   UNL     1       6.937  -5.087  23.529  0.00  0.00    -0.319 NA
ATOM      7  H   UNL     1       6.930  -5.798  24.268  0.00  0.00    +0.119 HD
ATOM      8  H   UNL     1       6.107  -4.519  23.690  0.00  0.00    +0.119 HD
ENDBRANCH   2   6
ENDBRANCH   1   2
BRANCH   1   9
ATOM      9  O   UNL     1       8.094  -2.078  22.740  0.00  0.00    -0.373 OA
BRANCH   9  10
ATOM     10  C   UNL     1       9.503  -1.899  22.590  0.00  0.00    +0.195 C 
BRANCH  10  11
ATOM     11  C   UNL     1       9.865  -0.452  22.821  0.00  0.00    -0.022 A 
ATOM     12  C   UNL     1      10.361  -0.012  24.058  0.00  0.00    +0.006 A 
ATOM     13  C   UNL     1      10.682   1.330  24.262  0.00  0.00    +0.000 A 
ATOM     14  C   UNL     1      10.494   2.254  23.238  0.00  0.00    +0.000 A 
ATOM     15  C   UNL     1       9.977   1.839  22.012  0.00  0.00    +0.000 A 
ATOM     16  C   UNL     1       9.659   0.494  21.806  0.00  0.00    +0.006 A 
ENDBRANCH  10  11
ENDBRANCH   9  10
ENDBRANCH   1   9
TORSDOF 6
ENDMDL
MODEL 6
REMARK VINA RESULT:      -4.9      2.362      6.212
REMARK  Name = 
REMARK  7 active torsions:
REMARK  status: ('A' for Active; 'I' for Inactive)
REMARK    1  A    between atoms: C_1  and  C_2
REMARK    2  A    between atoms: C_2  and  C_4
REMARK    3  A    between atoms: C_4  and  N_6
REMARK    4  A    between atoms: C_4  and  C_7
REMARK    5  A    between atoms: C_7  and  O_8
REMARK    6  A    between atoms: O_8  and  C_9
REMARK    7  A    between atoms: C_9  and  C_10
REMARK                            x       y       z     vdW  Elec       q    Type
REMARK                         _______ _______ _______ _____ _____    ______ ____
ROOT
ATOM      1  C   UNL     1       9.662  -1.711  24.106  0.00  0.00    +0.186 C 
ENDROOT
BRANCH   1   2
ATOM      2  C   UNL     1       9.583  -0.861  22.827  0.00  0.00    +0.143 C 
BRANCH   2   4
ATOM      3  C   UNL     1       9.962   1.579  22.036  0.00  0.00    +0.087 C 
ATOM      4  C   UNL     1      10.253   0.497  23.047  0.00  0.00    +0.149 C 
ATOM      5  O   UNL     1      10.942   0.742  24.038  0.00  0.00    -0.296 OA
ENDBRANCH   2   4
BRANCH   2   6
ATOM      6  N   UNL     1      10.213  -1.574  21.692  0.00  0.00    -0.319 NA
ATOM      7  H   UNL     1       9.543  -1.539  20.917  0.00  0.00    +0.119 HD
ATOM      8  H   UNL     1      11.029  -1.056  21.371  0.00  0.00    +0.119 HD
ENDBRANCH   2   6
ENDBRANCH   1   2
BRANCH   1   9
ATOM      9  O   UNL     1       9.714  -3.092  23.728  0.00  0.00    -0.373 OA
BRANCH   9  10
ATOM     10  C   UNL     1       8.994  -3.915  24.646  0.00  0.00    +0.195 C 
BRANCH  10  11
ATOM     11  C   UNL     1       7.790  -4.518  23.961  0.00  0.00    -0.022 A 
ATOM     12  C   UNL     1       7.639  -4.459  22.567  0.00  0.00    +0.006 A 
ATOM     13  C   UNL     1       6.518  -5.011  21.947  0.00  0.00    +0.000 A 
ATOM     14  C   UNL     1       5.523  -5.612  22.714  0.00  0.00    +0.000 A 
ATOM     15  C   UNL     1       5.646  -5.655  24.101  0.00  0.00    +0.000 A 
ATOM     16  C   UNL     1       6.771  -5.106  24.723  0.00  0.00    +0.006 A 
ENDBRANCH  10  11
ENDBRANCH   9  10
ENDBRANCH   1   9
TORSDOF 6
ENDMDL
MODEL 7
REMARK VINA RESULT:      -4.8      2.994      5.891
REMARK  Name = 
REMARK  7 active torsions:
REMARK  status: ('A' for Active; 'I' for Inactive)
REMARK    1  A    between atoms: C_1  and  C_2
REMARK    2  A    between atoms: C_2  and  C_4
REMARK    3  A    between atoms: C_4  and  N_6
REMARK    4  A    between atoms: C_4  and  C_7
REMARK    5  A    between atoms: C_7  and  O_8
REMARK    6  A    between atoms: O_8  and  C_9
REMARK    7  A    between atoms: C_9  and  C_10
REMARK                            x       y       z     vdW  Elec       q    Type
REMARK                         _______ _______ _______ _____ _____    ______ ____
ROOT
ATOM      1  C   UNL     1       8.179  -0.512  24.546  0.00  0.00    +0.186 C 
ENDROOT
BRANCH   1   2
ATOM      2  C   UNL     1       9.704  -0.682  24.444  0.00  0.00    +0.143 C 
BRANCH   2   4
ATOM      3  C   UNL     1      10.002   0.466  22.137  0.00  0.00    +0.087 C 
ATOM      4  C   UNL     1      10.132  -0.781  22.978  0.00  0.00    +0.149 C 
ATOM      5  O   UNL     1      10.633  -1.801  22.502  0.00  0.00    -0.296 OA
ENDBRANCH   2   4
BRANCH   2   6
ATOM      6  N   UNL     1      10.397   0.443  25.112  0.00  0.00    -0.319 NA
ATOM      7  H   UNL     1      10.166   0.377  26.109  0.00  0.00    +0.119 HD
ATOM      8  H   UNL     1      11.404   0.308  25.057  0.00  0.00    +0.119 HD
ENDBRANCH   2   6
ENDBRANCH   1   2
BRANCH   1   9
ATOM      9  O   UNL     1       7.572  -1.806  24.441  0.00  0.00    -0.373 OA
BRANCH   9  10
ATOM     10  C   UNL     1       6.801  -1.929  23.245  0.00  0.00    +0.195 C 
BRANCH  10  11
ATOM     11  C   UNL     1       6.858  -3.352  22.742  0.00  0.00    -0.022 A 
ATOM     12  C   UNL     1       6.059  -3.780  21.671  0.00  0.00    +0.006 A 
ATOM     13  C   UNL     1       6.114  -5.099  21.223  0.00  0.00    +0.000 A 
ATOM     14  C   UNL     1       6.954  -6.014  21.852  0.00  0.00    +0.000 A 
ATOM     15  C   UNL     1       7.735  -5.611  22.933  0.00  0.00    +0.000 A 
ATOM     16  C   UNL     1       7.683  -4.288  23.381  0.00  0.00    +0.006 A 
ENDBRANCH  10  11
ENDBRANCH   9  10
ENDBRANCH   1   9
TORSDOF 6
ENDMDL
MODEL 8
REMARK VINA RESULT:      -4.8      2.496      3.031
REMARK  Name = 
REMARK  7 active torsions:
REMARK  status: ('A' for Active; 'I' for Inactive)
REMARK    1  A    between atoms: C_1  and  C_2
REMARK    2  A    between atoms: C_2  and  C_4
REMARK    3  A    between atoms: C_4  and  N_6
REMARK    4  A    between atoms: C_4  and  C_7
REMARK    5  A    between atoms: C_7  and  O_8
REMARK    6  A    between atoms: O_8  and  C_9
REMARK    7  A    between atoms: C_9  and  C_10
REMARK                            x       y       z     vdW  Elec       q    Type
REMARK                         _______ _______ _______ _____ _____    ______ ____
ROOT
ATOM      1  C   UNL     1       8.000  -3.139  22.871  0.00  0.00    +0.186 C 
ENDROOT
BRANCH   1   2
ATOM      2  C   UNL     1       6.855  -2.460  23.641  0.00  0.00    +0.143 C 
BRANCH   2   4
ATOM      3  C   UNL     1       8.371  -3.031  25.666  0.00  0.00    +0.087 C 
ATOM      4  C   UNL     1       7.282  -2.165  25.081  0.00  0.00    +0.149 C 
ATOM      5  O   UNL     1       6.825  -1.220  25.726  0.00  0.00    -0.296 OA
ENDBRANCH   2   4
BRANCH   2   6
ATOM      6  N   UNL     1       6.438  -1.214  22.957  0.00  0.00    -0.319 NA
ATOM      7  H   UNL     1       5.580  -1.437  22.442  0.00  0.00    +0.119 HD
ATOM      8  H   UNL     1       6.168  -0.517  23.648  0.00  0.00    +0.119 HD
ENDBRANCH   2   6
ENDBRANCH   1   2
BRANCH   1   9
ATOM      9  O   UNL     1       8.666  -2.144  22.084  0.00  0.00    -0.373 OA
BRANCH   9  10
ATOM     10  C   UNL     1       9.981  -1.878  22.576  0.00  0.00    +0.195 C 
BRANCH  10  11
ATOM     11  C   UNL     1      10.133  -0.404  22.863  0.00  0.00    -0.022 A 
ATOM     12  C   UNL     1      10.540   0.057  24.124  0.00  0.00    +0.006 A 
ATOM     13  C   UNL     1      10.667   1.422  24.379  0.00  0.00    +0.000 A 
ATOM     14  C   UNL     1      10.372   2.347  23.381  0.00  0.00    +0.000 A 
ATOM     15  C   UNL     1       9.942   1.907  22.131  0.00  0.00    +0.000 A 
ATOM     16  C   UNL     1       9.817   0.539  21.874  0.00  0.00    +0.006 A 
ENDBRANCH  10  11
ENDBRANCH   9  10
ENDBRANCH   1   9
TORSDOF 6
ENDMDL
MODEL 9
REMARK VINA RESULT:      -4.6      3.553      6.380
REMARK  Name = 
REMARK  7 active torsions:
REMARK  status: ('A' for Active; 'I' for Inactive)
REMARK    1  A    between atoms: C_1  and  C_2
REMARK    2  A    between atoms: C_2  and  C_4
REMARK    3  A    between atoms: C_4  and  N_6
REMARK    4  A    between atoms: C_4  and  C_7
REMARK    5  A    between atoms: C_7  and  O_8
REMARK    6  A    between atoms: O_8  and  C_9
REMARK    7  A    between atoms: C_9  and  C_10
REMARK                            x       y       z     vdW  Elec       q    Type
REMARK                         _______ _______ _______ _____ _____    ______ ____
ROOT
ATOM      1  C   UNL     1       8.329   0.741  22.578  0.00  0.00    +0.186 C 
ENDROOT
BRANCH   1   2
ATOM      2  C   UNL     1       8.806   2.193  22.411  0.00  0.00    +0.143 C 
BRANCH   2   4
ATOM      3  C   UNL     1       8.382   2.158  24.969  0.00  0.00    +0.087 C 
ATOM      4  C   UNL     1       9.000   2.851  23.779  0.00  0.00    +0.149 C 
ATOM      5  O   UNL     1       9.689   3.860  23.936  0.00  0.00    -0.296 OA
ENDBRANCH   2   4
BRANCH   2   6
ATOM      6  N   UNL     1      10.063   2.239  21.629  0.00  0.00    -0.319 NA
ATOM      7  H   UNL     1      10.690   2.883  22.122  0.00  0.00    +0.119 HD
ATOM      8  H   UNL     1      10.523   1.331  21.663  0.00  0.00    +0.119 HD
ENDBRANCH   2   6
ENDBRANCH   1   2
BRANCH   1   9
ATOM      9  O   UNL     1       9.465  -0.124  22.458  0.00  0.00    -0.373 OA
BRANCH   9  10
ATOM     10  C   UNL     1       9.143  -1.318  21.744  0.00  0.00    +0.195 C 
BRANCH  10  11
ATOM     11  C   UNL     1       8.821  -2.427  22.718  0.00  0.00    -0.022 A 
ATOM     12  C   UNL     1       9.635  -2.681  23.831  0.00  0.00    +0.006 A 
ATOM     13  C   UNL     1       9.332  -3.714  24.718  0.00  0.00    +0.000 A 
ATOM     14  C   UNL     1       8.218  -4.520  24.492  0.00  0.00    +0.000 A 
ATOM     15  C   UNL     1       7.413  -4.297  23.377  0.00  0.00    +0.000 A 
ATOM     16  C   UNL     1       7.715  -3.260  22.491  0.00  0.00    +0.006 A 
ENDBRANCH  10  11
ENDBRANCH   9  10
ENDBRANCH   1   9
TORSDOF 6
ENDMDL
