MODEL 1
REMARK VINA RESULT:      -6.8      0.000      0.000
REMARK  Name = 
REMARK  6 active torsions:
REMARK  status: ('A' for Active; 'I' for Inactive)
REMARK    1  A    between atoms: C_1  and  C_2
REMARK    2  A    between atoms: C_3  and  C_4
REMARK    3  A    between atoms: C_5  and  N_6
REMARK    4  A    between atoms: N_6  and  C_7
REMARK    5  A    between atoms: C_12  and  C_13
REMARK    6  A    between atoms: C_13  and  O_14
REMARK                            x       y       z     vdW  Elec       q    Type
REMARK                         _______ _______ _______ _____ _____    ______ ____
ROOT
ATOM      1  N   UNL     1      10.713   3.500  22.807  0.00  0.00    -0.314 N 
ATOM      2  H   UNL     1      11.453   3.359  22.126  0.00  0.00    +0.152 HD
ENDROOT
BRANCH   1   8
ATOM      3  C   UNL     1       6.875   0.478  23.799  0.00  0.00    +0.044 C 
ATOM      4  C   UNL     1       8.344   0.800  23.811  0.00  0.00    -0.046 A 
ATOM      5  C   UNL     1       9.154   0.075  24.695  0.00  0.00    +0.004 A 
ATOM      6  C   UNL     1      10.496   0.365  24.830  0.00  0.00    +0.002 A 
ATOM      7  C   UNL     1      11.027   1.457  24.145  0.00  0.00    +0.023 A 
ATOM      8  C   UNL     1      10.231   2.243  23.294  0.00  0.00    +0.035 A 
ATOM      9  C   UNL     1       8.920   1.814  22.999  0.00  0.00    -0.026 A 
ATOM     10  C   UNL     1       8.148   2.429  21.868  0.00  0.00    +0.046 C 
ENDBRANCH   1   8
BRANCH   1  11
ATOM     11  C   UNL     1      10.792   4.696  23.569  0.00  0.00    +0.045 A 
ATOM     12  C   UNL     1      11.948   5.493  23.626  0.00  0.00    +0.080 A 
ATOM     13  C   UNL     1      12.055   6.535  24.565  0.00  0.00    +0.017 A 
ATOM     14  C   UNL     1      10.978   6.852  25.393  0.00  0.00    +0.001 A 
ATOM     15  C   UNL     1       9.777   6.177  25.241  0.00  0.00    +0.002 A 
ATOM     16  C   UNL     1       9.681   5.130  24.323  0.00  0.00    +0.024 A 
BRANCH  12  17
ATOM     17  C   UNL     1      13.096   5.294  22.714  0.00  0.00    +0.339 C 
ATOM     18  O   UNL     1      13.009   5.317  21.499  0.00  0.00    -0.245 OA
BRANCH  17  19
ATOM     19  O   UNL     1      14.239   5.009  23.379  0.00  0.00    -0.477 OA
ATOM     20  H   UNL     1      14.747   5.805  23.642  0.00  0.00    +0.295 HD
ENDBRANCH  17  19
ENDBRANCH  12  17
ENDBRANCH   1  11
TORSDOF 4
ENDMDL
MODEL 2
REMARK VINA RESULT:      -6.5      4.978      8.043
REMARK  Name = 
REMARK  6 active torsions:
REMARK  status: ('A' for Active; 'I' for Inactive)
REMARK    1  A    between atoms: C_1  and  C_2
REMARK    2  A    between atoms: C_3  and  C_4
REMARK    3  A    between atoms: C_5  and  N_6
REMARK    4  A    between atoms: N_6  and  C_7
REMARK    5  A    between atoms: C_12  and  C_13
REMARK    6  A    between atoms: C_13  and  O_14
REMARK                            x       y       z     vdW  Elec       q    Type
REMARK                         _______ _______ _______ _____ _____    ______ ____
ROOT
ATOM      1  N   UNL     1       9.737  -2.263  23.609  0.00  0.00    -0.314 N 
ATOM      2  H   UNL     1      10.612  -2.680  23.306  0.00  0.00    +0.152 HD
ENDROOT
BRANCH   1   8
ATOM      3  C   UNL     1       8.286   2.278  25.065  0.00  0.00    +0.044 C 
ATOM      4  C   UNL     1       9.013   1.359  24.123  0.00  0.00    -0.046 A 
ATOM      5  C   UNL     1       9.321   1.858  22.849  0.00  0.00    +0.004 A 
ATOM      6  C   UNL     1       9.911   1.054  21.895  0.00  0.00    +0.002 A 
ATOM      7  C   UNL     1      10.115  -0.296  22.177  0.00  0.00    +0.023 A 
ATOM      8  C   UNL     1       9.767  -0.844  23.424  0.00  0.00    +0.035 A 
ATOM      9  C   UNL     1       9.363   0.025  24.460  0.00  0.00    -0.026 A 
ATOM     10  C   UNL     1       9.286  -0.459  25.880  0.00  0.00    +0.046 C 
ENDBRANCH   1   8
BRANCH   1  11
ATOM     11  C   UNL     1       8.583  -3.081  23.482  0.00  0.00    +0.045 A 
ATOM     12  C   UNL     1       8.395  -4.261  24.221  0.00  0.00    +0.080 A 
ATOM     13  C   UNL     1       7.355  -5.151  23.898  0.00  0.00    +0.017 A 
ATOM     14  C   UNL     1       6.436  -4.829  22.898  0.00  0.00    +0.001 A 
ATOM     15  C   UNL     1       6.515  -3.598  22.267  0.00  0.00    +0.002 A 
ATOM     16  C   UNL     1       7.561  -2.727  22.575  0.00  0.00    +0.024 A 
BRANCH  12  17
ATOM     17  C   UNL     1       9.258  -4.628  25.365  0.00  0.00    +0.339 C 
ATOM     18  O   UNL     1       8.966  -4.422  26.528  0.00  0.00    -0.245 OA
BRANCH  17  19
ATOM     19  O   UNL     1      10.442  -5.151  24.970  0.00  0.00    -0.477 OA
ATOM     20  H   UNL     1      11.003  -4.520  24.474  0.00  0.00    +0.295 HD
ENDBRANCH  17  19
ENDBRANCH  12  17
ENDBRANCH   1  11
TORSDOF 4
ENDMDL
MODEL 3
REMARK VINA RESULT:      -6.4      5.605      8.574
REMARK  Name = 
REMARK  6 active torsions:
REMARK  status: ('A' for Active; 'I' for Inactive)
REMARK    1  A    between atoms: C_1  and  C_2
REMARK    2  A    between atoms: C_3  and  C_4
REMARK    3  A    between atoms: C_5  and  N_6
REMARK    4  A    between atoms: N_6  and  C_7
REMARK    5  A    between atoms: C_12  and  C_13
REMARK    6  A    between atoms: C_13  and  O_14
REMARK                            x       y       z     vdW  Elec       q    Type
REMARK                         _______ _______ _______ _____ _____    ______ ____
ROOT
ATOM      1  N   UNL     1       7.390  -2.228  23.739  0.00  0.00    -0.314 N 
ATOM      2  H   UNL     1       7.627  -2.276  24.725  0.00  0.00    +0.152 HD
ENDROOT
BRANCH   1   8
ATOM      3  C   UNL     1       7.109   2.437  22.006  0.00  0.00    +0.044 C 
ATOM      4  C   UNL     1       7.859   1.155  22.243  0.00  0.00    -0.046 A 
ATOM      5  C   UNL     1       9.002   0.926  21.464  0.00  0.00    +0.004 A 
ATOM      6  C   UNL     1       9.700  -0.260  21.558  0.00  0.00    +0.002 A 
ATOM      7  C   UNL     1       9.202  -1.278  22.371  0.00  0.00    +0.023 A 
ATOM      8  C   UNL     1       8.027  -1.105  23.122  0.00  0.00    +0.035 A 
ATOM      9  C   UNL     1       7.441   0.177  23.184  0.00  0.00    -0.026 A 
ATOM     10  C   UNL     1       6.387   0.489  24.207  0.00  0.00    +0.046 C 
ENDBRANCH   1   8
BRANCH   1  11
ATOM     11  C   UNL     1       7.129  -3.472  23.104  0.00  0.00    +0.045 A 
ATOM     12  C   UNL     1       7.789  -4.663  23.452  0.00  0.00    +0.080 A 
ATOM     13  C   UNL     1       7.666  -5.811  22.649  0.00  0.00    +0.017 A 
ATOM     14  C   UNL     1       6.813  -5.812  21.545  0.00  0.00    +0.001 A 
ATOM     15  C   UNL     1       6.036  -4.696  21.280  0.00  0.00    +0.002 A 
ATOM     16  C   UNL     1       6.176  -3.551  22.066  0.00  0.00    +0.024 A 
BRANCH  12  17
ATOM     17  C   UNL     1       8.629  -4.781  24.664  0.00  0.00    +0.339 C 
ATOM     18  O   UNL     1       8.527  -4.051  25.634  0.00  0.00    -0.245 OA
BRANCH  17  19
ATOM     19  O   UNL     1       9.573  -5.742  24.545  0.00  0.00    -0.477 OA
ATOM     20  H   UNL     1       9.620  -6.136  23.649  0.00  0.00    +0.295 HD
ENDBRANCH  17  19
ENDBRANCH  12  17
ENDBRANCH   1  11
TORSDOF 4
ENDMDL
MODEL 4
REMARK VINA RESULT:      -6.1      5.358      8.406
REMARK  Name = 
REMARK  6 active torsions:
REMARK  status: ('A' for Active; 'I' for Inactive)
REMARK    1  A    between atoms: C_1  and  C_2
REMARK    2  A    between atoms: C_3  and  C_4
REMARK    3  A    between atoms: C_5  and  N_6
REMARK    4  A    between atoms: N_6  and  C_7
REMARK    5  A    between atoms: C_12  and  C_13
REMARK    6  A    between atoms: C_13  and  O_14
REMARK                            x       y       z     vdW  Elec       q    Type
REMARK                         _______ _______ _______ _____ _____    ______ ____
ROOT
ATOM      1  N   UNL     1       9.085  -2.467  23.985  0.00  0.00    -0.314 N 
ATOM      2  H   UNL     1      10.062  -2.642  23.770  0.00  0.00    +0.152 HD
ENDROOT
BRANCH   1   8
ATOM      3  C   UNL     1      10.334   2.237  22.908  0.00  0.00    +0.044 C 
ATOM      4  C   UNL     1       9.500   1.223  23.641  0.00  0.00    -0.046 A 
ATOM      5  C   UNL     1       8.823   1.657  24.790  0.00  0.00    +0.004 A 
ATOM      6  C   UNL     1       8.104   0.773  25.568  0.00  0.00    +0.002 A 
ATOM      7  C   UNL     1       8.133  -0.585  25.255  0.00  0.00    +0.023 A 
ATOM      8  C   UNL     1       8.848  -1.065  24.144  0.00  0.00    +0.035 A 
ATOM      9  C   UNL     1       9.401  -0.135  23.238  0.00  0.00    -0.026 A 
ATOM     10  C   UNL     1       9.893  -0.578  21.890  0.00  0.00    +0.046 C 
ENDBRANCH   1   8
BRANCH   1  11
ATOM     11  C   UNL     1       8.157  -3.398  23.448  0.00  0.00    +0.045 A 
ATOM     12  C   UNL     1       8.117  -4.749  23.832  0.00  0.00    +0.080 A 
ATOM     13  C   UNL     1       7.341  -5.676  23.114  0.00  0.00    +0.017 A 
ATOM     14  C   UNL     1       6.526  -5.251  22.064  0.00  0.00    +0.001 A 
ATOM     15  C   UNL     1       6.434  -3.899  21.774  0.00  0.00    +0.002 A 
ATOM     16  C   UNL     1       7.222  -2.984  22.475  0.00  0.00    +0.024 A 
BRANCH  12  17
ATOM     17  C   UNL     1       8.868  -5.266  24.998  0.00  0.00    +0.339 C 
ATOM     18  O   UNL     1       8.342  -5.683  26.013  0.00  0.00    -0.245 OA
BRANCH  17  19
ATOM     19  O   UNL     1      10.207  -5.155  24.838  0.00  0.00    -0.477 OA
ATOM     20  H   UNL     1      10.672  -4.844  25.642  0.00  0.00    +0.295 HD
ENDBRANCH  17  19
ENDBRANCH  12  17
ENDBRANCH   1  11
TORSDOF 4
ENDMDL
MODEL 5
REMARK VINA RESULT:      -6.0      6.124      8.907
REMARK  Name = 
REMARK  6 active torsions:
REMARK  status: ('A' for Active; 'I' for Inactive)
REMARK    1  A    between atoms: C_1  and  C_2
REMARK    2  A    between atoms: C_3  and  C_4
REMARK    3  A    between atoms: C_5  and  N_6
REMARK    4  A    between atoms: N_6  and  C_7
REMARK    5  A    between atoms: C_12  and  C_13
REMARK    6  A    between atoms: C_13  and  O_14
REMARK                            x       y       z     vdW  Elec       q    Type
REMARK                         _______ _______ _______ _____ _____    ______ ____
ROOT
ATOM      1  N   UNL     1       7.804  -3.139  22.433  0.00  0.00    -0.314 N 
ATOM      2  H   UNL     1       7.076  -3.291  21.742  0.00  0.00    +0.152 HD
ENDROOT
BRANCH   1   8
ATOM      3  C   UNL     1       6.637   1.691  22.825  0.00  0.00    +0.044 C 
ATOM      4  C   UNL     1       7.625   0.583  22.584  0.00  0.00    -0.046 A 
ATOM      5  C   UNL     1       8.817   0.916  21.926  0.00  0.00    +0.004 A 
ATOM      6  C   UNL     1       9.739  -0.054  21.591  0.00  0.00    +0.002 A 
ATOM      7  C   UNL     1       9.431  -1.393  21.828  0.00  0.00    +0.023 A 
ATOM      8  C   UNL     1       8.220  -1.769  22.433  0.00  0.00    +0.035 A 
ATOM      9  C   UNL     1       7.383  -0.765  22.963  0.00  0.00    -0.026 A 
ATOM     10  C   UNL     1       6.252  -1.116  23.886  0.00  0.00    +0.046 C 
ENDBRANCH   1   8
BRANCH   1  11
ATOM     11  C   UNL     1       7.758  -3.980  23.577  0.00  0.00    +0.045 A 
ATOM     12  C   UNL     1       6.657  -4.798  23.883  0.00  0.00    +0.080 A 
ATOM     13  C   UNL     1       6.561  -5.433  25.134  0.00  0.00    +0.017 A 
ATOM     14  C   UNL     1       7.603  -5.335  26.057  0.00  0.00    +0.001 A 
ATOM     15  C   UNL     1       8.763  -4.661  25.709  0.00  0.00    +0.002 A 
ATOM     16  C   UNL     1       8.846  -4.014  24.475  0.00  0.00    +0.024 A 
BRANCH  12  17
ATOM     17  C   UNL     1       5.558  -5.042  22.922  0.00  0.00    +0.339 C 
ATOM     18  O   UNL     1       4.942  -4.157  22.357  0.00  0.00    -0.245 OA
BRANCH  17  19
ATOM     19  O   UNL     1       5.265  -6.357  22.797  0.00  0.00    -0.477 OA
ATOM     20  H   UNL     1       5.109  -6.637  21.872  0.00  0.00    +0.295 HD
ENDBRANCH  17  19
ENDBRANCH  12  17
ENDBRANCH   1  11
TORSDOF 4
ENDMDL
MODEL 6
REMARK VINA RESULT:      -6.0      5.273      8.322
REMARK  Name = 
REMARK  6 active torsions:
REMARK  status: ('A' for Active; 'I' for Inactive)
REMARK    1  A    between atoms: C_1  and  C_2
REMARK    2  A    between atoms: C_3  and  C_4
REMARK    3  A    between atoms: C_5  and  N_6
REMARK    4  A    between atoms: N_6  and  C_7
REMARK    5  A    between atoms: C_12  and  C_13
REMARK    6  A    between atoms: C_13  and  O_14
REMARK                            x       y       z     vdW  Elec       q    Type
REMARK                         _______ _______ _______ _____ _____    ______ ____
ROOT
ATOM      1  N   UNL     1       9.477  -2.784  23.850  0.00  0.00    -0.314 N 
ATOM      2  H   UNL     1       9.807  -3.011  22.917  0.00  0.00    +0.152 HD
ENDROOT
BRANCH   1   8
ATOM      3  C   UNL     1      10.176   1.823  22.080  0.00  0.00    +0.044 C 
ATOM      4  C   UNL     1       9.672   0.869  23.128  0.00  0.00    -0.046 A 
ATOM      5  C   UNL     1       9.432   1.389  24.408  0.00  0.00    +0.004 A 
ATOM      6  C   UNL     1       9.049   0.568  25.448  0.00  0.00    +0.002 A 
ATOM      7  C   UNL     1       8.994  -0.810  25.240  0.00  0.00    +0.023 A 
ATOM      8  C   UNL     1       9.283  -1.372  23.985  0.00  0.00    +0.035 A 
ATOM      9  C   UNL     1       9.465  -0.514  22.880  0.00  0.00    -0.026 A 
ATOM     10  C   UNL     1       9.461  -1.055  21.479  0.00  0.00    +0.046 C 
ENDBRANCH   1   8
BRANCH   1  11
ATOM     11  C   UNL     1       8.696  -3.782  24.492  0.00  0.00    +0.045 A 
ATOM     12  C   UNL     1       7.541  -4.339  23.916  0.00  0.00    +0.080 A 
ATOM     13  C   UNL     1       6.679  -5.148  24.677  0.00  0.00    +0.017 A 
ATOM     14  C   UNL     1       7.006  -5.486  25.991  0.00  0.00    +0.001 A 
ATOM     15  C   UNL     1       8.218  -5.074  26.522  0.00  0.00    +0.002 A 
ATOM     16  C   UNL     1       9.061  -4.253  25.771  0.00  0.00    +0.024 A 
BRANCH  12  17
ATOM     17  C   UNL     1       7.174  -4.118  22.500  0.00  0.00    +0.339 C 
ATOM     18  O   UNL     1       6.767  -3.057  22.062  0.00  0.00    -0.245 OA
BRANCH  17  19
ATOM     19  O   UNL     1       7.272  -5.246  21.760  0.00  0.00    -0.477 OA
ATOM     20  H   UNL     1       6.958  -5.138  20.838  0.00  0.00    +0.295 HD
ENDBRANCH  17  19
ENDBRANCH  12  17
ENDBRANCH   1  11
TORSDOF 4
ENDMDL
MODEL 7
REMARK VINA RESULT:      -5.8      6.003      9.263
REMARK  Name = 
REMARK  6 active torsions:
REMARK  status: ('A' for Active; 'I' for Inactive)
REMARK    1  A    between atoms: C_1  and  C_2
REMARK    2  A    between atoms: C_3  and  C_4
REMARK    3  A    between atoms: C_5  and  N_6
REMARK    4  A    between atoms: N_6  and  C_7
REMARK    5  A    between atoms: C_12  and  C_13
REMARK    6  A    between atoms: C_13  and  O_14
REMARK                            x       y       z     vdW  Elec       q    Type
REMARK                         _______ _______ _______ _____ _____    ______ ____
ROOT
ATOM      1  N   UNL     1       8.001  -3.366  22.990  0.00  0.00    -0.314 N 
ATOM      2  H   UNL     1       8.075  -3.583  22.001  0.00  0.00    +0.152 HD
ENDROOT
BRANCH   1   8
ATOM      3  C   UNL     1      10.316   0.769  24.534  0.00  0.00    +0.044 C 
ATOM      4  C   UNL     1       9.111   0.049  23.993  0.00  0.00    -0.046 A 
ATOM      5  C   UNL     1       7.869   0.686  24.125  0.00  0.00    +0.004 A 
ATOM      6  C   UNL     1       6.704   0.060  23.732  0.00  0.00    +0.002 A 
ATOM      7  C   UNL     1       6.761  -1.260  23.286  0.00  0.00    +0.023 A 
ATOM      8  C   UNL     1       7.982  -1.950  23.195  0.00  0.00    +0.035 A 
ATOM      9  C   UNL     1       9.183  -1.237  23.395  0.00  0.00    -0.026 A 
ATOM     10  C   UNL     1      10.504  -1.835  23.004  0.00  0.00    +0.046 C 
ENDBRANCH   1   8
BRANCH   1  11
ATOM     11  C   UNL     1       7.303  -4.317  23.781  0.00  0.00    +0.045 A 
ATOM     12  C   UNL     1       6.219  -5.069  23.297  0.00  0.00    +0.080 A 
ATOM     13  C   UNL     1       5.420  -5.823  24.176  0.00  0.00    +0.017 A 
ATOM     14  C   UNL     1       5.748  -5.910  25.529  0.00  0.00    +0.001 A 
ATOM     15  C   UNL     1       6.904  -5.301  25.993  0.00  0.00    +0.002 A 
ATOM     16  C   UNL     1       7.682  -4.536  25.123  0.00  0.00    +0.024 A 
BRANCH  12  17
ATOM     17  C   UNL     1       5.865  -5.118  21.862  0.00  0.00    +0.339 C 
ATOM     18  O   UNL     1       5.681  -4.130  21.174  0.00  0.00    -0.245 OA
BRANCH  17  19
ATOM     19  O   UNL     1       5.696  -6.384  21.415  0.00  0.00    -0.477 OA
ATOM     20  H   UNL     1       6.424  -6.989  21.669  0.00  0.00    +0.295 HD
ENDBRANCH  17  19
ENDBRANCH  12  17
ENDBRANCH   1  11
TORSDOF 4
ENDMDL
MODEL 8
REMARK VINA RESULT:      -5.8      3.711      5.367
REMARK  Name = 
REMARK  6 active torsions:
REMARK  status: ('A' for Active; 'I' for Inactive)
REMARK    1  A    between atoms: C_1  and  C_2
REMARK    2  A    between atoms: C_3  and  C_4
REMARK    3  A    between atoms: C_5  and  N_6
REMARK    4  A    between atoms: N_6  and  C_7
REMARK    5  A    between atoms: C_12  and  C_13
REMARK    6  A    between atoms: C_13  and  O_14
REMARK                            x       y       z     vdW  Elec       q    Type
REMARK                         _______ _______ _______ _____ _____    ______ ____
ROOT
ATOM      1  N   UNL     1       7.582  -0.987  22.732  0.00  0.00    -0.314 N 
ATOM      2  H   UNL     1       7.726  -0.925  21.729  0.00  0.00    +0.152 HD
ENDROOT
BRANCH   1   8
ATOM      3  C   UNL     1       6.040  -5.486  24.225  0.00  0.00    +0.044 C 
ATOM      4  C   UNL     1       7.123  -4.475  23.970  0.00  0.00    -0.046 A 
ATOM      5  C   UNL     1       8.351  -4.673  24.617  0.00  0.00    +0.004 A 
ATOM      6  C   UNL     1       9.370  -3.749  24.505  0.00  0.00    +0.002 A 
ATOM      7  C   UNL     1       9.135  -2.560  23.817  0.00  0.00    +0.023 A 
ATOM      8  C   UNL     1       7.897  -2.301  23.205  0.00  0.00    +0.035 A 
ATOM      9  C   UNL     1       6.939  -3.335  23.143  0.00  0.00    -0.026 A 
ATOM     10  C   UNL     1       5.745  -3.222  22.239  0.00  0.00    +0.046 C 
ENDBRANCH   1   8
BRANCH   1  11
ATOM     11  C   UNL     1       7.781   0.214  23.463  0.00  0.00    +0.045 A 
ATOM     12  C   UNL     1       8.824   1.115  23.188  0.00  0.00    +0.080 A 
ATOM     13  C   UNL     1       9.117   2.166  24.076  0.00  0.00    +0.017 A 
ATOM     14  C   UNL     1       8.316   2.385  25.197  0.00  0.00    +0.001 A 
ATOM     15  C   UNL     1       7.191   1.602  25.398  0.00  0.00    +0.002 A 
ATOM     16  C   UNL     1       6.915   0.547  24.527  0.00  0.00    +0.024 A 
BRANCH  12  17
ATOM     17  C   UNL     1       9.655   1.018  21.968  0.00  0.00    +0.339 C 
ATOM     18  O   UNL     1      10.031  -0.034  21.484  0.00  0.00    -0.245 OA
BRANCH  17  19
ATOM     19  O   UNL     1      10.012   2.233  21.490  0.00  0.00    -0.477 OA
ATOM     20  H   UNL     1       9.279   2.883  21.485  0.00  0.00    +0.295 HD
ENDBRANCH  17  19
ENDBRANCH  12  17
ENDBRANCH   1  11
TORSDOF 4
ENDMDL
MODEL 9
REMARK VINA RESULT:      -5.7      6.131      9.441
REMARK  Name = 
REMARK  6 active torsions:
REMARK  status: ('A' for Active; 'I' for Inactive)
REMARK    1  A    between atoms: C_1  and  C_2
REMARK    2  A    between atoms: C_3  and  C_4
REMARK    3  A    between atoms: C_5  and  N_6
REMARK    4  A    between atoms: N_6  and  C_7
REMARK    5  A    between atoms: C_12  and  C_13
REMARK    6  A    between atoms: C_13  and  O_14
REMARK                            x       y       z     vdW  Elec       q    Type
REMARK                         _______ _______ _______ _____ _____    ______ ____
ROOT
ATOM      1  N   UNL     1       8.166  -3.644  24.504  0.00  0.00    -0.314 N 
ATOM      2  H   UNL     1       8.875  -3.923  23.833  0.00  0.00    +0.152 HD
ENDROOT
BRANCH   1   8
ATOM      3  C   UNL     1      10.871   0.542  24.542  0.00  0.00    +0.044 C 
ATOM      4  C   UNL     1       9.610  -0.222  24.835  0.00  0.00    -0.046 A 
ATOM      5  C   UNL     1       8.728   0.330  25.776  0.00  0.00    +0.004 A 
ATOM      6  C   UNL     1       7.590  -0.346  26.166  0.00  0.00    +0.002 A 
ATOM      7  C   UNL     1       7.369  -1.636  25.684  0.00  0.00    +0.023 A 
ATOM      8  C   UNL     1       8.261  -2.244  24.784  0.00  0.00    +0.035 A 
ATOM      9  C   UNL     1       9.302  -1.470  24.230  0.00  0.00    -0.026 A 
ATOM     10  C   UNL     1      10.078  -1.965  23.044  0.00  0.00    +0.046 C 
ENDBRANCH   1   8
BRANCH   1  11
ATOM     11  C   UNL     1       6.960  -4.393  24.477  0.00  0.00    +0.045 A 
ATOM     12  C   UNL     1       6.562  -5.244  25.523  0.00  0.00    +0.080 A 
ATOM     13  C   UNL     1       5.485  -6.133  25.354  0.00  0.00    +0.017 A 
ATOM     14  C   UNL     1       4.736  -6.118  24.177  0.00  0.00    +0.001 A 
ATOM     15  C   UNL     1       5.017  -5.177  23.199  0.00  0.00    +0.002 A 
ATOM     16  C   UNL     1       6.100  -4.311  23.361  0.00  0.00    +0.024 A 
BRANCH  12  17
ATOM     17  C   UNL     1       7.235  -5.251  26.840  0.00  0.00    +0.339 C 
ATOM     18  O   UNL     1       6.787  -4.707  27.833  0.00  0.00    -0.245 OA
BRANCH  17  19
ATOM     19  O   UNL     1       8.439  -5.866  26.801  0.00  0.00    -0.477 OA
ATOM     20  H   UNL     1       9.170  -5.278  26.519  0.00  0.00    +0.295 HD
ENDBRANCH  17  19
ENDBRANCH  12  17
ENDBRANCH   1  11
TORSDOF 4
ENDMDL
