MODEL 1
REMARK VINA RESULT:      -6.0      0.000      0.000
REMARK  Name = 
REMARK  13 active torsions:
REMARK  status: ('A' for Active; 'I' for Inactive)
REMARK    1  A    between atoms: C_1  and  O_2
REMARK    2  A    between atoms: O_2  and  C_3
REMARK    3  A    between atoms: C_4  and  O_5
REMARK    4  A    between atoms: O_5  and  C_6
REMARK    5  A    between atoms: C_7  and  O_8
REMARK    6  A    between atoms: O_8  and  C_9
REMARK    7  A    between atoms: C_12  and  C_13
REMARK    8  A    between atoms: C_13  and  C_14
REMARK    9  A    between atoms: C_17  and  N_18
REMARK   10  A    between atoms: N_23  and  C_24
REMARK   11  A    between atoms: C_24  and  C_25
REMARK   12  A    between atoms: C_25  and  C_26
REMARK   13  A    between atoms: C_26  and  C_27
REMARK                            x       y       z     vdW  Elec       q    Type
REMARK                         _______ _______ _______ _____ _____    ______ ____
ROOT
ATOM      1  C   UNL     1       8.416  -2.003  22.506  0.00  0.00    +0.116 A 
ATOM      2  N   UNL     1       9.287  -1.955  23.582  0.00  0.00    -0.312 N 
ATOM      3  C   UNL     1       9.796  -0.685  23.651  0.00  0.00    +0.166 A 
ATOM      4  C   UNL     1       9.133   0.027  22.670  0.00  0.00    +0.148 A 
ATOM      5  C   UNL     1       9.422   1.408  22.592  0.00  0.00    +0.147 A 
ATOM      6  N   UNL     1      10.350   1.927  23.427  0.00  0.00    -0.219 NA
ATOM      7  C   UNL     1      10.938   1.106  24.318  0.00  0.00    +0.225 A 
ATOM      8  N   UNL     1      10.718  -0.206  24.506  0.00  0.00    -0.216 NA
ATOM      9  N   UNL     1       8.293  -0.808  21.952  0.00  0.00    -0.227 NA
ENDROOT
BRANCH   5  10
ATOM     10  N   UNL     1       8.808   2.278  21.702  0.00  0.00    -0.341 N 
ATOM     11  H   UNL     1       8.973   2.002  20.743  0.00  0.00    +0.144 HD
ATOM     12  H   UNL     1       7.860   2.521  21.966  0.00  0.00    +0.144 HD
ENDBRANCH   5  10
BRANCH   1  13
ATOM     13  C   UNL     1       7.594  -3.216  22.136  0.00  0.00    +0.111 C 
BRANCH  13  16
ATOM     14  C   UNL     1       4.902  -2.540  24.678  0.00  0.00    +0.166 A 
ATOM     15  C   UNL     1       5.842  -2.389  23.667  0.00  0.00    +0.055 A 
ATOM     16  C   UNL     1       6.362  -3.495  22.983  0.00  0.00    -0.015 A 
ATOM     17  C   UNL     1       5.800  -4.772  23.232  0.00  0.00    +0.090 A 
ATOM     18 CL   UNL     1       6.540  -6.135  22.463  0.00  0.00    -0.079 Cl
ATOM     19  C   UNL     1       4.690  -4.907  24.103  0.00  0.00    +0.184 A 
ATOM     20  C   UNL     1       4.239  -3.768  24.818  0.00  0.00    +0.205 A 
BRANCH  14  22
ATOM     21  C   UNL     1       5.524  -1.417  26.663  0.00  0.00    +0.277 C 
ATOM     22  O   UNL     1       4.629  -1.519  25.554  0.00  0.00    -0.491 OA
ENDBRANCH  14  22
BRANCH  19  23
ATOM     23  O   UNL     1       3.912  -6.026  24.313  0.00  0.00    -0.490 OA
ATOM     24  C   UNL     1       4.314  -7.056  25.197  0.00  0.00    +0.277 C 
ENDBRANCH  19  23
BRANCH  20  25
ATOM     25  O   UNL     1       3.177  -3.964  25.683  0.00  0.00    -0.488 OA
ATOM     26  C   UNL     1       1.899  -3.600  25.163  0.00  0.00    +0.277 C 
ENDBRANCH  20  25
ENDBRANCH  13  16
ENDBRANCH   1  13
BRANCH   2  27
ATOM     27  C   UNL     1       9.646  -3.073  24.418  0.00  0.00    +0.126 C 
BRANCH  27  28
ATOM     28  C   UNL     1       8.741  -3.468  25.573  0.00  0.00    +0.034 C 
BRANCH  28  29
ATOM     29  C   UNL     1       8.427  -4.973  25.757  0.00  0.00    +0.090 C 
BRANCH  29  30
ATOM     30  C   UNL     1       7.304  -4.927  26.781  0.00  0.00    -0.106 C 
ATOM     31  C   UNL     1       6.341  -4.887  27.658  0.00  0.00    +0.004 C 
ENDBRANCH  29  30
ENDBRANCH  28  29
ENDBRANCH  27  28
ENDBRANCH   2  27
TORSDOF 10
ENDMDL
MODEL 2
REMARK VINA RESULT:      -5.9      2.305      3.917
REMARK  Name = 
REMARK  13 active torsions:
REMARK  status: ('A' for Active; 'I' for Inactive)
REMARK    1  A    between atoms: C_1  and  O_2
REMARK    2  A    between atoms: O_2  and  C_3
REMARK    3  A    between atoms: C_4  and  O_5
REMARK    4  A    between atoms: O_5  and  C_6
REMARK    5  A    between atoms: C_7  and  O_8
REMARK    6  A    between atoms: O_8  and  C_9
REMARK    7  A    between atoms: C_12  and  C_13
REMARK    8  A    between atoms: C_13  and  C_14
REMARK    9  A    between atoms: C_17  and  N_18
REMARK   10  A    between atoms: N_23  and  C_24
REMARK   11  A    between atoms: C_24  and  C_25
REMARK   12  A    between atoms: C_25  and  C_26
REMARK   13  A    between atoms: C_26  and  C_27
REMARK                            x       y       z     vdW  Elec       q    Type
REMARK                         _______ _______ _______ _____ _____    ______ ____
ROOT
ATOM      1  C   UNL     1       6.380  -1.728  24.372  0.00  0.00    +0.116 A 
ATOM      2  N   UNL     1       6.881  -2.178  23.162  0.00  0.00    -0.312 N 
ATOM      3  C   UNL     1       8.103  -1.587  22.971  0.00  0.00    +0.166 A 
ATOM      4  C   UNL     1       8.347  -0.872  24.127  0.00  0.00    +0.148 A 
ATOM      5  C   UNL     1       9.603  -0.230  24.215  0.00  0.00    +0.147 A 
ATOM      6  N   UNL     1      10.448  -0.307  23.163  0.00  0.00    -0.219 NA
ATOM      7  C   UNL     1      10.065  -1.018  22.085  0.00  0.00    +0.225 A 
ATOM      8  N   UNL     1       8.918  -1.695  21.906  0.00  0.00    -0.216 NA
ATOM      9  N   UNL     1       7.261  -0.951  24.982  0.00  0.00    -0.227 NA
ENDROOT
BRANCH   5  10
ATOM     10  N   UNL     1      10.031   0.483  25.326  0.00  0.00    -0.341 N 
ATOM     11  H   UNL     1      10.753   1.148  25.081  0.00  0.00    +0.144 HD
ATOM     12  H   UNL     1       9.272   0.807  25.914  0.00  0.00    +0.144 HD
ENDBRANCH   5  10
BRANCH   1  13
ATOM     13  C   UNL     1       5.080  -2.203  24.979  0.00  0.00    +0.111 C 
BRANCH  13  16
ATOM     14  C   UNL     1       6.673  -5.078  26.815  0.00  0.00    +0.166 A 
ATOM     15  C   UNL     1       6.447  -3.841  26.223  0.00  0.00    +0.055 A 
ATOM     16  C   UNL     1       5.153  -3.416  25.895  0.00  0.00    -0.015 A 
ATOM     17  C   UNL     1       4.053  -4.203  26.317  0.00  0.00    +0.090 A 
ATOM     18 CL   UNL     1       2.475  -3.715  25.797  0.00  0.00    -0.079 Cl
ATOM     19  C   UNL     1       4.262  -5.355  27.114  0.00  0.00    +0.184 A 
ATOM     20  C   UNL     1       5.592  -5.779  27.368  0.00  0.00    +0.205 A 
BRANCH  14  22
ATOM     21  C   UNL     1       8.981  -4.773  26.403  0.00  0.00    +0.277 C 
ATOM     22  O   UNL     1       7.928  -5.631  26.847  0.00  0.00    -0.491 OA
ENDBRANCH  14  22
BRANCH  19  23
ATOM     23  O   UNL     1       3.314  -6.121  27.759  0.00  0.00    -0.490 OA
ATOM     24  C   UNL     1       2.578  -5.620  28.860  0.00  0.00    +0.277 C 
ENDBRANCH  19  23
BRANCH  20  25
ATOM     25  O   UNL     1       5.738  -6.932  28.119  0.00  0.00    -0.488 OA
ATOM     26  C   UNL     1       6.211  -6.731  29.450  0.00  0.00    +0.277 C 
ENDBRANCH  20  25
ENDBRANCH  13  16
ENDBRANCH   1  13
BRANCH   2  27
ATOM     27  C   UNL     1       6.193  -3.049  22.243  0.00  0.00    +0.126 C 
BRANCH  27  28
ATOM     28  C   UNL     1       6.757  -4.428  21.949  0.00  0.00    +0.034 C 
BRANCH  28  29
ATOM     29  C   UNL     1       6.574  -5.525  23.027  0.00  0.00    +0.090 C 
BRANCH  29  30
ATOM     30  C   UNL     1       5.063  -5.694  23.036  0.00  0.00    -0.106 C 
ATOM     31  C   UNL     1       3.767  -5.839  23.043  0.00  0.00    +0.004 C 
ENDBRANCH  29  30
ENDBRANCH  28  29
ENDBRANCH  27  28
ENDBRANCH   2  27
TORSDOF 10
ENDMDL
MODEL 3
REMARK VINA RESULT:      -5.8      2.123      3.395
REMARK  Name = 
REMARK  13 active torsions:
REMARK  status: ('A' for Active; 'I' for Inactive)
REMARK    1  A    between atoms: C_1  and  O_2
REMARK    2  A    between atoms: O_2  and  C_3
REMARK    3  A    between atoms: C_4  and  O_5
REMARK    4  A    between atoms: O_5  and  C_6
REMARK    5  A    between atoms: C_7  and  O_8
REMARK    6  A    between atoms: O_8  and  C_9
REMARK    7  A    between atoms: C_12  and  C_13
REMARK    8  A    between atoms: C_13  and  C_14
REMARK    9  A    between atoms: C_17  and  N_18
REMARK   10  A    between atoms: N_23  and  C_24
REMARK   11  A    between atoms: C_24  and  C_25
REMARK   12  A    between atoms: C_25  and  C_26
REMARK   13  A    between atoms: C_26  and  C_27
REMARK                            x       y       z     vdW  Elec       q    Type
REMARK                         _______ _______ _______ _____ _____    ______ ____
ROOT
ATOM      1  C   UNL     1       8.706  -2.928  24.686  0.00  0.00    +0.116 A 
ATOM      2  N   UNL     1       8.064  -1.853  25.277  0.00  0.00    -0.312 N 
ATOM      3  C   UNL     1       8.269  -0.756  24.480  0.00  0.00    +0.166 A 
ATOM      4  C   UNL     1       8.947  -1.230  23.375  0.00  0.00    +0.148 A 
ATOM      5  C   UNL     1       9.207  -0.294  22.348  0.00  0.00    +0.147 A 
ATOM      6  N   UNL     1       8.833   0.992  22.530  0.00  0.00    -0.219 NA
ATOM      7  C   UNL     1       8.202   1.318  23.675  0.00  0.00    +0.225 A 
ATOM      8  N   UNL     1       7.873   0.511  24.697  0.00  0.00    -0.216 NA
ATOM      9  N   UNL     1       9.231  -2.577  23.523  0.00  0.00    -0.227 NA
ENDROOT
BRANCH   5  10
ATOM     10  N   UNL     1       9.829  -0.614  21.149  0.00  0.00    -0.341 N 
ATOM     11  H   UNL     1       9.598   0.054  20.425  0.00  0.00    +0.144 HD
ATOM     12  H   UNL     1      10.803  -0.873  21.257  0.00  0.00    +0.144 HD
ENDBRANCH   5  10
BRANCH   1  13
ATOM     13  C   UNL     1       8.657  -4.341  25.221  0.00  0.00    +0.111 C 
BRANCH  13  16
ATOM     14  C   UNL     1       5.715  -5.657  23.276  0.00  0.00    +0.166 A 
ATOM     15  C   UNL     1       6.984  -5.215  23.629  0.00  0.00    +0.055 A 
ATOM     16  C   UNL     1       7.379  -5.127  24.970  0.00  0.00    -0.015 A 
ATOM     17  C   UNL     1       6.514  -5.643  25.967  0.00  0.00    +0.090 A 
ATOM     18 CL   UNL     1       6.974  -5.413  27.620  0.00  0.00    -0.079 Cl
ATOM     19  C   UNL     1       5.311  -6.295  25.601  0.00  0.00    +0.184 A 
ATOM     20  C   UNL     1       4.925  -6.306  24.236  0.00  0.00    +0.205 A 
BRANCH  14  22
ATOM     21  C   UNL     1       6.124  -5.729  20.949  0.00  0.00    +0.277 C 
ATOM     22  O   UNL     1       5.215  -5.449  22.015  0.00  0.00    -0.491 OA
ENDBRANCH  14  22
BRANCH  19  23
ATOM     23  O   UNL     1       4.456  -7.010  26.414  0.00  0.00    -0.490 OA
ATOM     24  C   UNL     1       3.663  -6.374  27.400  0.00  0.00    +0.277 C 
ENDBRANCH  19  23
BRANCH  20  25
ATOM     25  O   UNL     1       3.723  -6.923  23.941  0.00  0.00    -0.488 OA
ATOM     26  C   UNL     1       2.612  -6.041  23.790  0.00  0.00    +0.277 C 
ENDBRANCH  20  25
ENDBRANCH  13  16
ENDBRANCH   1  13
BRANCH   2  27
ATOM     27  C   UNL     1       7.377  -1.881  26.543  0.00  0.00    +0.126 C 
BRANCH  27  28
ATOM     28  C   UNL     1       5.858  -1.919  26.573  0.00  0.00    +0.034 C 
BRANCH  28  29
ATOM     29  C   UNL     1       5.122  -2.282  25.260  0.00  0.00    +0.090 C 
BRANCH  29  30
ATOM     30  C   UNL     1       3.771  -2.741  25.785  0.00  0.00    -0.106 C 
ATOM     31  C   UNL     1       2.612  -3.134  26.235  0.00  0.00    +0.004 C 
ENDBRANCH  29  30
ENDBRANCH  28  29
ENDBRANCH  27  28
ENDBRANCH   2  27
TORSDOF 10
ENDMDL
MODEL 4
REMARK VINA RESULT:      -5.8      1.980      3.136
REMARK  Name = 
REMARK  13 active torsions:
REMARK  status: ('A' for Active; 'I' for Inactive)
REMARK    1  A    between atoms: C_1  and  O_2
REMARK    2  A    between atoms: O_2  and  C_3
REMARK    3  A    between atoms: C_4  and  O_5
REMARK    4  A    between atoms: O_5  and  C_6
REMARK    5  A    between atoms: C_7  and  O_8
REMARK    6  A    between atoms: O_8  and  C_9
REMARK    7  A    between atoms: C_12  and  C_13
REMARK    8  A    between atoms: C_13  and  C_14
REMARK    9  A    between atoms: C_17  and  N_18
REMARK   10  A    between atoms: N_23  and  C_24
REMARK   11  A    between atoms: C_24  and  C_25
REMARK   12  A    between atoms: C_25  and  C_26
REMARK   13  A    between atoms: C_26  and  C_27
REMARK                            x       y       z     vdW  Elec       q    Type
REMARK                         _______ _______ _______ _____ _____    ______ ____
ROOT
ATOM      1  C   UNL     1       9.674  -1.318  24.209  0.00  0.00    +0.116 A 
ATOM      2  N   UNL     1       9.056  -0.563  25.192  0.00  0.00    -0.312 N 
ATOM      3  C   UNL     1       9.020   0.736  24.759  0.00  0.00    +0.166 A 
ATOM      4  C   UNL     1       9.530   0.708  23.476  0.00  0.00    +0.148 A 
ATOM      5  C   UNL     1       9.521   1.931  22.769  0.00  0.00    +0.147 A 
ATOM      6  N   UNL     1       9.075   3.043  23.396  0.00  0.00    -0.219 NA
ATOM      7  C   UNL     1       8.631   2.927  24.663  0.00  0.00    +0.225 A 
ATOM      8  N   UNL     1       8.560   1.816  25.416  0.00  0.00    -0.216 NA
ATOM      9  N   UNL     1       9.952  -0.571  23.153  0.00  0.00    -0.227 NA
ENDROOT
BRANCH   5  10
ATOM     10  N   UNL     1       9.946   2.068  21.455  0.00  0.00    -0.341 N 
ATOM     11  H   UNL     1      10.571   2.857  21.350  0.00  0.00    +0.144 HD
ATOM     12  H   UNL     1      10.218   1.192  21.026  0.00  0.00    +0.144 HD
ENDBRANCH   5  10
BRANCH   1  13
ATOM     13  C   UNL     1       9.844  -2.818  24.275  0.00  0.00    +0.111 C 
BRANCH  13  16
ATOM     14  C   UNL     1       6.356  -3.950  23.427  0.00  0.00    +0.166 A 
ATOM     15  C   UNL     1       7.658  -3.475  23.334  0.00  0.00    +0.055 A 
ATOM     16  C   UNL     1       8.575  -3.650  24.379  0.00  0.00    -0.015 A 
ATOM     17  C   UNL     1       8.200  -4.457  25.481  0.00  0.00    +0.090 A 
ATOM     18 CL   UNL     1       9.306  -4.559  26.810  0.00  0.00    -0.079 Cl
ATOM     19  C   UNL     1       6.952  -5.127  25.486  0.00  0.00    +0.184 A 
ATOM     20  C   UNL     1       6.034  -4.870  24.435  0.00  0.00    +0.205 A 
BRANCH  14  22
ATOM     21  C   UNL     1       5.688  -3.648  21.180  0.00  0.00    +0.277 C 
ATOM     22  O   UNL     1       5.378  -3.516  22.568  0.00  0.00    -0.491 OA
ENDBRANCH  14  22
BRANCH  19  23
ATOM     23  O   UNL     1       6.509  -6.085  26.374  0.00  0.00    -0.490 OA
ATOM     24  C   UNL     1       6.086  -5.747  27.682  0.00  0.00    +0.277 C 
ENDBRANCH  19  23
BRANCH  20  25
ATOM     25  O   UNL     1       4.815  -5.521  24.509  0.00  0.00    -0.488 OA
ATOM     26  C   UNL     1       4.657  -6.613  23.605  0.00  0.00    +0.277 C 
ENDBRANCH  20  25
ENDBRANCH  13  16
ENDBRANCH   1  13
BRANCH   2  27
ATOM     27  C   UNL     1       8.609  -1.058  26.470  0.00  0.00    +0.126 C 
BRANCH  27  28
ATOM     28  C   UNL     1       7.122  -1.130  26.770  0.00  0.00    +0.034 C 
BRANCH  28  29
ATOM     29  C   UNL     1       6.140  -0.969  25.582  0.00  0.00    +0.090 C 
BRANCH  29  30
ATOM     30  C   UNL     1       4.960  -1.806  26.047  0.00  0.00    -0.106 C 
ATOM     31  C   UNL     1       3.948  -2.525  26.446  0.00  0.00    +0.004 C 
ENDBRANCH  29  30
ENDBRANCH  28  29
ENDBRANCH  27  28
ENDBRANCH   2  27
TORSDOF 10
ENDMDL
MODEL 5
REMARK VINA RESULT:      -5.6      2.850      4.934
REMARK  Name = 
REMARK  13 active torsions:
REMARK  status: ('A' for Active; 'I' for Inactive)
REMARK    1  A    between atoms: C_1  and  O_2
REMARK    2  A    between atoms: O_2  and  C_3
REMARK    3  A    between atoms: C_4  and  O_5
REMARK    4  A    between atoms: O_5  and  C_6
REMARK    5  A    between atoms: C_7  and  O_8
REMARK    6  A    between atoms: O_8  and  C_9
REMARK    7  A    between atoms: C_12  and  C_13
REMARK    8  A    between atoms: C_13  and  C_14
REMARK    9  A    between atoms: C_17  and  N_18
REMARK   10  A    between atoms: N_23  and  C_24
REMARK   11  A    between atoms: C_24  and  C_25
REMARK   12  A    between atoms: C_25  and  C_26
REMARK   13  A    between atoms: C_26  and  C_27
REMARK                            x       y       z     vdW  Elec       q    Type
REMARK                         _______ _______ _______ _____ _____    ______ ____
ROOT
ATOM      1  C   UNL     1       7.413   0.105  23.221  0.00  0.00    +0.116 A 
ATOM      2  N   UNL     1       7.590   1.274  22.499  0.00  0.00    -0.312 N 
ATOM      3  C   UNL     1       6.624   2.161  22.899  0.00  0.00    +0.166 A 
ATOM      4  C   UNL     1       5.953   1.530  23.928  0.00  0.00    +0.148 A 
ATOM      5  C   UNL     1       4.949   2.283  24.577  0.00  0.00    +0.147 A 
ATOM      6  N   UNL     1       4.673   3.527  24.125  0.00  0.00    -0.219 NA
ATOM      7  C   UNL     1       5.391   4.004  23.090  0.00  0.00    +0.225 A 
ATOM      8  N   UNL     1       6.387   3.397  22.423  0.00  0.00    -0.216 NA
ATOM      9  N   UNL     1       6.440   0.246  24.106  0.00  0.00    -0.227 NA
ENDROOT
BRANCH   5  10
ATOM     10  N   UNL     1       4.217   1.823  25.663  0.00  0.00    -0.341 N 
ATOM     11  H   UNL     1       4.772   1.823  26.509  0.00  0.00    +0.144 HD
ATOM     12  H   UNL     1       3.283   2.212  25.713  0.00  0.00    +0.144 HD
ENDBRANCH   5  10
BRANCH   1  13
ATOM     13  C   UNL     1       8.325  -1.097  23.123  0.00  0.00    +0.111 C 
BRANCH  13  16
ATOM     14  C   UNL     1       6.323  -4.268  22.797  0.00  0.00    +0.166 A 
ATOM     15  C   UNL     1       7.128  -3.170  22.519  0.00  0.00    +0.055 A 
ATOM     16  C   UNL     1       7.741  -2.437  23.543  0.00  0.00    -0.015 A 
ATOM     17  C   UNL     1       7.653  -2.923  24.871  0.00  0.00    +0.090 A 
ATOM     18 CL   UNL     1       8.317  -1.936  26.129  0.00  0.00    -0.079 Cl
ATOM     19  C   UNL     1       7.018  -4.161  25.139  0.00  0.00    +0.184 A 
ATOM     20  C   UNL     1       6.360  -4.836  24.079  0.00  0.00    +0.205 A 
BRANCH  14  22
ATOM     21  C   UNL     1       6.086  -5.691  20.925  0.00  0.00    +0.277 C 
ATOM     22  O   UNL     1       5.478  -4.788  21.850  0.00  0.00    -0.491 OA
ENDBRANCH  14  22
BRANCH  19  23
ATOM     23  O   UNL     1       7.004  -4.865  26.325  0.00  0.00    -0.490 OA
ATOM     24  C   UNL     1       6.259  -4.422  27.444  0.00  0.00    +0.277 C 
ENDBRANCH  19  23
BRANCH  20  25
ATOM     25  O   UNL     1       5.724  -6.021  24.404  0.00  0.00    -0.488 OA
ATOM     26  C   UNL     1       4.320  -5.910  24.630  0.00  0.00    +0.277 C 
ENDBRANCH  20  25
ENDBRANCH  13  16
ENDBRANCH   1  13
BRANCH   2  27
ATOM     27  C   UNL     1       8.568   1.476  21.461  0.00  0.00    +0.126 C 
BRANCH  27  28
ATOM     28  C   UNL     1      10.003   1.808  21.834  0.00  0.00    +0.034 C 
BRANCH  28  29
ATOM     29  C   UNL     1      10.240   2.599  23.144  0.00  0.00    +0.090 C 
BRANCH  29  30
ATOM     30  C   UNL     1      10.670   1.493  24.094  0.00  0.00    -0.106 C 
ATOM     31  C   UNL     1      11.039   0.545  24.909  0.00  0.00    +0.004 C 
ENDBRANCH  29  30
ENDBRANCH  28  29
ENDBRANCH  27  28
ENDBRANCH   2  27
TORSDOF 10
ENDMDL
MODEL 6
REMARK VINA RESULT:      -5.6      1.966      3.262
REMARK  Name = 
REMARK  13 active torsions:
REMARK  status: ('A' for Active; 'I' for Inactive)
REMARK    1  A    between atoms: C_1  and  O_2
REMARK    2  A    between atoms: O_2  and  C_3
REMARK    3  A    between atoms: C_4  and  O_5
REMARK    4  A    between atoms: O_5  and  C_6
REMARK    5  A    between atoms: C_7  and  O_8
REMARK    6  A    between atoms: O_8  and  C_9
REMARK    7  A    between atoms: C_12  and  C_13
REMARK    8  A    between atoms: C_13  and  C_14
REMARK    9  A    between atoms: C_17  and  N_18
REMARK   10  A    between atoms: N_23  and  C_24
REMARK   11  A    between atoms: C_24  and  C_25
REMARK   12  A    between atoms: C_25  and  C_26
REMARK   13  A    between atoms: C_26  and  C_27
REMARK                            x       y       z     vdW  Elec       q    Type
REMARK                         _______ _______ _______ _____ _____    ______ ____
ROOT
ATOM      1  C   UNL     1       9.322  -0.949  24.650  0.00  0.00    +0.116 A 
ATOM      2  N   UNL     1       8.580  -0.126  25.481  0.00  0.00    -0.312 N 
ATOM      3  C   UNL     1       8.575   1.128  24.929  0.00  0.00    +0.166 A 
ATOM      4  C   UNL     1       9.233   0.998  23.722  0.00  0.00    +0.148 A 
ATOM      5  C   UNL     1       9.288   2.153  22.909  0.00  0.00    +0.147 A 
ATOM      6  N   UNL     1       8.753   3.304  23.376  0.00  0.00    -0.219 NA
ATOM      7  C   UNL     1       8.165   3.290  24.588  0.00  0.00    +0.225 A 
ATOM      8  N   UNL     1       8.024   2.250  25.427  0.00  0.00    -0.216 NA
ATOM      9  N   UNL     1       9.710  -0.293  23.568  0.00  0.00    -0.227 NA
ENDROOT
BRANCH   5  10
ATOM     10  N   UNL     1       9.863   2.184  21.646  0.00  0.00    -0.341 N 
ATOM     11  H   UNL     1       9.458   2.914  21.074  0.00  0.00    +0.144 HD
ATOM     12  H   UNL     1      10.872   2.103  21.661  0.00  0.00    +0.144 HD
ENDBRANCH   5  10
BRANCH   1  13
ATOM     13  C   UNL     1       9.507  -2.433  24.872  0.00  0.00    +0.111 C 
BRANCH  13  16
ATOM     14  C   UNL     1       6.954  -5.103  25.595  0.00  0.00    +0.166 A 
ATOM     15  C   UNL     1       7.861  -4.059  25.733  0.00  0.00    +0.055 A 
ATOM     16  C   UNL     1       8.296  -3.320  24.626  0.00  0.00    -0.015 A 
ATOM     17  C   UNL     1       7.680  -3.552  23.371  0.00  0.00    +0.090 A 
ATOM     18 CL   UNL     1       8.320  -2.711  21.999  0.00  0.00    -0.079 Cl
ATOM     19  C   UNL     1       6.601  -4.463  23.262  0.00  0.00    +0.184 A 
ATOM     20  C   UNL     1       6.236  -5.231  24.398  0.00  0.00    +0.205 A 
BRANCH  14  22
ATOM     21  C   UNL     1       6.404  -5.469  27.865  0.00  0.00    +0.277 C 
ATOM     22  O   UNL     1       6.769  -6.020  26.598  0.00  0.00    -0.491 OA
ENDBRANCH  14  22
BRANCH  19  23
ATOM     23  O   UNL     1       5.775  -4.669  22.177  0.00  0.00    -0.490 OA
ATOM     24  C   UNL     1       6.171  -5.480  21.085  0.00  0.00    +0.277 C 
ENDBRANCH  19  23
BRANCH  20  25
ATOM     25  O   UNL     1       5.200  -6.132  24.225  0.00  0.00    -0.488 OA
ATOM     26  C   UNL     1       3.941  -5.714  24.750  0.00  0.00    +0.277 C 
ENDBRANCH  20  25
ENDBRANCH  13  16
ENDBRANCH   1  13
BRANCH   2  27
ATOM     27  C   UNL     1       7.994  -0.517  26.738  0.00  0.00    +0.126 C 
BRANCH  27  28
ATOM     28  C   UNL     1       6.483  -0.542  26.887  0.00  0.00    +0.034 C 
BRANCH  28  29
ATOM     29  C   UNL     1       5.649  -1.039  25.679  0.00  0.00    +0.090 C 
BRANCH  29  30
ATOM     30  C   UNL     1       4.703  -2.024  26.347  0.00  0.00    -0.106 C 
ATOM     31  C   UNL     1       3.891  -2.868  26.919  0.00  0.00    +0.004 C 
ENDBRANCH  29  30
ENDBRANCH  28  29
ENDBRANCH  27  28
ENDBRANCH   2  27
TORSDOF 10
ENDMDL
MODEL 7
REMARK VINA RESULT:      -5.6      2.807      4.736
REMARK  Name = 
REMARK  13 active torsions:
REMARK  status: ('A' for Active; 'I' for Inactive)
REMARK    1  A    between atoms: C_1  and  O_2
REMARK    2  A    between atoms: O_2  and  C_3
REMARK    3  A    between atoms: C_4  and  O_5
REMARK    4  A    between atoms: O_5  and  C_6
REMARK    5  A    between atoms: C_7  and  O_8
REMARK    6  A    between atoms: O_8  and  C_9
REMARK    7  A    between atoms: C_12  and  C_13
REMARK    8  A    between atoms: C_13  and  C_14
REMARK    9  A    between atoms: C_17  and  N_18
REMARK   10  A    between atoms: N_23  and  C_24
REMARK   11  A    between atoms: C_24  and  C_25
REMARK   12  A    between atoms: C_25  and  C_26
REMARK   13  A    between atoms: C_26  and  C_27
REMARK                            x       y       z     vdW  Elec       q    Type
REMARK                         _______ _______ _______ _____ _____    ______ ____
ROOT
ATOM      1  C   UNL     1       7.104   0.071  23.216  0.00  0.00    +0.116 A 
ATOM      2  N   UNL     1       7.392   1.253  22.554  0.00  0.00    -0.312 N 
ATOM      3  C   UNL     1       6.547   2.218  23.036  0.00  0.00    +0.166 A 
ATOM      4  C   UNL     1       5.840   1.608  24.054  0.00  0.00    +0.148 A 
ATOM      5  C   UNL     1       4.948   2.430  24.779  0.00  0.00    +0.147 A 
ATOM      6  N   UNL     1       4.803   3.721  24.406  0.00  0.00    -0.219 NA
ATOM      7  C   UNL     1       5.540   4.175  23.374  0.00  0.00    +0.225 A 
ATOM      8  N   UNL     1       6.439   3.499  22.639  0.00  0.00    -0.216 NA
ATOM      9  N   UNL     1       6.180   0.269  24.143  0.00  0.00    -0.227 NA
ENDROOT
BRANCH   5  10
ATOM     10  N   UNL     1       4.201   1.992  25.864  0.00  0.00    -0.341 N 
ATOM     11  H   UNL     1       4.110   0.984  25.866  0.00  0.00    +0.144 HD
ATOM     12  H   UNL     1       4.453   2.444  26.735  0.00  0.00    +0.144 HD
ENDBRANCH   5  10
BRANCH   1  13
ATOM     13  C   UNL     1       7.868  -1.218  23.019  0.00  0.00    +0.111 C 
BRANCH  13  16
ATOM     14  C   UNL     1       8.042  -3.929  25.624  0.00  0.00    +0.166 A 
ATOM     15  C   UNL     1       8.176  -2.719  24.955  0.00  0.00    +0.055 A 
ATOM     16  C   UNL     1       7.404  -2.422  23.825  0.00  0.00    -0.015 A 
ATOM     17  C   UNL     1       6.368  -3.316  23.456  0.00  0.00    +0.090 A 
ATOM     18 CL   UNL     1       5.510  -2.985  21.990  0.00  0.00    -0.079 Cl
ATOM     19  C   UNL     1       6.080  -4.446  24.261  0.00  0.00    +0.184 A 
ATOM     20  C   UNL     1       6.927  -4.737  25.361  0.00  0.00    +0.205 A 
BRANCH  14  22
ATOM     21  C   UNL     1      10.063  -5.113  25.949  0.00  0.00    +0.277 C 
ATOM     22  O   UNL     1       8.993  -4.356  26.517  0.00  0.00    -0.491 OA
ENDBRANCH  14  22
BRANCH  19  23
ATOM     23  O   UNL     1       5.005  -5.305  24.159  0.00  0.00    -0.490 OA
ATOM     24  C   UNL     1       3.679  -4.867  24.391  0.00  0.00    +0.277 C 
ENDBRANCH  19  23
BRANCH  20  25
ATOM     25  O   UNL     1       6.623  -5.874  26.089  0.00  0.00    -0.488 OA
ATOM     26  C   UNL     1       6.004  -5.635  27.352  0.00  0.00    +0.277 C 
ENDBRANCH  20  25
ENDBRANCH  13  16
ENDBRANCH   1  13
BRANCH   2  27
ATOM     27  C   UNL     1       8.355   1.403  21.493  0.00  0.00    +0.126 C 
BRANCH  27  28
ATOM     28  C   UNL     1       9.827   1.571  21.832  0.00  0.00    +0.034 C 
BRANCH  28  29
ATOM     29  C   UNL     1      10.185   2.402  23.089  0.00  0.00    +0.090 C 
BRANCH  29  30
ATOM     30  C   UNL     1      10.475   1.309  24.104  0.00  0.00    -0.106 C 
ATOM     31  C   UNL     1      10.723   0.371  24.975  0.00  0.00    +0.004 C 
ENDBRANCH  29  30
ENDBRANCH  28  29
ENDBRANCH  27  28
ENDBRANCH   2  27
TORSDOF 10
ENDMDL
MODEL 8
REMARK VINA RESULT:      -5.6      2.570      4.510
REMARK  Name = 
REMARK  13 active torsions:
REMARK  status: ('A' for Active; 'I' for Inactive)
REMARK    1  A    between atoms: C_1  and  O_2
REMARK    2  A    between atoms: O_2  and  C_3
REMARK    3  A    between atoms: C_4  and  O_5
REMARK    4  A    between atoms: O_5  and  C_6
REMARK    5  A    between atoms: C_7  and  O_8
REMARK    6  A    between atoms: O_8  and  C_9
REMARK    7  A    between atoms: C_12  and  C_13
REMARK    8  A    between atoms: C_13  and  C_14
REMARK    9  A    between atoms: C_17  and  N_18
REMARK   10  A    between atoms: N_23  and  C_24
REMARK   11  A    between atoms: C_24  and  C_25
REMARK   12  A    between atoms: C_25  and  C_26
REMARK   13  A    between atoms: C_26  and  C_27
REMARK                            x       y       z     vdW  Elec       q    Type
REMARK                         _______ _______ _______ _____ _____    ______ ____
ROOT
ATOM      1  C   UNL     1       7.306  -1.623  24.507  0.00  0.00    +0.116 A 
ATOM      2  N   UNL     1       7.732  -0.821  23.461  0.00  0.00    -0.312 N 
ATOM      3  C   UNL     1       6.965   0.314  23.466  0.00  0.00    +0.166 A 
ATOM      4  C   UNL     1       6.161   0.206  24.585  0.00  0.00    +0.148 A 
ATOM      5  C   UNL     1       5.324   1.309  24.865  0.00  0.00    +0.147 A 
ATOM      6  N   UNL     1       5.318   2.357  24.010  0.00  0.00    -0.219 NA
ATOM      7  C   UNL     1       6.136   2.313  22.941  0.00  0.00    +0.225 A 
ATOM      8  N   UNL     1       6.996   1.339  22.596  0.00  0.00    -0.216 NA
ATOM      9  N   UNL     1       6.368  -1.011  25.212  0.00  0.00    -0.227 NA
ENDROOT
BRANCH   5  10
ATOM     10  N   UNL     1       4.495   1.389  25.976  0.00  0.00    -0.341 N 
ATOM     11  H   UNL     1       3.817   0.638  25.984  0.00  0.00    +0.144 HD
ATOM     12  H   UNL     1       4.992   1.584  26.836  0.00  0.00    +0.144 HD
ENDBRANCH   5  10
BRANCH   1  13
ATOM     13  C   UNL     1       7.950  -2.937  24.884  0.00  0.00    +0.111 C 
BRANCH  13  16
ATOM     14  C   UNL     1       5.746  -5.498  23.224  0.00  0.00    +0.166 A 
ATOM     15  C   UNL     1       6.740  -4.558  23.468  0.00  0.00    +0.055 A 
ATOM     16  C   UNL     1       7.085  -4.183  24.773  0.00  0.00    -0.015 A 
ATOM     17  C   UNL     1       6.509  -4.891  25.857  0.00  0.00    +0.090 A 
ATOM     18 CL   UNL     1       6.862  -4.330  27.456  0.00  0.00    -0.079 Cl
ATOM     19  C   UNL     1       5.659  -5.998  25.616  0.00  0.00    +0.184 A 
ATOM     20  C   UNL     1       5.291  -6.301  24.279  0.00  0.00    +0.205 A 
BRANCH  14  22
ATOM     21  C   UNL     1       6.123  -5.775  20.907  0.00  0.00    +0.277 C 
ATOM     22  O   UNL     1       5.188  -5.635  21.978  0.00  0.00    -0.491 OA
ENDBRANCH  14  22
BRANCH  19  23
ATOM     23  O   UNL     1       5.167  -6.903  26.534  0.00  0.00    -0.490 OA
ATOM     24  C   UNL     1       4.191  -6.535  27.491  0.00  0.00    +0.277 C 
ENDBRANCH  19  23
BRANCH  20  25
ATOM     25  O   UNL     1       4.428  -7.368  24.105  0.00  0.00    -0.488 OA
ATOM     26  C   UNL     1       3.048  -7.019  24.000  0.00  0.00    +0.277 C 
ENDBRANCH  20  25
ENDBRANCH  13  16
ENDBRANCH   1  13
BRANCH   2  27
ATOM     27  C   UNL     1       8.748  -1.170  22.500  0.00  0.00    +0.126 C 
BRANCH  27  28
ATOM     28  C   UNL     1      10.175  -0.694  22.709  0.00  0.00    +0.034 C 
BRANCH  28  29
ATOM     29  C   UNL     1      10.523  -0.041  24.069  0.00  0.00    +0.090 C 
BRANCH  29  30
ATOM     30  C   UNL     1      10.499   1.437  23.714  0.00  0.00    -0.106 C 
ATOM     31  C   UNL     1      10.479   2.704  23.408  0.00  0.00    +0.004 C 
ENDBRANCH  29  30
ENDBRANCH  28  29
ENDBRANCH  27  28
ENDBRANCH   2  27
TORSDOF 10
ENDMDL
MODEL 9
REMARK VINA RESULT:      -5.6      3.871      6.946
REMARK  Name = 
REMARK  13 active torsions:
REMARK  status: ('A' for Active; 'I' for Inactive)
REMARK    1  A    between atoms: C_1  and  O_2
REMARK    2  A    between atoms: O_2  and  C_3
REMARK    3  A    between atoms: C_4  and  O_5
REMARK    4  A    between atoms: O_5  and  C_6
REMARK    5  A    between atoms: C_7  and  O_8
REMARK    6  A    between atoms: O_8  and  C_9
REMARK    7  A    between atoms: C_12  and  C_13
REMARK    8  A    between atoms: C_13  and  C_14
REMARK    9  A    between atoms: C_17  and  N_18
REMARK   10  A    between atoms: N_23  and  C_24
REMARK   11  A    between atoms: C_24  and  C_25
REMARK   12  A    between atoms: C_25  and  C_26
REMARK   13  A    between atoms: C_26  and  C_27
REMARK                            x       y       z     vdW  Elec       q    Type
REMARK                         _______ _______ _______ _____ _____    ______ ____
ROOT
ATOM      1  C   UNL     1       7.032  -1.603  24.318  0.00  0.00    +0.116 A 
ATOM      2  N   UNL     1       7.908  -2.422  23.625  0.00  0.00    -0.312 N 
ATOM      3  C   UNL     1       8.155  -3.522  24.403  0.00  0.00    +0.166 A 
ATOM      4  C   UNL     1       7.335  -3.381  25.506  0.00  0.00    +0.148 A 
ATOM      5  C   UNL     1       7.341  -4.447  26.433  0.00  0.00    +0.147 A 
ATOM      6  N   UNL     1       8.172  -5.492  26.219  0.00  0.00    -0.219 NA
ATOM      7  C   UNL     1       8.938  -5.483  25.111  0.00  0.00    +0.225 A 
ATOM      8  N   UNL     1       8.989  -4.547  24.148  0.00  0.00    -0.216 NA
ATOM      9  N   UNL     1       6.657  -2.175  25.452  0.00  0.00    -0.227 NA
ENDROOT
BRANCH   5  10
ATOM     10  N   UNL     1       6.540  -4.492  27.566  0.00  0.00    -0.341 N 
ATOM     11  H   UNL     1       6.368  -3.565  27.933  0.00  0.00    +0.144 HD
ATOM     12  H   UNL     1       5.747  -5.116  27.474  0.00  0.00    +0.144 HD
ENDBRANCH   5  10
BRANCH   1  13
ATOM     13  C   UNL     1       6.456  -0.319  23.767  0.00  0.00    +0.111 C 
BRANCH  13  16
ATOM     14  C   UNL     1       7.327   2.306  26.321  0.00  0.00    +0.166 A 
ATOM     15  C   UNL     1       7.080   1.089  25.697  0.00  0.00    +0.055 A 
ATOM     16  C   UNL     1       7.040   0.980  24.301  0.00  0.00    -0.015 A 
ATOM     17  C   UNL     1       7.408   2.105  23.522  0.00  0.00    +0.090 A 
ATOM     18 CL   UNL     1       7.234   1.979  21.804  0.00  0.00    -0.079 Cl
ATOM     19  C   UNL     1       7.873   3.287  24.149  0.00  0.00    +0.184 A 
ATOM     20  C   UNL     1       7.838   3.371  25.565  0.00  0.00    +0.205 A 
BRANCH  14  22
ATOM     21  C   UNL     1       5.696   2.282  28.031  0.00  0.00    +0.277 C 
ATOM     22  O   UNL     1       7.058   2.488  27.653  0.00  0.00    -0.491 OA
ENDBRANCH  14  22
BRANCH  19  23
ATOM     23  O   UNL     1       8.440   4.394  23.552  0.00  0.00    -0.490 OA
ATOM     24  C   UNL     1       7.670   5.302  22.785  0.00  0.00    +0.277 C 
ENDBRANCH  19  23
BRANCH  20  25
ATOM     25  O   UNL     1       8.267   4.562  26.122  0.00  0.00    -0.488 OA
ATOM     26  C   UNL     1       7.228   5.474  26.474  0.00  0.00    +0.277 C 
ENDBRANCH  20  25
ENDBRANCH  13  16
ENDBRANCH   1  13
BRANCH   2  27
ATOM     27  C   UNL     1       8.506  -2.116  22.350  0.00  0.00    +0.126 C 
BRANCH  27  28
ATOM     28  C   UNL     1       9.933  -1.599  22.294  0.00  0.00    +0.034 C 
BRANCH  28  29
ATOM     29  C   UNL     1      10.138  -0.070  22.159  0.00  0.00    +0.090 C 
BRANCH  29  30
ATOM     30  C   UNL     1      10.506   0.314  23.583  0.00  0.00    -0.106 C 
ATOM     31  C   UNL     1      10.822   0.644  24.804  0.00  0.00    +0.004 C 
ENDBRANCH  29  30
ENDBRANCH  28  29
ENDBRANCH  27  28
ENDBRANCH   2  27
TORSDOF 10
ENDMDL
