MODEL 1
REMARK VINA RESULT:      -7.0      0.000      0.000
REMARK  Name = 
REMARK  8 active torsions:
REMARK  status: ('A' for Active; 'I' for Inactive)
REMARK    1  A    between atoms: O_1  and  C_2
REMARK    2  A    between atoms: C_5  and  C_6
REMARK    3  A    between atoms: C_6  and  C_7
REMARK    4  A    between atoms: C_7  and  N_8
REMARK    5  A    between atoms: C_9  and  C_11
REMARK    6  A    between atoms: C_12  and  C_13
REMARK    7  A    between atoms: C_16  and  O_17
REMARK    8  A    between atoms: C_18  and  O_19
REMARK                            x       y       z     vdW  Elec       q    Type
REMARK                         _______ _______ _______ _____ _____    ______ ____
ROOT
ATOM      1  N   UNL     1       8.582  -4.103  26.110  0.00  0.00    -0.312 N 
ATOM      2  H   UNL     1       8.518  -3.160  26.469  0.00  0.00    +0.149 HD
ATOM      3  C   UNL     1       9.156  -4.338  24.883  0.00  0.00    +0.237 C 
ATOM      4  O   UNL     1       9.244  -5.449  24.372  0.00  0.00    -0.271 OA
ENDROOT
BRANCH   3   5
ATOM      5  C   UNL     1       9.668  -3.111  24.217  0.00  0.00    +0.068 C 
ATOM      6  C   UNL     1       9.161  -1.912  24.552  0.00  0.00    +0.013 C 
BRANCH   6   7
ATOM      7  C   UNL     1       9.568  -0.630  23.952  0.00  0.00    -0.021 A 
ATOM      8  C   UNL     1       9.107  -0.214  22.696  0.00  0.00    +0.057 A 
ATOM      9  C   UNL     1       9.484   1.027  22.197  0.00  0.00    +0.159 A 
ATOM     10  C   UNL     1      10.306   1.876  22.930  0.00  0.00    +0.158 A 
ATOM     11  C   UNL     1      10.767   1.490  24.181  0.00  0.00    +0.050 A 
ATOM     12  C   UNL     1      10.392   0.240  24.691  0.00  0.00    +0.012 A 
BRANCH   9  13
ATOM     13  O   UNL     1       9.023   1.414  20.970  0.00  0.00    -0.503 OA
ATOM     14  H   UNL     1       9.793   1.305  20.376  0.00  0.00    +0.292 HD
ENDBRANCH   9  13
BRANCH  10  15
ATOM     15  O   UNL     1      10.623   3.086  22.379  0.00  0.00    -0.503 OA
ATOM     16  H   UNL     1      11.478   2.999  21.924  0.00  0.00    +0.292 HD
ENDBRANCH  10  15
ENDBRANCH   6   7
ENDBRANCH   3   5
BRANCH   1  17
ATOM     17  C   UNL     1       8.019  -5.202  26.879  0.00  0.00    +0.109 C 
BRANCH  17  18
ATOM     18  C   UNL     1       6.539  -5.000  27.208  0.00  0.00    +0.054 C 
BRANCH  18  22
ATOM     19  C   UNL     1       3.962  -7.163  24.515  0.00  0.00    +0.117 A 
ATOM     20  C   UNL     1       3.824  -7.334  25.888  0.00  0.00    +0.045 A 
ATOM     21  C   UNL     1       4.649  -6.623  26.762  0.00  0.00    +0.007 A 
ATOM     22  C   UNL     1       5.619  -5.741  26.266  0.00  0.00    -0.046 A 
ATOM     23  C   UNL     1       5.723  -5.560  24.878  0.00  0.00    +0.007 A 
ATOM     24  C   UNL     1       4.898  -6.272  24.002  0.00  0.00    +0.045 A 
BRANCH  19  25
ATOM     25  O   UNL     1       3.157  -7.899  23.699  0.00  0.00    -0.507 OA
ATOM     26  H   UNL     1       2.487  -7.311  23.312  0.00  0.00    +0.292 HD
ENDBRANCH  19  25
ENDBRANCH  18  22
ENDBRANCH  17  18
ENDBRANCH   1  17
TORSDOF 8
ENDMDL
MODEL 2
REMARK VINA RESULT:      -6.9      3.124      9.510
REMARK  Name = 
REMARK  8 active torsions:
REMARK  status: ('A' for Active; 'I' for Inactive)
REMARK    1  A    between atoms: O_1  and  C_2
REMARK    2  A    between atoms: C_5  and  C_6
REMARK    3  A    between atoms: C_6  and  C_7
REMARK    4  A    between atoms: C_7  and  N_8
REMARK    5  A    between atoms: C_9  and  C_11
REMARK    6  A    between atoms: C_12  and  C_13
REMARK    7  A    between atoms: C_16  and  O_17
REMARK    8  A    between atoms: C_18  and  O_19
REMARK                            x       y       z     vdW  Elec       q    Type
REMARK                         _______ _______ _______ _____ _____    ______ ____
ROOT
ATOM      1  N   UNL     1       7.830   1.242  22.709  0.00  0.00    -0.312 N 
ATOM      2  H   UNL     1       7.081   1.056  23.362  0.00  0.00    +0.149 HD
ATOM      3  C   UNL     1       8.702   0.240  22.353  0.00  0.00    +0.237 C 
ATOM      4  O   UNL     1       9.648   0.399  21.589  0.00  0.00    -0.271 OA
ENDROOT
BRANCH   3   5
ATOM      5  C   UNL     1       8.398  -1.070  22.986  0.00  0.00    +0.068 C 
ATOM      6  C   UNL     1       8.831  -1.324  24.233  0.00  0.00    +0.013 C 
BRANCH   6   7
ATOM      7  C   UNL     1       8.612  -2.587  24.957  0.00  0.00    -0.021 A 
ATOM      8  C   UNL     1       9.399  -3.724  24.730  0.00  0.00    +0.057 A 
ATOM      9  C   UNL     1       9.182  -4.876  25.476  0.00  0.00    +0.159 A 
ATOM     10  C   UNL     1       8.200  -4.920  26.460  0.00  0.00    +0.158 A 
ATOM     11  C   UNL     1       7.416  -3.803  26.712  0.00  0.00    +0.050 A 
ATOM     12  C   UNL     1       7.628  -2.637  25.963  0.00  0.00    +0.012 A 
BRANCH   9  13
ATOM     13  O   UNL     1       9.959  -5.974  25.238  0.00  0.00    -0.503 OA
ATOM     14  H   UNL     1       9.836  -6.158  24.285  0.00  0.00    +0.292 HD
ENDBRANCH   9  13
BRANCH  10  15
ATOM     15  O   UNL     1       8.055  -6.083  27.162  0.00  0.00    -0.503 OA
ATOM     16  H   UNL     1       8.621  -6.759  26.751  0.00  0.00    +0.292 HD
ENDBRANCH  10  15
ENDBRANCH   6   7
ENDBRANCH   3   5
BRANCH   1  17
ATOM     17  C   UNL     1       8.006   2.588  22.185  0.00  0.00    +0.109 C 
BRANCH  17  18
ATOM     18  C   UNL     1       8.040   3.652  23.283  0.00  0.00    +0.054 C 
BRANCH  18  22
ATOM     19  C   UNL     1      11.959   5.373  23.782  0.00  0.00    +0.117 A 
ATOM     20  C   UNL     1      10.831   6.151  24.010  0.00  0.00    +0.045 A 
ATOM     21  C   UNL     1       9.560   5.591  23.863  0.00  0.00    +0.007 A 
ATOM     22  C   UNL     1       9.414   4.250  23.480  0.00  0.00    -0.046 A 
ATOM     23  C   UNL     1      10.565   3.473  23.283  0.00  0.00    +0.007 A 
ATOM     24  C   UNL     1      11.838   4.033  23.430  0.00  0.00    +0.045 A 
BRANCH  19  25
ATOM     25  O   UNL     1      13.179   5.968  23.908  0.00  0.00    -0.507 OA
ATOM     26  H   UNL     1      13.558   6.089  23.022  0.00  0.00    +0.292 HD
ENDBRANCH  19  25
ENDBRANCH  18  22
ENDBRANCH  17  18
ENDBRANCH   1  17
TORSDOF 8
ENDMDL
MODEL 3
REMARK VINA RESULT:      -6.9      1.698      2.256
REMARK  Name = 
REMARK  8 active torsions:
REMARK  status: ('A' for Active; 'I' for Inactive)
REMARK    1  A    between atoms: O_1  and  C_2
REMARK    2  A    between atoms: C_5  and  C_6
REMARK    3  A    between atoms: C_6  and  C_7
REMARK    4  A    between atoms: C_7  and  N_8
REMARK    5  A    between atoms: C_9  and  C_11
REMARK    6  A    between atoms: C_12  and  C_13
REMARK    7  A    between atoms: C_16  and  O_17
REMARK    8  A    between atoms: C_18  and  O_19
REMARK                            x       y       z     vdW  Elec       q    Type
REMARK                         _______ _______ _______ _____ _____    ______ ____
ROOT
ATOM      1  N   UNL     1       8.103  -4.163  25.882  0.00  0.00    -0.312 N 
ATOM      2  H   UNL     1       7.755  -3.226  26.030  0.00  0.00    +0.149 HD
ATOM      3  C   UNL     1       9.175  -4.380  25.048  0.00  0.00    +0.237 C 
ATOM      4  O   UNL     1       9.634  -5.489  24.801  0.00  0.00    -0.271 OA
ENDROOT
BRANCH   3   5
ATOM      5  C   UNL     1       9.738  -3.135  24.462  0.00  0.00    +0.068 C 
ATOM      6  C   UNL     1       8.984  -2.023  24.413  0.00  0.00    +0.013 C 
BRANCH   6   7
ATOM      7  C   UNL     1       9.418  -0.738  23.840  0.00  0.00    -0.021 A 
ATOM      8  C   UNL     1       8.965  -0.285  22.594  0.00  0.00    +0.057 A 
ATOM      9  C   UNL     1       9.369   0.958  22.121  0.00  0.00    +0.159 A 
ATOM     10  C   UNL     1      10.210   1.773  22.871  0.00  0.00    +0.158 A 
ATOM     11  C   UNL     1      10.664   1.351  24.113  0.00  0.00    +0.050 A 
ATOM     12  C   UNL     1      10.262   0.099  24.597  0.00  0.00    +0.012 A 
BRANCH   9  13
ATOM     13  O   UNL     1       8.916   1.381  20.903  0.00  0.00    -0.503 OA
ATOM     14  H   UNL     1       8.605   2.295  21.063  0.00  0.00    +0.292 HD
ENDBRANCH   9  13
BRANCH  10  15
ATOM     15  O   UNL     1      10.552   2.987  22.346  0.00  0.00    -0.503 OA
ATOM     16  H   UNL     1      11.470   2.934  22.029  0.00  0.00    +0.292 HD
ENDBRANCH  10  15
ENDBRANCH   6   7
ENDBRANCH   3   5
BRANCH   1  17
ATOM     17  C   UNL     1       7.432  -5.286  26.520  0.00  0.00    +0.109 C 
BRANCH  17  18
ATOM     18  C   UNL     1       6.052  -5.567  25.926  0.00  0.00    +0.054 C 
BRANCH  18  22
ATOM     19  C   UNL     1       5.696  -4.094  21.892  0.00  0.00    +0.117 A 
ATOM     20  C   UNL     1       6.140  -5.392  22.114  0.00  0.00    +0.045 A 
ATOM     21  C   UNL     1       6.242  -5.876  23.421  0.00  0.00    +0.007 A 
ATOM     22  C   UNL     1       5.906  -5.060  24.510  0.00  0.00    -0.046 A 
ATOM     23  C   UNL     1       5.431  -3.762  24.263  0.00  0.00    +0.007 A 
ATOM     24  C   UNL     1       5.330  -3.277  22.955  0.00  0.00    +0.045 A 
BRANCH  19  25
ATOM     25  O   UNL     1       5.641  -3.653  20.603  0.00  0.00    -0.507 OA
ATOM     26  H   UNL     1       6.548  -3.548  20.272  0.00  0.00    +0.292 HD
ENDBRANCH  19  25
ENDBRANCH  18  22
ENDBRANCH  17  18
ENDBRANCH   1  17
TORSDOF 8
ENDMDL
MODEL 4
REMARK VINA RESULT:      -6.8      1.592      9.137
REMARK  Name = 
REMARK  8 active torsions:
REMARK  status: ('A' for Active; 'I' for Inactive)
REMARK    1  A    between atoms: O_1  and  C_2
REMARK    2  A    between atoms: C_5  and  C_6
REMARK    3  A    between atoms: C_6  and  C_7
REMARK    4  A    between atoms: C_7  and  N_8
REMARK    5  A    between atoms: C_9  and  C_11
REMARK    6  A    between atoms: C_12  and  C_13
REMARK    7  A    between atoms: C_16  and  O_17
REMARK    8  A    between atoms: C_18  and  O_19
REMARK                            x       y       z     vdW  Elec       q    Type
REMARK                         _______ _______ _______ _____ _____    ______ ____
ROOT
ATOM      1  N   UNL     1       8.323  -3.321  23.765  0.00  0.00    -0.312 N 
ATOM      2  H   UNL     1       7.501  -2.853  23.409  0.00  0.00    +0.149 HD
ATOM      3  C   UNL     1       8.309  -4.679  23.975  0.00  0.00    +0.237 C 
ATOM      4  O   UNL     1       9.258  -5.309  24.429  0.00  0.00    -0.271 OA
ENDROOT
BRANCH   3   5
ATOM      5  C   UNL     1       7.026  -5.329  23.602  0.00  0.00    +0.068 C 
ATOM      6  C   UNL     1       5.981  -5.271  24.446  0.00  0.00    +0.013 C 
BRANCH   6   7
ATOM      7  C   UNL     1       4.667  -5.891  24.201  0.00  0.00    -0.021 A 
ATOM      8  C   UNL     1       4.299  -7.114  24.777  0.00  0.00    +0.057 A 
ATOM      9  C   UNL     1       3.029  -7.630  24.552  0.00  0.00    +0.159 A 
ATOM     10  C   UNL     1       2.104  -6.947  23.770  0.00  0.00    +0.158 A 
ATOM     11  C   UNL     1       2.441  -5.728  23.197  0.00  0.00    +0.050 A 
ATOM     12  C   UNL     1       3.720  -5.200  23.420  0.00  0.00    +0.012 A 
BRANCH   9  13
ATOM     13  O   UNL     1       2.691  -8.825  25.122  0.00  0.00    -0.503 OA
ATOM     14  H   UNL     1       1.991  -9.183  24.540  0.00  0.00    +0.292 HD
ENDBRANCH   9  13
BRANCH  10  15
ATOM     15  O   UNL     1       0.871  -7.511  23.605  0.00  0.00    -0.503 OA
ATOM     16  H   UNL     1       0.411  -7.034  22.894  0.00  0.00    +0.292 HD
ENDBRANCH  10  15
ENDBRANCH   6   7
ENDBRANCH   3   5
BRANCH   1  17
ATOM     17  C   UNL     1       9.505  -2.539  24.097  0.00  0.00    +0.109 C 
BRANCH  17  18
ATOM     18  C   UNL     1      10.156  -1.899  22.871  0.00  0.00    +0.054 C 
BRANCH  18  22
ATOM     19  C   UNL     1      10.300   2.404  23.046  0.00  0.00    +0.117 A 
ATOM     20  C   UNL     1       9.850   1.776  21.890  0.00  0.00    +0.045 A 
ATOM     21  C   UNL     1       9.789   0.382  21.837  0.00  0.00    +0.007 A 
ATOM     22  C   UNL     1      10.184  -0.390  22.939  0.00  0.00    -0.046 A 
ATOM     23  C   UNL     1      10.608   0.264  24.107  0.00  0.00    +0.007 A 
ATOM     24  C   UNL     1      10.670   1.660  24.160  0.00  0.00    +0.045 A 
BRANCH  19  25
ATOM     25  O   UNL     1      10.371   3.765  23.043  0.00  0.00    -0.507 OA
ATOM     26  H   UNL     1      10.001   4.096  23.878  0.00  0.00    +0.292 HD
ENDBRANCH  19  25
ENDBRANCH  18  22
ENDBRANCH  17  18
ENDBRANCH   1  17
TORSDOF 8
ENDMDL
MODEL 5
REMARK VINA RESULT:      -6.7      2.104      3.632
REMARK  Name = 
REMARK  8 active torsions:
REMARK  status: ('A' for Active; 'I' for Inactive)
REMARK    1  A    between atoms: O_1  and  C_2
REMARK    2  A    between atoms: C_5  and  C_6
REMARK    3  A    between atoms: C_6  and  C_7
REMARK    4  A    between atoms: C_7  and  N_8
REMARK    5  A    between atoms: C_9  and  C_11
REMARK    6  A    between atoms: C_12  and  C_13
REMARK    7  A    between atoms: C_16  and  O_17
REMARK    8  A    between atoms: C_18  and  O_19
REMARK                            x       y       z     vdW  Elec       q    Type
REMARK                         _______ _______ _______ _____ _____    ______ ____
ROOT
ATOM      1  N   UNL     1       5.037  -3.425  23.515  0.00  0.00    -0.312 N 
ATOM      2  H   UNL     1       5.148  -2.926  24.387  0.00  0.00    +0.149 HD
ATOM      3  C   UNL     1       5.655  -2.970  22.374  0.00  0.00    +0.237 C 
ATOM      4  O   UNL     1       5.545  -3.507  21.278  0.00  0.00    -0.271 OA
ENDROOT
BRANCH   3   5
ATOM      5  C   UNL     1       6.479  -1.751  22.587  0.00  0.00    +0.068 C 
ATOM      6  C   UNL     1       7.798  -1.870  22.814  0.00  0.00    +0.013 C 
BRANCH   6   7
ATOM      7  C   UNL     1       8.714  -0.743  23.059  0.00  0.00    -0.021 A 
ATOM      8  C   UNL     1       8.979   0.229  22.086  0.00  0.00    +0.057 A 
ATOM      9  C   UNL     1       9.814   1.298  22.386  0.00  0.00    +0.159 A 
ATOM     10  C   UNL     1      10.386   1.431  23.646  0.00  0.00    +0.158 A 
ATOM     11  C   UNL     1      10.131   0.487  24.630  0.00  0.00    +0.050 A 
ATOM     12  C   UNL     1       9.290  -0.595  24.336  0.00  0.00    +0.012 A 
BRANCH   9  13
ATOM     13  O   UNL     1      10.060   2.236  21.422  0.00  0.00    -0.503 OA
ATOM     14  H   UNL     1       9.833   1.787  20.583  0.00  0.00    +0.292 HD
ENDBRANCH   9  13
BRANCH  10  15
ATOM     15  O   UNL     1      11.185   2.517  23.870  0.00  0.00    -0.503 OA
ATOM     16  H   UNL     1      12.039   2.362  23.432  0.00  0.00    +0.292 HD
ENDBRANCH  10  15
ENDBRANCH   6   7
ENDBRANCH   3   5
BRANCH   1  17
ATOM     17  C   UNL     1       4.182  -4.602  23.466  0.00  0.00    +0.109 C 
BRANCH  17  18
ATOM     18  C   UNL     1       4.866  -5.855  24.013  0.00  0.00    +0.054 C 
BRANCH  18  22
ATOM     19  C   UNL     1       8.384  -5.034  26.361  0.00  0.00    +0.117 A 
ATOM     20  C   UNL     1       8.476  -5.079  24.975  0.00  0.00    +0.045 A 
ATOM     21  C   UNL     1       7.334  -5.330  24.212  0.00  0.00    +0.007 A 
ATOM     22  C   UNL     1       6.096  -5.544  24.834  0.00  0.00    -0.046 A 
ATOM     23  C   UNL     1       6.018  -5.465  26.233  0.00  0.00    +0.007 A 
ATOM     24  C   UNL     1       7.161  -5.214  26.997  0.00  0.00    +0.045 A 
BRANCH  19  25
ATOM     25  O   UNL     1       9.529  -4.815  27.068  0.00  0.00    -0.507 OA
ATOM     26  H   UNL     1      10.069  -5.622  27.041  0.00  0.00    +0.292 HD
ENDBRANCH  19  25
ENDBRANCH  18  22
ENDBRANCH  17  18
ENDBRANCH   1  17
TORSDOF 8
ENDMDL
MODEL 6
REMARK VINA RESULT:      -6.7      2.605      3.297
REMARK  Name = 
REMARK  8 active torsions:
REMARK  status: ('A' for Active; 'I' for Inactive)
REMARK    1  A    between atoms: O_1  and  C_2
REMARK    2  A    between atoms: C_5  and  C_6
REMARK    3  A    between atoms: C_6  and  C_7
REMARK    4  A    between atoms: C_7  and  N_8
REMARK    5  A    between atoms: C_9  and  C_11
REMARK    6  A    between atoms: C_12  and  C_13
REMARK    7  A    between atoms: C_16  and  O_17
REMARK    8  A    between atoms: C_18  and  O_19
REMARK                            x       y       z     vdW  Elec       q    Type
REMARK                         _______ _______ _______ _____ _____    ______ ____
ROOT
ATOM      1  N   UNL     1       8.787  -2.232  25.407  0.00  0.00    -0.312 N 
ATOM      2  H   UNL     1       8.322  -1.429  25.809  0.00  0.00    +0.149 HD
ATOM      3  C   UNL     1       9.639  -2.076  24.340  0.00  0.00    +0.237 C 
ATOM      4  O   UNL     1      10.215  -3.005  23.785  0.00  0.00    -0.271 OA
ENDROOT
BRANCH   3   5
ATOM      5  C   UNL     1       9.803  -0.663  23.908  0.00  0.00    +0.068 C 
ATOM      6  C   UNL     1       9.509   0.333  24.762  0.00  0.00    +0.013 C 
BRANCH   6   7
ATOM      7  C   UNL     1       9.610   1.768  24.447  0.00  0.00    -0.021 A 
ATOM      8  C   UNL     1      10.692   2.302  23.735  0.00  0.00    +0.057 A 
ATOM      9  C   UNL     1      10.713   3.655  23.422  0.00  0.00    +0.159 A 
ATOM     10  C   UNL     1       9.669   4.495  23.793  0.00  0.00    +0.158 A 
ATOM     11  C   UNL     1       8.581   3.988  24.489  0.00  0.00    +0.050 A 
ATOM     12  C   UNL     1       8.551   2.623  24.809  0.00  0.00    +0.012 A 
BRANCH   9  13
ATOM     13  O   UNL     1      11.779   4.156  22.728  0.00  0.00    -0.503 OA
ATOM     14  H   UNL     1      11.936   3.502  22.018  0.00  0.00    +0.292 HD
ENDBRANCH   9  13
BRANCH  10  15
ATOM     15  O   UNL     1       9.755   5.811  23.437  0.00  0.00    -0.503 OA
ATOM     16  H   UNL     1      10.668   6.108  23.587  0.00  0.00    +0.292 HD
ENDBRANCH  10  15
ENDBRANCH   6   7
ENDBRANCH   3   5
BRANCH   1  17
ATOM     17  C   UNL     1       8.510  -3.559  25.937  0.00  0.00    +0.109 C 
BRANCH  17  18
ATOM     18  C   UNL     1       7.076  -4.017  25.669  0.00  0.00    +0.054 C 
BRANCH  18  22
ATOM     19  C   UNL     1       6.248  -4.784  21.510  0.00  0.00    +0.117 A 
ATOM     20  C   UNL     1       5.608  -3.734  22.158  0.00  0.00    +0.045 A 
ATOM     21  C   UNL     1       5.886  -3.475  23.502  0.00  0.00    +0.007 A 
ATOM     22  C   UNL     1       6.802  -4.270  24.205  0.00  0.00    -0.046 A 
ATOM     23  C   UNL     1       7.460  -5.307  23.525  0.00  0.00    +0.007 A 
ATOM     24  C   UNL     1       7.181  -5.567  22.180  0.00  0.00    +0.045 A 
BRANCH  19  25
ATOM     25  O   UNL     1       5.925  -5.019  20.207  0.00  0.00    -0.507 OA
ATOM     26  H   UNL     1       5.511  -4.220  19.842  0.00  0.00    +0.292 HD
ENDBRANCH  19  25
ENDBRANCH  18  22
ENDBRANCH  17  18
ENDBRANCH   1  17
TORSDOF 8
ENDMDL
MODEL 7
REMARK VINA RESULT:      -6.6      1.951      8.919
REMARK  Name = 
REMARK  8 active torsions:
REMARK  status: ('A' for Active; 'I' for Inactive)
REMARK    1  A    between atoms: O_1  and  C_2
REMARK    2  A    between atoms: C_5  and  C_6
REMARK    3  A    between atoms: C_6  and  C_7
REMARK    4  A    between atoms: C_7  and  N_8
REMARK    5  A    between atoms: C_9  and  C_11
REMARK    6  A    between atoms: C_12  and  C_13
REMARK    7  A    between atoms: C_16  and  O_17
REMARK    8  A    between atoms: C_18  and  O_19
REMARK                            x       y       z     vdW  Elec       q    Type
REMARK                         _______ _______ _______ _____ _____    ______ ____
ROOT
ATOM      1  N   UNL     1       8.688  -1.954  22.545  0.00  0.00    -0.312 N 
ATOM      2  H   UNL     1       7.709  -1.809  22.339  0.00  0.00    +0.149 HD
ATOM      3  C   UNL     1       9.063  -2.793  23.567  0.00  0.00    +0.237 C 
ATOM      4  O   UNL     1      10.228  -2.996  23.891  0.00  0.00    -0.271 OA
ENDROOT
BRANCH   3   5
ATOM      5  C   UNL     1       7.918  -3.442  24.258  0.00  0.00    +0.068 C 
ATOM      6  C   UNL     1       7.540  -4.682  23.901  0.00  0.00    +0.013 C 
BRANCH   6   7
ATOM      7  C   UNL     1       6.413  -5.420  24.493  0.00  0.00    -0.021 A 
ATOM      8  C   UNL     1       5.476  -6.108  23.710  0.00  0.00    +0.057 A 
ATOM      9  C   UNL     1       4.459  -6.830  24.323  0.00  0.00    +0.159 A 
ATOM     10  C   UNL     1       4.357  -6.894  25.708  0.00  0.00    +0.158 A 
ATOM     11  C   UNL     1       5.279  -6.230  26.505  0.00  0.00    +0.050 A 
ATOM     12  C   UNL     1       6.308  -5.500  25.896  0.00  0.00    +0.012 A 
BRANCH   9  13
ATOM     13  O   UNL     1       3.555  -7.493  23.540  0.00  0.00    -0.503 OA
ATOM     14  H   UNL     1       4.090  -7.858  22.807  0.00  0.00    +0.292 HD
ENDBRANCH   9  13
BRANCH  10  15
ATOM     15  O   UNL     1       3.339  -7.635  26.237  0.00  0.00    -0.503 OA
ATOM     16  H   UNL     1       2.669  -7.769  25.545  0.00  0.00    +0.292 HD
ENDBRANCH  10  15
ENDBRANCH   6   7
ENDBRANCH   3   5
BRANCH   1  17
ATOM     17  C   UNL     1       9.695  -1.231  21.783  0.00  0.00    +0.109 C 
BRANCH  17  18
ATOM     18  C   UNL     1       9.133   0.003  21.078  0.00  0.00    +0.054 C 
BRANCH  18  22
ATOM     19  C   UNL     1       9.245   3.518  23.569  0.00  0.00    +0.117 A 
ATOM     20  C   UNL     1      10.269   2.582  23.652  0.00  0.00    +0.045 A 
ATOM     21  C   UNL     1      10.241   1.449  22.835  0.00  0.00    +0.007 A 
ATOM     22  C   UNL     1       9.185   1.247  21.936  0.00  0.00    -0.046 A 
ATOM     23  C   UNL     1       8.177   2.219  21.845  0.00  0.00    +0.007 A 
ATOM     24  C   UNL     1       8.203   3.352  22.664  0.00  0.00    +0.045 A 
BRANCH  19  25
ATOM     25  O   UNL     1       9.297   4.593  24.406  0.00  0.00    -0.507 OA
ATOM     26  H   UNL     1       9.040   4.304  25.297  0.00  0.00    +0.292 HD
ENDBRANCH  19  25
ENDBRANCH  18  22
ENDBRANCH  17  18
ENDBRANCH   1  17
TORSDOF 8
ENDMDL
MODEL 8
REMARK VINA RESULT:      -6.6      3.120      7.962
REMARK  Name = 
REMARK  8 active torsions:
REMARK  status: ('A' for Active; 'I' for Inactive)
REMARK    1  A    between atoms: O_1  and  C_2
REMARK    2  A    between atoms: C_5  and  C_6
REMARK    3  A    between atoms: C_6  and  C_7
REMARK    4  A    between atoms: C_7  and  N_8
REMARK    5  A    between atoms: C_9  and  C_11
REMARK    6  A    between atoms: C_12  and  C_13
REMARK    7  A    between atoms: C_16  and  O_17
REMARK    8  A    between atoms: C_18  and  O_19
REMARK                            x       y       z     vdW  Elec       q    Type
REMARK                         _______ _______ _______ _____ _____    ______ ____
ROOT
ATOM      1  N   UNL     1       7.787   1.979  25.457  0.00  0.00    -0.312 N 
ATOM      2  H   UNL     1       8.426   1.519  26.092  0.00  0.00    +0.149 HD
ATOM      3  C   UNL     1       6.684   1.311  24.982  0.00  0.00    +0.237 C 
ATOM      4  O   UNL     1       5.883   1.794  24.190  0.00  0.00    -0.271 OA
ENDROOT
BRANCH   3   5
ATOM      5  C   UNL     1       6.545  -0.069  25.515  0.00  0.00    +0.068 C 
ATOM      6  C   UNL     1       7.626  -0.864  25.596  0.00  0.00    +0.013 C 
BRANCH   6   7
ATOM      7  C   UNL     1       7.614  -2.253  26.085  0.00  0.00    -0.021 A 
ATOM      8  C   UNL     1       8.746  -3.076  26.024  0.00  0.00    +0.057 A 
ATOM      9  C   UNL     1       8.693  -4.363  26.544  0.00  0.00    +0.159 A 
ATOM     10  C   UNL     1       7.536  -4.851  27.140  0.00  0.00    +0.158 A 
ATOM     11  C   UNL     1       6.405  -4.051  27.223  0.00  0.00    +0.050 A 
ATOM     12  C   UNL     1       6.449  -2.751  26.700  0.00  0.00    +0.012 A 
BRANCH   9  13
ATOM     13  O   UNL     1       9.809  -5.151  26.474  0.00  0.00    -0.503 OA
ATOM     14  H   UNL     1       9.877  -5.556  27.361  0.00  0.00    +0.292 HD
ENDBRANCH   9  13
BRANCH  10  15
ATOM     15  O   UNL     1       7.565  -6.122  27.641  0.00  0.00    -0.503 OA
ATOM     16  H   UNL     1       8.250  -6.161  28.331  0.00  0.00    +0.292 HD
ENDBRANCH  10  15
ENDBRANCH   6   7
ENDBRANCH   3   5
BRANCH   1  17
ATOM     17  C   UNL     1       8.070   3.336  25.015  0.00  0.00    +0.109 C 
BRANCH  17  18
ATOM     18  C   UNL     1       9.269   3.413  24.068  0.00  0.00    +0.054 C 
BRANCH  18  22
ATOM     19  C   UNL     1       9.991  -0.333  22.065  0.00  0.00    +0.117 A 
ATOM     20  C   UNL     1       9.196   0.631  21.457  0.00  0.00    +0.045 A 
ATOM     21  C   UNL     1       8.973   1.852  22.098  0.00  0.00    +0.007 A 
ATOM     22  C   UNL     1       9.540   2.109  23.354  0.00  0.00    -0.046 A 
ATOM     23  C   UNL     1      10.364   1.134  23.938  0.00  0.00    +0.007 A 
ATOM     24  C   UNL     1      10.587  -0.088  23.297  0.00  0.00    +0.045 A 
BRANCH  19  25
ATOM     25  O   UNL     1      10.158  -1.520  21.417  0.00  0.00    -0.507 OA
ATOM     26  H   UNL     1       9.650  -2.203  21.886  0.00  0.00    +0.292 HD
ENDBRANCH  19  25
ENDBRANCH  18  22
ENDBRANCH  17  18
ENDBRANCH   1  17
TORSDOF 8
ENDMDL
MODEL 9
REMARK VINA RESULT:      -6.5      2.127      8.243
REMARK  Name = 
REMARK  8 active torsions:
REMARK  status: ('A' for Active; 'I' for Inactive)
REMARK    1  A    between atoms: O_1  and  C_2
REMARK    2  A    between atoms: C_5  and  C_6
REMARK    3  A    between atoms: C_6  and  C_7
REMARK    4  A    between atoms: C_7  and  N_8
REMARK    5  A    between atoms: C_9  and  C_11
REMARK    6  A    between atoms: C_12  and  C_13
REMARK    7  A    between atoms: C_16  and  O_17
REMARK    8  A    between atoms: C_18  and  O_19
REMARK                            x       y       z     vdW  Elec       q    Type
REMARK                         _______ _______ _______ _____ _____    ______ ____
ROOT
ATOM      1  N   UNL     1       9.417  -1.002  24.409  0.00  0.00    -0.312 N 
ATOM      2  H   UNL     1       8.541  -1.031  24.912  0.00  0.00    +0.149 HD
ATOM      3  C   UNL     1       9.686  -1.932  23.433  0.00  0.00    +0.237 C 
ATOM      4  O   UNL     1      10.737  -1.975  22.803  0.00  0.00    -0.271 OA
ENDROOT
BRANCH   3   5
ATOM      5  C   UNL     1       8.580  -2.898  23.207  0.00  0.00    +0.068 C 
ATOM      6  C   UNL     1       8.023  -3.530  24.255  0.00  0.00    +0.013 C 
BRANCH   6   7
ATOM      7  C   UNL     1       6.938  -4.521  24.159  0.00  0.00    -0.021 A 
ATOM      8  C   UNL     1       6.426  -4.951  22.928  0.00  0.00    +0.057 A 
ATOM      9  C   UNL     1       5.435  -5.925  22.893  0.00  0.00    +0.159 A 
ATOM     10  C   UNL     1       4.947  -6.495  24.063  0.00  0.00    +0.158 A 
ATOM     11  C   UNL     1       5.446  -6.093  25.294  0.00  0.00    +0.050 A 
ATOM     12  C   UNL     1       6.445  -5.111  25.339  0.00  0.00    +0.012 A 
BRANCH   9  13
ATOM     13  O   UNL     1       4.949  -6.330  21.681  0.00  0.00    -0.503 OA
ATOM     14  H   UNL     1       4.840  -7.297  21.774  0.00  0.00    +0.292 HD
ENDBRANCH   9  13
BRANCH  10  15
ATOM     15  O   UNL     1       3.983  -7.456  23.948  0.00  0.00    -0.503 OA
ATOM     16  H   UNL     1       4.320  -8.275  24.348  0.00  0.00    +0.292 HD
ENDBRANCH  10  15
ENDBRANCH   6   7
ENDBRANCH   3   5
BRANCH   1  17
ATOM     17  C   UNL     1      10.410   0.003  24.758  0.00  0.00    +0.109 C 
BRANCH  17  18
ATOM     18  C   UNL     1      10.751   0.931  23.592  0.00  0.00    +0.054 C 
BRANCH  18  22
ATOM     19  C   UNL     1       7.313   3.136  22.216  0.00  0.00    +0.117 A 
ATOM     20  C   UNL     1       7.919   3.483  23.418  0.00  0.00    +0.045 A 
ATOM     21  C   UNL     1       9.042   2.778  23.858  0.00  0.00    +0.007 A 
ATOM     22  C   UNL     1       9.560   1.720  23.099  0.00  0.00    -0.046 A 
ATOM     23  C   UNL     1       8.952   1.404  21.874  0.00  0.00    +0.007 A 
ATOM     24  C   UNL     1       7.828   2.108  21.433  0.00  0.00    +0.045 A 
BRANCH  19  25
ATOM     25  O   UNL     1       6.203   3.830  21.839  0.00  0.00    -0.507 OA
ATOM     26  H   UNL     1       5.501   3.196  21.618  0.00  0.00    +0.292 HD
ENDBRANCH  19  25
ENDBRANCH  18  22
ENDBRANCH  17  18
ENDBRANCH   1  17
TORSDOF 8
ENDMDL
