MODEL 1
REMARK VINA RESULT:      -5.7      0.000      0.000
REMARK  Name = 
REMARK  15 active torsions:
REMARK  status: ('A' for Active; 'I' for Inactive)
REMARK    1  A    between atoms: C_1  and  O_2
REMARK    2  A    between atoms: O_2  and  C_3
REMARK    3  A    between atoms: C_6  and  C_7
REMARK    4  A    between atoms: C_7  and  S_8
REMARK    5  A    between atoms: S_8  and  C_9
REMARK    6  A    between atoms: C_9  and  C_10
REMARK    7  A    between atoms: C_10  and  N_12
REMARK    8  A    between atoms: C_10  and  C_19
REMARK    9  A    between atoms: C_13  and  C_15
REMARK   10  A    between atoms: C_15  and  C_16
REMARK   11  A    between atoms: C_16  and  C_17
REMARK   12  A    between atoms: C_17  and  N_18
REMARK   13  A    between atoms: N_21  and  CA_22
REMARK   14  A    between atoms: CA_22  and  C_23
REMARK   15  A    between atoms: C_23  and  O_24
REMARK                            x       y       z     vdW  Elec       q    Type
REMARK                         _______ _______ _______ _____ _____    ______ ____
ROOT
ATOM      1  C   UNK A   1       9.169  -1.984  24.766  0.00  0.00    +0.169 C 
ENDROOT
BRANCH   1   2
ATOM      2  C   UNK A   1       9.643  -0.911  23.768  0.00  0.00    +0.235 C 
ATOM      3  N   UNK A   1       8.953  -0.895  22.566  0.00  0.00    -0.303 N 
ATOM      4  H   UNK A   1       8.341  -1.695  22.378  0.00  0.00    +0.149 HD
ATOM      5  O   UNK A   1      10.572  -0.142  23.992  0.00  0.00    -0.274 OA
BRANCH   3   6
ATOM      6  C   UNK A   1       9.433  -0.118  21.422  0.00  0.00    +0.224 C 
BRANCH   6   7
ATOM      7  C   UNK A   1       9.092   1.367  21.518  0.00  0.00    +0.322 C 
ATOM      8  O   UNK A   1       7.956   1.814  21.485  0.00  0.00    -0.249 OA
BRANCH   7   9
ATOM      9  O   UNK A   1      10.181   2.156  21.698  0.00  0.00    -0.480 OA
ATOM     10  H   UNK A   1      10.537   1.992  22.594  0.00  0.00    +0.295 HD
ENDBRANCH   7   9
ENDBRANCH   6   7
ENDBRANCH   3   6
ENDBRANCH   1   2
BRANCH   1  11
ATOM     11  N   UNK A   1       8.407  -3.008  24.040  0.00  0.00    -0.303 N 
ATOM     12  H   UNK A   1       7.657  -2.702  23.429  0.00  0.00    +0.149 HD
ATOM     13  C   UNK A   0       8.683  -4.346  24.177  0.00  0.00    +0.214 C 
ATOM     14  O   UNK A   0       9.627  -4.743  24.854  0.00  0.00    -0.276 OA
BRANCH  13  15
ATOM     15  C   UNK A   0       7.809  -5.253  23.337  0.00  0.00    +0.097 C 
BRANCH  15  16
ATOM     16  C   UNK A   0       7.068  -4.502  22.234  0.00  0.00    +0.024 C 
BRANCH  16  17
ATOM     17  C   UNK A   0       6.084  -5.405  21.489  0.00  0.00    +0.078 C 
BRANCH  17  18
ATOM     18  N   UNK A   0       6.164  -6.767  22.000  0.00  0.00    -0.330 NA
ATOM     19  H   UNK A   0       5.254  -7.221  21.912  0.00  0.00    +0.118 HD
ATOM     20  H   UNK A   0       6.818  -7.316  21.446  0.00  0.00    +0.118 HD
ENDBRANCH  17  18
ENDBRANCH  16  17
ENDBRANCH  15  16
ENDBRANCH  13  15
ENDBRANCH   1  11
BRANCH   1  21
ATOM     21  C   UNK A   1       8.358  -1.337  25.898  0.00  0.00    +0.101 C 
BRANCH  21  22
ATOM     22  S   UNK A   1       6.539  -1.418  25.664  0.00  0.00    -0.154 S 
BRANCH  22  23
ATOM     23  C   UNK A   1       6.122  -2.698  26.897  0.00  0.00    +0.104 C 
BRANCH  23  27
ATOM     24  C   UNK A   1       4.563  -6.274  25.012  0.00  0.00    +0.120 A 
ATOM     25  C   UNK A   1       5.486  -6.365  26.057  0.00  0.00    +0.046 A 
ATOM     26  C   UNK A   1       5.973  -5.214  26.685  0.00  0.00    +0.008 A 
ATOM     27  C   UNK A   1       5.542  -3.945  26.274  0.00  0.00    -0.037 A 
ATOM     28  C   UNK A   1       4.616  -3.863  25.225  0.00  0.00    +0.008 A 
ATOM     29  C   UNK A   1       4.124  -5.016  24.604  0.00  0.00    +0.046 A 
BRANCH  24  31
ATOM     30  C   UNK A   1       2.811  -7.605  24.115  0.00  0.00    +0.277 C 
ATOM     31  O   UNK A   1       4.181  -7.473  24.477  0.00  0.00    -0.495 OA
ENDBRANCH  24  31
ENDBRANCH  23  27
ENDBRANCH  22  23
ENDBRANCH  21  22
ENDBRANCH   1  21
TORSDOF 14
ENDMDL
MODEL 2
REMARK VINA RESULT:      -5.6      3.249      5.309
REMARK  Name = 
REMARK  15 active torsions:
REMARK  status: ('A' for Active; 'I' for Inactive)
REMARK    1  A    between atoms: C_1  and  O_2
REMARK    2  A    between atoms: O_2  and  C_3
REMARK    3  A    between atoms: C_6  and  C_7
REMARK    4  A    between atoms: C_7  and  S_8
REMARK    5  A    between atoms: S_8  and  C_9
REMARK    6  A    between atoms: C_9  and  C_10
REMARK    7  A    between atoms: C_10  and  N_12
REMARK    8  A    between atoms: C_10  and  C_19
REMARK    9  A    between atoms: C_13  and  C_15
REMARK   10  A    between atoms: C_15  and  C_16
REMARK   11  A    between atoms: C_16  and  C_17
REMARK   12  A    between atoms: C_17  and  N_18
REMARK   13  A    between atoms: N_21  and  CA_22
REMARK   14  A    between atoms: CA_22  and  C_23
REMARK   15  A    between atoms: C_23  and  O_24
REMARK                            x       y       z     vdW  Elec       q    Type
REMARK                         _______ _______ _______ _____ _____    ______ ____
ROOT
ATOM      1  C   UNK A   1       9.332   2.292  23.349  0.00  0.00    +0.169 C 
ENDROOT
BRANCH   1   2
ATOM      2  C   UNK A   1       9.914   3.669  23.720  0.00  0.00    +0.235 C 
ATOM      3  N   UNK A   1      11.039   4.035  22.998  0.00  0.00    -0.303 N 
ATOM      4  H   UNK A   1      11.482   3.301  22.437  0.00  0.00    +0.149 HD
ATOM      5  O   UNK A   1       9.448   4.386  24.599  0.00  0.00    -0.274 OA
BRANCH   3   6
ATOM      6  C   UNK A   1      11.857   5.183  23.391  0.00  0.00    +0.224 C 
BRANCH   6   7
ATOM      7  C   UNK A   1      13.179   5.268  22.631  0.00  0.00    +0.322 C 
ATOM      8  O   UNK A   1      13.291   5.708  21.497  0.00  0.00    -0.249 OA
BRANCH   7   9
ATOM      9  O   UNK A   1      14.244   4.852  23.360  0.00  0.00    -0.480 OA
ATOM     10  H   UNK A   1      15.034   5.347  23.064  0.00  0.00    +0.295 HD
ENDBRANCH   7   9
ENDBRANCH   6   7
ENDBRANCH   3   6
ENDBRANCH   1   2
BRANCH   1  11
ATOM     11  N   UNK A   1       9.222   1.478  24.567  0.00  0.00    -0.303 N 
ATOM     12  H   UNK A   1      10.012   1.459  25.203  0.00  0.00    +0.149 HD
ATOM     13  C   UNK A   0       8.092   0.751  24.849  0.00  0.00    +0.214 C 
ATOM     14  O   UNK A   0       7.095   0.807  24.135  0.00  0.00    -0.276 OA
BRANCH  13  15
ATOM     15  C   UNK A   0       8.150  -0.011  26.156  0.00  0.00    +0.097 C 
BRANCH  15  16
ATOM     16  C   UNK A   0       7.166  -1.178  26.203  0.00  0.00    +0.024 C 
BRANCH  16  17
ATOM     17  C   UNK A   0       5.855  -0.792  26.889  0.00  0.00    +0.078 C 
BRANCH  17  18
ATOM     18  N   UNK A   0       4.843  -0.467  25.894  0.00  0.00    -0.330 NA
ATOM     19  H   UNK A   0       4.915  -1.111  25.106  0.00  0.00    +0.118 HD
ATOM     20  H   UNK A   0       3.910  -0.590  26.284  0.00  0.00    +0.118 HD
ENDBRANCH  17  18
ENDBRANCH  16  17
ENDBRANCH  15  16
ENDBRANCH  13  15
ENDBRANCH   1  11
BRANCH   1  21
ATOM     21  C   UNK A   1      10.194   1.623  22.269  0.00  0.00    +0.101 C 
BRANCH  21  22
ATOM     22  S   UNK A   1       9.437   0.129  21.518  0.00  0.00    -0.154 S 
BRANCH  22  23
ATOM     23  C   UNK A   1      10.315  -1.170  22.452  0.00  0.00    +0.104 C 
BRANCH  23  27
ATOM     24  C   UNK A   1       7.694  -4.226  24.049  0.00  0.00    +0.120 A 
ATOM     25  C   UNK A   1       8.955  -4.007  24.609  0.00  0.00    +0.046 A 
ATOM     26  C   UNK A   1       9.795  -3.005  24.113  0.00  0.00    +0.008 A 
ATOM     27  C   UNK A   1       9.384  -2.201  23.041  0.00  0.00    -0.037 A 
ATOM     28  C   UNK A   1       8.116  -2.428  22.485  0.00  0.00    +0.008 A 
ATOM     29  C   UNK A   1       7.275  -3.426  22.989  0.00  0.00    +0.046 A 
BRANCH  24  31
ATOM     30  C   UNK A   1       5.800  -5.656  23.942  0.00  0.00    +0.277 C 
ATOM     31  O   UNK A   1       6.983  -5.246  24.618  0.00  0.00    -0.495 OA
ENDBRANCH  24  31
ENDBRANCH  23  27
ENDBRANCH  22  23
ENDBRANCH  21  22
ENDBRANCH   1  21
TORSDOF 14
ENDMDL
MODEL 3
REMARK VINA RESULT:      -5.5      2.402      7.880
REMARK  Name = 
REMARK  15 active torsions:
REMARK  status: ('A' for Active; 'I' for Inactive)
REMARK    1  A    between atoms: C_1  and  O_2
REMARK    2  A    between atoms: O_2  and  C_3
REMARK    3  A    between atoms: C_6  and  C_7
REMARK    4  A    between atoms: C_7  and  S_8
REMARK    5  A    between atoms: S_8  and  C_9
REMARK    6  A    between atoms: C_9  and  C_10
REMARK    7  A    between atoms: C_10  and  N_12
REMARK    8  A    between atoms: C_10  and  C_19
REMARK    9  A    between atoms: C_13  and  C_15
REMARK   10  A    between atoms: C_15  and  C_16
REMARK   11  A    between atoms: C_16  and  C_17
REMARK   12  A    between atoms: C_17  and  N_18
REMARK   13  A    between atoms: N_21  and  CA_22
REMARK   14  A    between atoms: CA_22  and  C_23
REMARK   15  A    between atoms: C_23  and  O_24
REMARK                            x       y       z     vdW  Elec       q    Type
REMARK                         _______ _______ _______ _____ _____    ______ ____
ROOT
ATOM      1  C   UNK A   1       7.626  -3.975  22.897  0.00  0.00    +0.169 C 
ENDROOT
BRANCH   1   2
ATOM      2  C   UNK A   1       6.291  -4.604  22.456  0.00  0.00    +0.235 C 
ATOM      3  N   UNK A   1       5.492  -5.054  23.495  0.00  0.00    -0.303 N 
ATOM      4  H   UNK A   1       5.930  -5.104  24.420  0.00  0.00    +0.149 HD
ATOM      5  O   UNK A   1       5.956  -4.727  21.282  0.00  0.00    -0.274 OA
BRANCH   3   6
ATOM      6  C   UNK A   1       4.320  -5.894  23.247  0.00  0.00    +0.224 C 
BRANCH   6   7
ATOM      7  C   UNK A   1       4.138  -6.997  24.288  0.00  0.00    +0.322 C 
ATOM      8  O   UNK A   1       4.716  -7.026  25.364  0.00  0.00    -0.249 OA
BRANCH   7   9
ATOM      9  O   UNK A   1       3.224  -7.931  23.925  0.00  0.00    -0.480 OA
ATOM     10  H   UNK A   1       2.435  -7.828  24.493  0.00  0.00    +0.295 HD
ENDBRANCH   7   9
ENDBRANCH   6   7
ENDBRANCH   3   6
ENDBRANCH   1   2
BRANCH   1  11
ATOM     11  N   UNK A   1       7.690  -3.974  24.364  0.00  0.00    -0.303 N 
ATOM     12  H   UNK A   1       6.980  -3.458  24.873  0.00  0.00    +0.149 HD
ATOM     13  C   UNK A   0       8.680  -4.639  25.044  0.00  0.00    +0.214 C 
ATOM     14  O   UNK A   0       9.512  -5.327  24.460  0.00  0.00    -0.276 OA
BRANCH  13  15
ATOM     15  C   UNK A   0       8.575  -4.543  26.552  0.00  0.00    +0.097 C 
BRANCH  15  16
ATOM     16  C   UNK A   0       7.427  -5.375  27.117  0.00  0.00    +0.024 C 
BRANCH  16  17
ATOM     17  C   UNK A   0       6.263  -4.500  27.583  0.00  0.00    +0.078 C 
BRANCH  17  18
ATOM     18  N   UNK A   0       5.370  -4.214  26.469  0.00  0.00    -0.330 NA
ATOM     19  H   UNK A   0       5.418  -3.222  26.235  0.00  0.00    +0.118 HD
ATOM     20  H   UNK A   0       5.665  -4.724  25.638  0.00  0.00    +0.118 HD
ENDBRANCH  17  18
ENDBRANCH  16  17
ENDBRANCH  15  16
ENDBRANCH  13  15
ENDBRANCH   1  11
BRANCH   1  21
ATOM     21  C   UNK A   1       7.776  -2.569  22.298  0.00  0.00    +0.101 C 
BRANCH  21  22
ATOM     22  S   UNK A   1       9.369  -1.747  22.693  0.00  0.00    -0.154 S 
BRANCH  22  23
ATOM     23  C   UNK A   1       9.388  -0.462  21.397  0.00  0.00    +0.104 C 
BRANCH  23  27
ATOM     24  C   UNK A   1       8.886   3.488  23.102  0.00  0.00    +0.120 A 
ATOM     25  C   UNK A   1      10.023   2.728  23.389  0.00  0.00    +0.046 A 
ATOM     26  C   UNK A   1      10.201   1.463  22.820  0.00  0.00    +0.008 A 
ATOM     27  C   UNK A   1       9.238   0.934  21.952  0.00  0.00    -0.037 A 
ATOM     28  C   UNK A   1       8.099   1.702  21.670  0.00  0.00    +0.008 A 
ATOM     29  C   UNK A   1       7.928   2.972  22.232  0.00  0.00    +0.046 A 
BRANCH  24  31
ATOM     30  C   UNK A   1      10.065   5.372  23.942  0.00  0.00    +0.277 C 
ATOM     31  O   UNK A   1       8.829   4.699  23.735  0.00  0.00    -0.495 OA
ENDBRANCH  24  31
ENDBRANCH  23  27
ENDBRANCH  22  23
ENDBRANCH  21  22
ENDBRANCH   1  21
TORSDOF 14
ENDMDL
MODEL 4
REMARK VINA RESULT:      -5.5      2.183      4.768
REMARK  Name = 
REMARK  15 active torsions:
REMARK  status: ('A' for Active; 'I' for Inactive)
REMARK    1  A    between atoms: C_1  and  O_2
REMARK    2  A    between atoms: O_2  and  C_3
REMARK    3  A    between atoms: C_6  and  C_7
REMARK    4  A    between atoms: C_7  and  S_8
REMARK    5  A    between atoms: S_8  and  C_9
REMARK    6  A    between atoms: C_9  and  C_10
REMARK    7  A    between atoms: C_10  and  N_12
REMARK    8  A    between atoms: C_10  and  C_19
REMARK    9  A    between atoms: C_13  and  C_15
REMARK   10  A    between atoms: C_15  and  C_16
REMARK   11  A    between atoms: C_16  and  C_17
REMARK   12  A    between atoms: C_17  and  N_18
REMARK   13  A    between atoms: N_21  and  CA_22
REMARK   14  A    between atoms: CA_22  and  C_23
REMARK   15  A    between atoms: C_23  and  O_24
REMARK                            x       y       z     vdW  Elec       q    Type
REMARK                         _______ _______ _______ _____ _____    ______ ____
ROOT
ATOM      1  C   UNK A   1       8.340  -3.451  25.081  0.00  0.00    +0.169 C 
ENDROOT
BRANCH   1   2
ATOM      2  C   UNK A   1       8.373  -4.623  24.081  0.00  0.00    +0.235 C 
ATOM      3  N   UNK A   1       7.452  -4.529  23.050  0.00  0.00    -0.303 N 
ATOM      4  H   UNK A   1       6.725  -3.813  23.149  0.00  0.00    +0.149 HD
ATOM      5  O   UNK A   1       9.130  -5.582  24.188  0.00  0.00    -0.274 OA
BRANCH   3   6
ATOM      6  C   UNK A   1       7.178  -5.663  22.167  0.00  0.00    +0.224 C 
BRANCH   6   7
ATOM      7  C   UNK A   1       6.199  -5.329  21.044  0.00  0.00    +0.322 C 
ATOM      8  O   UNK A   1       5.819  -6.131  20.204  0.00  0.00    -0.249 OA
BRANCH   7   9
ATOM      9  O   UNK A   1       5.742  -4.053  21.093  0.00  0.00    -0.480 OA
ATOM     10  H   UNK A   1       4.786  -4.059  20.882  0.00  0.00    +0.295 HD
ENDBRANCH   7   9
ENDBRANCH   6   7
ENDBRANCH   3   6
ENDBRANCH   1   2
BRANCH   1  11
ATOM     11  N   UNK A   1       9.252  -2.400  24.613  0.00  0.00    -0.303 N 
ATOM     12  H   UNK A   1      10.209  -2.411  24.951  0.00  0.00    +0.149 HD
ATOM     13  C   UNK A   0       8.838  -1.417  23.748  0.00  0.00    +0.214 C 
ATOM     14  O   UNK A   0       7.707  -1.417  23.268  0.00  0.00    -0.276 OA
BRANCH  13  15
ATOM     15  C   UNK A   0       9.918  -0.430  23.359  0.00  0.00    +0.097 C 
BRANCH  15  16
ATOM     16  C   UNK A   0       9.882  -0.070  21.876  0.00  0.00    +0.024 C 
BRANCH  16  17
ATOM     17  C   UNK A   0       9.221   1.287  21.635  0.00  0.00    +0.078 C 
BRANCH  17  18
ATOM     18  N   UNK A   0      10.202   2.356  21.763  0.00  0.00    -0.330 NA
ATOM     19  H   UNK A   0      11.142   1.973  21.667  0.00  0.00    +0.118 HD
ATOM     20  H   UNK A   0      10.087   3.035  21.013  0.00  0.00    +0.118 HD
ENDBRANCH  17  18
ENDBRANCH  16  17
ENDBRANCH  15  16
ENDBRANCH  13  15
ENDBRANCH   1  11
BRANCH   1  21
ATOM     21  C   UNK A   1       8.686  -3.947  26.493  0.00  0.00    +0.101 C 
BRANCH  21  22
ATOM     22  S   UNK A   1       7.542  -5.226  27.145  0.00  0.00    -0.154 S 
BRANCH  22  23
ATOM     23  C   UNK A   1       5.952  -4.352  26.949  0.00  0.00    +0.104 C 
BRANCH  23  27
ATOM     24  C   UNK A   1       3.567  -5.753  23.616  0.00  0.00    +0.120 A 
ATOM     25  C   UNK A   1       3.621  -4.393  23.930  0.00  0.00    +0.046 A 
ATOM     26  C   UNK A   1       4.409  -3.934  24.990  0.00  0.00    +0.008 A 
ATOM     27  C   UNK A   1       5.160  -4.833  25.757  0.00  0.00    -0.037 A 
ATOM     28  C   UNK A   1       5.101  -6.197  25.435  0.00  0.00    +0.008 A 
ATOM     29  C   UNK A   1       4.318  -6.653  24.369  0.00  0.00    +0.046 A 
BRANCH  24  31
ATOM     30  C   UNK A   1       1.741  -7.045  22.813  0.00  0.00    +0.277 C 
ATOM     31  O   UNK A   1       2.747  -6.069  22.568  0.00  0.00    -0.495 OA
ENDBRANCH  24  31
ENDBRANCH  23  27
ENDBRANCH  22  23
ENDBRANCH  21  22
ENDBRANCH   1  21
TORSDOF 14
ENDMDL
MODEL 5
REMARK VINA RESULT:      -5.5      2.686      8.018
REMARK  Name = 
REMARK  15 active torsions:
REMARK  status: ('A' for Active; 'I' for Inactive)
REMARK    1  A    between atoms: C_1  and  O_2
REMARK    2  A    between atoms: O_2  and  C_3
REMARK    3  A    between atoms: C_6  and  C_7
REMARK    4  A    between atoms: C_7  and  S_8
REMARK    5  A    between atoms: S_8  and  C_9
REMARK    6  A    between atoms: C_9  and  C_10
REMARK    7  A    between atoms: C_10  and  N_12
REMARK    8  A    between atoms: C_10  and  C_19
REMARK    9  A    between atoms: C_13  and  C_15
REMARK   10  A    between atoms: C_15  and  C_16
REMARK   11  A    between atoms: C_16  and  C_17
REMARK   12  A    between atoms: C_17  and  N_18
REMARK   13  A    between atoms: N_21  and  CA_22
REMARK   14  A    between atoms: CA_22  and  C_23
REMARK   15  A    between atoms: C_23  and  O_24
REMARK                            x       y       z     vdW  Elec       q    Type
REMARK                         _______ _______ _______ _____ _____    ______ ____
ROOT
ATOM      1  C   UNK A   1       8.285  -3.307  25.798  0.00  0.00    +0.169 C 
ENDROOT
BRANCH   1   2
ATOM      2  C   UNK A   1       7.637  -4.378  26.697  0.00  0.00    +0.235 C 
ATOM      3  N   UNK A   1       6.252  -4.349  26.724  0.00  0.00    -0.303 N 
ATOM      4  H   UNK A   1       5.803  -3.526  26.313  0.00  0.00    +0.149 HD
ATOM      5  O   UNK A   1       8.282  -5.182  27.362  0.00  0.00    -0.274 OA
BRANCH   3   6
ATOM      6  C   UNK A   1       5.493  -5.121  27.709  0.00  0.00    +0.224 C 
BRANCH   6   7
ATOM      7  C   UNK A   1       5.161  -6.536  27.239  0.00  0.00    +0.322 C 
ATOM      8  O   UNK A   1       4.851  -6.822  26.093  0.00  0.00    -0.249 OA
BRANCH   7   9
ATOM      9  O   UNK A   1       5.293  -7.470  28.214  0.00  0.00    -0.480 OA
ATOM     10  H   UNK A   1       5.957  -7.152  28.858  0.00  0.00    +0.295 HD
ENDBRANCH   7   9
ENDBRANCH   6   7
ENDBRANCH   3   6
ENDBRANCH   1   2
BRANCH   1  11
ATOM     11  N   UNK A   1       7.490  -2.075  25.877  0.00  0.00    -0.303 N 
ATOM     12  H   UNK A   1       6.578  -2.064  25.432  0.00  0.00    +0.149 HD
ATOM     13  C   UNK A   0       7.954  -0.957  26.524  0.00  0.00    +0.214 C 
ATOM     14  O   UNK A   0       9.022  -0.961  27.131  0.00  0.00    -0.276 OA
BRANCH  13  15
ATOM     15  C   UNK A   0       6.991   0.212  26.521  0.00  0.00    +0.097 C 
BRANCH  15  16
ATOM     16  C   UNK A   0       7.363   1.279  25.495  0.00  0.00    +0.024 C 
BRANCH  16  17
ATOM     17  C   UNK A   0       6.567   1.125  24.198  0.00  0.00    +0.078 C 
BRANCH  17  18
ATOM     18  N   UNK A   0       5.582   0.062  24.334  0.00  0.00    -0.330 NA
ATOM     19  H   UNK A   0       4.783   0.254  23.730  0.00  0.00    +0.118 HD
ATOM     20  H   UNK A   0       5.973  -0.826  24.024  0.00  0.00    +0.118 HD
ENDBRANCH  17  18
ENDBRANCH  16  17
ENDBRANCH  15  16
ENDBRANCH  13  15
ENDBRANCH   1  11
BRANCH   1  21
ATOM     21  C   UNK A   1       8.421  -3.831  24.361  0.00  0.00    +0.101 C 
BRANCH  21  22
ATOM     22  S   UNK A   1       8.290  -2.533  23.070  0.00  0.00    -0.154 S 
BRANCH  22  23
ATOM     23  C   UNK A   1      10.032  -1.992  22.993  0.00  0.00    +0.104 C 
BRANCH  23  27
ATOM     24  C   UNK A   1      10.329   2.326  23.180  0.00  0.00    +0.120 A 
ATOM     25  C   UNK A   1      10.737   1.537  24.258  0.00  0.00    +0.046 A 
ATOM     26  C   UNK A   1      10.666   0.142  24.193  0.00  0.00    +0.008 A 
ATOM     27  C   UNK A   1      10.182  -0.490  23.040  0.00  0.00    -0.037 A 
ATOM     28  C   UNK A   1       9.774   0.309  21.962  0.00  0.00    +0.008 A 
ATOM     29  C   UNK A   1       9.854   1.704  22.027  0.00  0.00    +0.046 A 
BRANCH  24  31
ATOM     30  C   UNK A   1      11.746   4.227  23.336  0.00  0.00    +0.277 C 
ATOM     31  O   UNK A   1      10.436   3.674  23.382  0.00  0.00    -0.495 OA
ENDBRANCH  24  31
ENDBRANCH  23  27
ENDBRANCH  22  23
ENDBRANCH  21  22
ENDBRANCH   1  21
TORSDOF 14
ENDMDL
MODEL 6
REMARK VINA RESULT:      -5.4      2.733      7.135
REMARK  Name = 
REMARK  15 active torsions:
REMARK  status: ('A' for Active; 'I' for Inactive)
REMARK    1  A    between atoms: C_1  and  O_2
REMARK    2  A    between atoms: O_2  and  C_3
REMARK    3  A    between atoms: C_6  and  C_7
REMARK    4  A    between atoms: C_7  and  S_8
REMARK    5  A    between atoms: S_8  and  C_9
REMARK    6  A    between atoms: C_9  and  C_10
REMARK    7  A    between atoms: C_10  and  N_12
REMARK    8  A    between atoms: C_10  and  C_19
REMARK    9  A    between atoms: C_13  and  C_15
REMARK   10  A    between atoms: C_15  and  C_16
REMARK   11  A    between atoms: C_16  and  C_17
REMARK   12  A    between atoms: C_17  and  N_18
REMARK   13  A    between atoms: N_21  and  CA_22
REMARK   14  A    between atoms: CA_22  and  C_23
REMARK   15  A    between atoms: C_23  and  O_24
REMARK                            x       y       z     vdW  Elec       q    Type
REMARK                         _______ _______ _______ _____ _____    ______ ____
ROOT
ATOM      1  C   UNK A   1       8.978  -2.237  24.198  0.00  0.00    +0.169 C 
ENDROOT
BRANCH   1   2
ATOM      2  C   UNK A   1       8.176  -2.383  22.891  0.00  0.00    +0.235 C 
ATOM      3  N   UNK A   1       6.980  -3.070  23.020  0.00  0.00    -0.303 N 
ATOM      4  H   UNK A   1       6.832  -3.571  23.901  0.00  0.00    +0.149 HD
ATOM      5  O   UNK A   1       8.563  -1.953  21.808  0.00  0.00    -0.274 OA
BRANCH   3   6
ATOM      6  C   UNK A   1       6.226  -3.514  21.846  0.00  0.00    +0.224 C 
BRANCH   6   7
ATOM      7  C   UNK A   1       6.458  -4.983  21.501  0.00  0.00    +0.322 C 
ATOM      8  O   UNK A   1       5.987  -5.541  20.522  0.00  0.00    -0.249 OA
BRANCH   7   9
ATOM      9  O   UNK A   1       7.290  -5.613  22.368  0.00  0.00    -0.480 OA
ATOM     10  H   UNK A   1       6.762  -5.931  23.128  0.00  0.00    +0.295 HD
ENDBRANCH   7   9
ENDBRANCH   6   7
ENDBRANCH   3   6
ENDBRANCH   1   2
BRANCH   1  11
ATOM     11  N   UNK A   1       8.504  -3.238  25.161  0.00  0.00    -0.303 N 
ATOM     12  H   UNK A   1       7.640  -3.051  25.660  0.00  0.00    +0.149 HD
ATOM     13  C   UNK A   0       9.200  -4.397  25.399  0.00  0.00    +0.214 C 
ATOM     14  O   UNK A   0      10.210  -4.684  24.762  0.00  0.00    -0.276 OA
BRANCH  13  15
ATOM     15  C   UNK A   0       8.551  -5.320  26.409  0.00  0.00    +0.097 C 
BRANCH  15  16
ATOM     16  C   UNK A   0       7.262  -4.745  26.990  0.00  0.00    +0.024 C 
BRANCH  16  17
ATOM     17  C   UNK A   0       6.026  -5.490  26.485  0.00  0.00    +0.078 C 
BRANCH  17  18
ATOM     18  N   UNK A   0       5.852  -5.267  25.056  0.00  0.00    -0.330 NA
ATOM     19  H   UNK A   0       6.280  -4.379  24.792  0.00  0.00    +0.118 HD
ATOM     20  H   UNK A   0       6.331  -5.991  24.523  0.00  0.00    +0.118 HD
ENDBRANCH  17  18
ENDBRANCH  16  17
ENDBRANCH  15  16
ENDBRANCH  13  15
ENDBRANCH   1  11
BRANCH   1  21
ATOM     21  C   UNK A   1       8.865  -0.802  24.734  0.00  0.00    +0.101 C 
BRANCH  21  22
ATOM     22  S   UNK A   1      10.407   0.182  24.588  0.00  0.00    -0.154 S 
BRANCH  22  23
ATOM     23  C   UNK A   1      10.181   0.873  22.914  0.00  0.00    +0.104 C 
BRANCH  23  27
ATOM     24  C   UNK A   1       7.568   4.323  22.745  0.00  0.00    +0.120 A 
ATOM     25  C   UNK A   1       7.368   3.237  21.889  0.00  0.00    +0.046 A 
ATOM     26  C   UNK A   1       8.194   2.110  21.958  0.00  0.00    +0.008 A 
ATOM     27  C   UNK A   1       9.239   2.053  22.888  0.00  0.00    -0.037 A 
ATOM     28  C   UNK A   1       9.433   3.147  23.743  0.00  0.00    +0.008 A 
ATOM     29  C   UNK A   1       8.600   4.269  23.679  0.00  0.00    +0.046 A 
BRANCH  24  31
ATOM     30  C   UNK A   1       7.207   6.508  21.883  0.00  0.00    +0.277 C 
ATOM     31  O   UNK A   1       6.701   5.365  22.563  0.00  0.00    -0.495 OA
ENDBRANCH  24  31
ENDBRANCH  23  27
ENDBRANCH  22  23
ENDBRANCH  21  22
ENDBRANCH   1  21
TORSDOF 14
ENDMDL
MODEL 7
REMARK VINA RESULT:      -5.4      2.734      7.316
REMARK  Name = 
REMARK  15 active torsions:
REMARK  status: ('A' for Active; 'I' for Inactive)
REMARK    1  A    between atoms: C_1  and  O_2
REMARK    2  A    between atoms: O_2  and  C_3
REMARK    3  A    between atoms: C_6  and  C_7
REMARK    4  A    between atoms: C_7  and  S_8
REMARK    5  A    between atoms: S_8  and  C_9
REMARK    6  A    between atoms: C_9  and  C_10
REMARK    7  A    between atoms: C_10  and  N_12
REMARK    8  A    between atoms: C_10  and  C_19
REMARK    9  A    between atoms: C_13  and  C_15
REMARK   10  A    between atoms: C_15  and  C_16
REMARK   11  A    between atoms: C_16  and  C_17
REMARK   12  A    between atoms: C_17  and  N_18
REMARK   13  A    between atoms: N_21  and  CA_22
REMARK   14  A    between atoms: CA_22  and  C_23
REMARK   15  A    between atoms: C_23  and  O_24
REMARK                            x       y       z     vdW  Elec       q    Type
REMARK                         _______ _______ _______ _____ _____    ______ ____
ROOT
ATOM      1  C   UNK A   1       8.417  -3.524  25.380  0.00  0.00    +0.169 C 
ENDROOT
BRANCH   1   2
ATOM      2  C   UNK A   1       8.447  -4.633  24.312  0.00  0.00    +0.235 C 
ATOM      3  N   UNK A   1       7.479  -4.513  23.327  0.00  0.00    -0.303 N 
ATOM      4  H   UNK A   1       6.734  -3.831  23.497  0.00  0.00    +0.149 HD
ATOM      5  O   UNK A   1       9.240  -5.568  24.330  0.00  0.00    -0.274 OA
BRANCH   3   6
ATOM      6  C   UNK A   1       7.207  -5.603  22.389  0.00  0.00    +0.224 C 
BRANCH   6   7
ATOM      7  C   UNK A   1       6.070  -5.292  21.418  0.00  0.00    +0.322 C 
ATOM      8  O   UNK A   1       5.780  -4.168  21.039  0.00  0.00    -0.249 OA
BRANCH   7   9
ATOM      9  O   UNK A   1       5.431  -6.401  20.968  0.00  0.00    -0.480 OA
ATOM     10  H   UNK A   1       4.646  -6.119  20.458  0.00  0.00    +0.295 HD
ENDBRANCH   7   9
ENDBRANCH   6   7
ENDBRANCH   3   6
ENDBRANCH   1   2
BRANCH   1  11
ATOM     11  N   UNK A   1       7.132  -3.580  26.089  0.00  0.00    -0.303 N 
ATOM     12  H   UNK A   1       6.396  -2.945  25.796  0.00  0.00    +0.149 HD
ATOM     13  C   UNK A   0       6.916  -4.454  27.125  0.00  0.00    +0.214 C 
ATOM     14  O   UNK A   0       7.761  -5.281  27.456  0.00  0.00    -0.276 OA
BRANCH  13  15
ATOM     15  C   UNK A   0       5.526  -4.384  27.722  0.00  0.00    +0.097 C 
BRANCH  15  16
ATOM     16  C   UNK A   0       5.419  -5.123  29.054  0.00  0.00    +0.024 C 
BRANCH  16  17
ATOM     17  C   UNK A   0       4.650  -6.437  28.918  0.00  0.00    +0.078 C 
BRANCH  17  18
ATOM     18  N   UNK A   0       5.526  -7.484  28.410  0.00  0.00    -0.330 NA
ATOM     19  H   UNK A   0       5.713  -8.164  29.147  0.00  0.00    +0.118 HD
ATOM     20  H   UNK A   0       5.070  -7.993  27.654  0.00  0.00    +0.118 HD
ENDBRANCH  17  18
ENDBRANCH  16  17
ENDBRANCH  15  16
ENDBRANCH  13  15
ENDBRANCH   1  11
BRANCH   1  21
ATOM     21  C   UNK A   1       8.675  -2.155  24.734  0.00  0.00    +0.101 C 
BRANCH  21  22
ATOM     22  S   UNK A   1      10.113  -2.119  23.593  0.00  0.00    -0.154 S 
BRANCH  22  23
ATOM     23  C   UNK A   1       9.395  -1.160  22.216  0.00  0.00    +0.104 C 
BRANCH  23  27
ATOM     24  C   UNK A   1       9.189   3.073  23.114  0.00  0.00    +0.120 A 
ATOM     25  C   UNK A   1      10.159   2.265  23.711  0.00  0.00    +0.046 A 
ATOM     26  C   UNK A   1      10.246   0.904  23.405  0.00  0.00    +0.008 A 
ATOM     27  C   UNK A   1       9.356   0.324  22.491  0.00  0.00    -0.037 A 
ATOM     28  C   UNK A   1       8.384   1.141  21.896  0.00  0.00    +0.008 A 
ATOM     29  C   UNK A   1       8.306   2.505  22.198  0.00  0.00    +0.046 A 
BRANCH  24  31
ATOM     30  C   UNK A   1      10.476   4.941  23.820  0.00  0.00    +0.277 C 
ATOM     31  O   UNK A   1       9.204   4.381  23.512  0.00  0.00    -0.495 OA
ENDBRANCH  24  31
ENDBRANCH  23  27
ENDBRANCH  22  23
ENDBRANCH  21  22
ENDBRANCH   1  21
TORSDOF 14
ENDMDL
MODEL 8
REMARK VINA RESULT:      -5.4      2.768      7.506
REMARK  Name = 
REMARK  15 active torsions:
REMARK  status: ('A' for Active; 'I' for Inactive)
REMARK    1  A    between atoms: C_1  and  O_2
REMARK    2  A    between atoms: O_2  and  C_3
REMARK    3  A    between atoms: C_6  and  C_7
REMARK    4  A    between atoms: C_7  and  S_8
REMARK    5  A    between atoms: S_8  and  C_9
REMARK    6  A    between atoms: C_9  and  C_10
REMARK    7  A    between atoms: C_10  and  N_12
REMARK    8  A    between atoms: C_10  and  C_19
REMARK    9  A    between atoms: C_13  and  C_15
REMARK   10  A    between atoms: C_15  and  C_16
REMARK   11  A    between atoms: C_16  and  C_17
REMARK   12  A    between atoms: C_17  and  N_18
REMARK   13  A    between atoms: N_21  and  CA_22
REMARK   14  A    between atoms: CA_22  and  C_23
REMARK   15  A    between atoms: C_23  and  O_24
REMARK                            x       y       z     vdW  Elec       q    Type
REMARK                         _______ _______ _______ _____ _____    ______ ____
ROOT
ATOM      1  C   UNK A   1       7.999  -2.616  23.445  0.00  0.00    +0.169 C 
ENDROOT
BRANCH   1   2
ATOM      2  C   UNK A   1       7.315  -2.655  24.824  0.00  0.00    +0.235 C 
ATOM      3  N   UNK A   1       7.612  -3.774  25.586  0.00  0.00    -0.303 N 
ATOM      4  H   UNK A   1       8.089  -4.542  25.104  0.00  0.00    +0.149 HD
ATOM      5  O   UNK A   1       6.545  -1.787  25.222  0.00  0.00    -0.274 OA
BRANCH   3   6
ATOM      6  C   UNK A   1       6.860  -4.091  26.801  0.00  0.00    +0.224 C 
BRANCH   6   7
ATOM      7  C   UNK A   1       6.719  -5.592  27.047  0.00  0.00    +0.322 C 
ATOM      8  O   UNK A   1       5.890  -6.301  26.499  0.00  0.00    -0.249 OA
BRANCH   7   9
ATOM      9  O   UNK A   1       7.645  -6.084  27.907  0.00  0.00    -0.480 OA
ATOM     10  H   UNK A   1       7.408  -5.799  28.812  0.00  0.00    +0.295 HD
ENDBRANCH   7   9
ENDBRANCH   6   7
ENDBRANCH   3   6
ENDBRANCH   1   2
BRANCH   1  11
ATOM     11  N   UNK A   1       7.631  -3.824  22.696  0.00  0.00    -0.303 N 
ATOM     12  H   UNK A   1       8.240  -4.633  22.762  0.00  0.00    +0.149 HD
ATOM     13  C   UNK A   0       6.502  -3.875  21.917  0.00  0.00    +0.214 C 
ATOM     14  O   UNK A   0       5.709  -2.938  21.871  0.00  0.00    -0.276 OA
BRANCH  13  15
ATOM     15  C   UNK A   0       6.272  -5.207  21.235  0.00  0.00    +0.097 C 
BRANCH  15  16
ATOM     16  C   UNK A   0       6.078  -6.351  22.227  0.00  0.00    +0.024 C 
BRANCH  16  17
ATOM     17  C   UNK A   0       4.901  -6.098  23.169  0.00  0.00    +0.078 C 
BRANCH  17  18
ATOM     18  N   UNK A   0       4.541  -7.324  23.867  0.00  0.00    -0.330 NA
ATOM     19  H   UNK A   0       4.769  -8.131  23.286  0.00  0.00    +0.118 HD
ATOM     20  H   UNK A   0       5.087  -7.418  24.722  0.00  0.00    +0.118 HD
ENDBRANCH  17  18
ENDBRANCH  16  17
ENDBRANCH  15  16
ENDBRANCH  13  15
ENDBRANCH   1  11
BRANCH   1  21
ATOM     21  C   UNK A   1       9.518  -2.463  23.609  0.00  0.00    +0.101 C 
BRANCH  21  22
ATOM     22  S   UNK A   1      10.300  -1.340  22.386  0.00  0.00    -0.154 S 
BRANCH  22  23
ATOM     23  C   UNK A   1       8.881  -0.257  22.004  0.00  0.00    +0.104 C 
BRANCH  23  27
ATOM     24  C   UNK A   1       9.335   3.749  23.587  0.00  0.00    +0.120 A 
ATOM     25  C   UNK A   1      10.316   2.781  23.810  0.00  0.00    +0.046 A 
ATOM     26  C   UNK A   1      10.186   1.493  23.279  0.00  0.00    +0.008 A 
ATOM     27  C   UNK A   1       9.064   1.152  22.513  0.00  0.00    -0.037 A 
ATOM     28  C   UNK A   1       8.083   2.129  22.295  0.00  0.00    +0.008 A 
ATOM     29  C   UNK A   1       8.220   3.419  22.820  0.00  0.00    +0.046 A 
BRANCH  24  31
ATOM     30  C   UNK A   1      10.654   5.724  23.644  0.00  0.00    +0.277 C 
ATOM     31  O   UNK A   1       9.578   4.960  24.175  0.00  0.00    -0.495 OA
ENDBRANCH  24  31
ENDBRANCH  23  27
ENDBRANCH  22  23
ENDBRANCH  21  22
ENDBRANCH   1  21
TORSDOF 14
ENDMDL
MODEL 9
REMARK VINA RESULT:      -5.4      3.567      5.719
REMARK  Name = 
REMARK  15 active torsions:
REMARK  status: ('A' for Active; 'I' for Inactive)
REMARK    1  A    between atoms: C_1  and  O_2
REMARK    2  A    between atoms: O_2  and  C_3
REMARK    3  A    between atoms: C_6  and  C_7
REMARK    4  A    between atoms: C_7  and  S_8
REMARK    5  A    between atoms: S_8  and  C_9
REMARK    6  A    between atoms: C_9  and  C_10
REMARK    7  A    between atoms: C_10  and  N_12
REMARK    8  A    between atoms: C_10  and  C_19
REMARK    9  A    between atoms: C_13  and  C_15
REMARK   10  A    between atoms: C_15  and  C_16
REMARK   11  A    between atoms: C_16  and  C_17
REMARK   12  A    between atoms: C_17  and  N_18
REMARK   13  A    between atoms: N_21  and  CA_22
REMARK   14  A    between atoms: CA_22  and  C_23
REMARK   15  A    between atoms: C_23  and  O_24
REMARK                            x       y       z     vdW  Elec       q    Type
REMARK                         _______ _______ _______ _____ _____    ______ ____
ROOT
ATOM      1  C   UNK A   1       9.383   2.619  23.534  0.00  0.00    +0.169 C 
ENDROOT
BRANCH   1   2
ATOM      2  C   UNK A   1       9.454   4.077  24.025  0.00  0.00    +0.235 C 
ATOM      3  N   UNK A   1      10.468   4.831  23.454  0.00  0.00    -0.303 N 
ATOM      4  H   UNK A   1      11.176   4.317  22.921  0.00  0.00    +0.149 HD
ATOM      5  O   UNK A   1       8.699   4.544  24.872  0.00  0.00    -0.274 OA
BRANCH   3   6
ATOM      6  C   UNK A   1      10.833   6.145  23.986  0.00  0.00    +0.224 C 
BRANCH   6   7
ATOM      7  C   UNK A   1      12.268   6.207  24.503  0.00  0.00    +0.322 C 
ATOM      8  O   UNK A   1      12.597   6.743  25.550  0.00  0.00    -0.249 OA
BRANCH   7   9
ATOM      9  O   UNK A   1      13.154   5.559  23.706  0.00  0.00    -0.480 OA
ATOM     10  H   UNK A   1      12.964   5.797  22.776  0.00  0.00    +0.295 HD
ENDBRANCH   7   9
ENDBRANCH   6   7
ENDBRANCH   3   6
ENDBRANCH   1   2
BRANCH   1  11
ATOM     11  N   UNK A   1       8.247   1.953  24.183  0.00  0.00    -0.303 N 
ATOM     12  H   UNK A   1       8.216   1.939  25.197  0.00  0.00    +0.149 HD
ATOM     13  C   UNK A   0       7.249   1.353  23.455  0.00  0.00    +0.214 C 
ATOM     14  O   UNK A   0       7.222   1.413  22.229  0.00  0.00    -0.276 OA
BRANCH  13  15
ATOM     15  C   UNK A   0       6.150   0.734  24.293  0.00  0.00    +0.097 C 
BRANCH  15  16
ATOM     16  C   UNK A   0       6.658  -0.382  25.201  0.00  0.00    +0.024 C 
BRANCH  16  17
ATOM     17  C   UNK A   0       6.563  -0.003  26.680  0.00  0.00    +0.078 C 
BRANCH  17  18
ATOM     18  N   UNK A   0       7.731   0.771  27.078  0.00  0.00    -0.330 NA
ATOM     19  H   UNK A   0       7.433   1.665  27.469  0.00  0.00    +0.118 HD
ATOM     20  H   UNK A   0       8.243   0.288  27.814  0.00  0.00    +0.118 HD
ENDBRANCH  17  18
ENDBRANCH  16  17
ENDBRANCH  15  16
ENDBRANCH  13  15
ENDBRANCH   1  11
BRANCH   1  21
ATOM     21  C   UNK A   1      10.716   1.903  23.797  0.00  0.00    +0.101 C 
BRANCH  21  22
ATOM     22  S   UNK A   1      10.542   0.230  24.531  0.00  0.00    -0.154 S 
BRANCH  22  23
ATOM     23  C   UNK A   1      10.382  -0.765  23.009  0.00  0.00    +0.104 C 
BRANCH  23  27
ATOM     24  C   UNK A   1       7.640  -4.103  23.324  0.00  0.00    +0.120 A 
ATOM     25  C   UNK A   1       8.709  -3.974  24.214  0.00  0.00    +0.046 A 
ATOM     26  C   UNK A   1       9.582  -2.884  24.132  0.00  0.00    +0.008 A 
ATOM     27  C   UNK A   1       9.399  -1.901  23.151  0.00  0.00    -0.037 A 
ATOM     28  C   UNK A   1       8.324  -2.039  22.261  0.00  0.00    +0.008 A 
ATOM     29  C   UNK A   1       7.447  -3.125  22.351  0.00  0.00    +0.046 A 
BRANCH  24  31
ATOM     30  C   UNK A   1       6.544  -5.967  22.338  0.00  0.00    +0.277 C 
ATOM     31  O   UNK A   1       6.874  -5.222  23.505  0.00  0.00    -0.495 OA
ENDBRANCH  24  31
ENDBRANCH  23  27
ENDBRANCH  22  23
ENDBRANCH  21  22
ENDBRANCH   1  21
TORSDOF 14
ENDMDL
