MODEL 1
REMARK VINA RESULT:      -6.0      0.000      0.000
REMARK  Name = 
REMARK  31 active torsions:
REMARK  status: ('A' for Active; 'I' for Inactive)
REMARK    1  A    between atoms: C_1  and  C_2
REMARK    2  A    between atoms: C_2  and  C_3
REMARK    3  A    between atoms: C_2  and  C_4
REMARK    4  A    between atoms: C_2  and  C_40
REMARK    5  A    between atoms: C_4  and  O_5
REMARK    6  A    between atoms: O_5  and  P_6
REMARK    7  A    between atoms: P_6  and  O_7
REMARK    8  A    between atoms: P_6  and  O_9
REMARK    9  A    between atoms: O_9  and  P_10
REMARK   10  A    between atoms: P_10  and  O_11
REMARK   11  A    between atoms: P_10  and  O_13
REMARK   12  A    between atoms: O_13  and  C_14
REMARK   13  A    between atoms: C_14  and  C_15
REMARK   14  A    between atoms: C_18  and  N_30
REMARK   15  A    between atoms: C_20  and  O_22
REMARK   16  A    between atoms: C_23  and  O_25
REMARK   17  A    between atoms: O_25  and  P_26
REMARK   18  A    between atoms: P_26  and  O_27
REMARK   19  A    between atoms: P_26  and  O_28
REMARK   20  A    between atoms: C_40  and  O_42
REMARK   21  A    between atoms: C_40  and  C_43
REMARK   22  A    between atoms: N_45  and  C_46
REMARK   23  A    between atoms: C_46  and  C_47
REMARK   24  A    between atoms: C_47  and  C_48
REMARK   25  A    between atoms: N_50  and  C_51
REMARK   26  A    between atoms: C_51  and  C_52
REMARK   27  A    between atoms: C_52  and  S_53
REMARK   28  A    between atoms: S_53  and  C_54
REMARK   29  A    between atoms: C_54  and  C_56
REMARK   30  A    between atoms: C_56  and  C_57
REMARK   31  A    between atoms: C_57  and  O_58
REMARK                            x       y       z     vdW  Elec       q    Type
REMARK                         _______ _______ _______ _____ _____    ______ ____
ROOT
ATOM      1  O   UNL     1       4.537  -6.174  24.279  0.00  0.00    -0.186 OA
ENDROOT
BRANCH   1   2
ATOM      2  P   UNL     1       5.324  -5.230  23.062  0.00  0.00    +0.483 P 
ATOM      3  O   UNL     1       3.978  -4.534  22.860  0.00  0.00    -0.227 OA
BRANCH   2   4
ATOM      4  O   UNL     1       5.246  -6.486  22.037  0.00  0.00    -0.302 OA
ATOM      5  H   UNL     1       4.488  -6.338  21.426  0.00  0.00    +0.222 HD
ENDBRANCH   2   4
BRANCH   2   6
ATOM      6  O   UNL     1       6.112  -4.287  21.845  0.00  0.00    -0.284 OA
BRANCH   6   7
ATOM      7  C   UNL     1       7.458  -3.922  22.185  0.00  0.00    +0.206 C 
BRANCH   7   8
ATOM      8  C   UNL     1       7.527  -3.189  23.503  0.00  0.00    +0.179 C 
ATOM      9  C   UNL     1       8.951  -3.227  24.053  0.00  0.00    +0.194 C 
ATOM     10  C   UNL     1       9.549  -1.854  23.662  0.00  0.00    +0.196 C 
ATOM     11  C   UNL     1       8.434  -1.183  22.842  0.00  0.00    +0.253 C 
ATOM     12  O   UNL     1       7.222  -1.819  23.276  0.00  0.00    -0.346 OA
BRANCH  11  13
ATOM     13  N   UNL     1       8.182   0.234  22.908  0.00  0.00    -0.286 N 
ATOM     14  C   UNL     1       9.039   1.274  23.144  0.00  0.00    +0.167 A 
ATOM     15  N   UNL     1      10.342   1.216  23.466  0.00  0.00    -0.216 NA
ATOM     16  C   UNL     1      10.832   2.466  23.657  0.00  0.00    +0.225 A 
ATOM     17  N   UNL     1      10.192   3.657  23.540  0.00  0.00    -0.219 NA
ATOM     18  C   UNL     1       8.896   3.641  23.174  0.00  0.00    +0.147 A 
ATOM     19  N   UNL     1       8.209   4.845  23.017  0.00  0.00    -0.341 N 
ATOM     20  H   UNL     1       7.206   4.731  23.062  0.00  0.00    +0.144 HD
ATOM     21  H   UNL     1       8.618   5.594  23.565  0.00  0.00    +0.144 HD
ATOM     22  C   UNL     1       8.265   2.407  22.970  0.00  0.00    +0.147 A 
ATOM     23  N   UNL     1       6.977   2.096  22.611  0.00  0.00    -0.231 NA
ATOM     24  C   UNL     1       6.968   0.785  22.562  0.00  0.00    +0.203 A 
ENDBRANCH  11  13
BRANCH  10  25
ATOM     25  O   UNL     1      10.713  -2.067  22.851  0.00  0.00    -0.385 OA
ATOM     26  H   UNL     1      11.060  -2.955  23.067  0.00  0.00    +0.210 HD
ENDBRANCH  10  25
BRANCH   9  27
ATOM     27  O   UNL     1       8.915  -3.362  25.474  0.00  0.00    -0.278 OA
BRANCH  27  28
ATOM     28  P   UNL     1       8.067  -4.750  26.062  0.00  0.00    +0.473 P 
ATOM     29  O   UNL     1       7.308  -5.992  26.587  0.00  0.00    -0.228 OA
BRANCH  28  30
ATOM     30  O   UNL     1       7.247  -3.699  27.005  0.00  0.00    -0.303 OA
ATOM     31  H   UNL     1       7.455  -2.782  26.752  0.00  0.00    +0.222 HD
ENDBRANCH  28  30
BRANCH  28  32
ATOM     32  O   UNL     1       9.367  -4.906  27.035  0.00  0.00    -0.303 OA
ATOM     33  H   UNL     1      10.092  -4.388  26.639  0.00  0.00    +0.222 HD
ENDBRANCH  28  32
ENDBRANCH  27  28
ENDBRANCH   9  27
ENDBRANCH   7   8
ENDBRANCH   6   7
ENDBRANCH   2   6
ENDBRANCH   1   2
BRANCH   1  34
ATOM     34  P   UNL     1       3.137  -6.933  24.169  0.00  0.00    +0.483 P 
ATOM     35  O   UNL     1       3.122  -8.320  24.713  0.00  0.00    -0.227 OA
BRANCH  34  36
ATOM     36  O   UNL     1       2.650  -6.873  22.647  0.00  0.00    -0.302 OA
ATOM     37  H   UNL     1       3.251  -6.265  22.165  0.00  0.00    +0.222 HD
ENDBRANCH  34  36
BRANCH  34  38
ATOM     38  O   UNL     1       2.117  -5.951  24.930  0.00  0.00    -0.286 OA
BRANCH  38  39
ATOM     39  C   UNL     1       2.180  -5.814  26.342  0.00  0.00    +0.181 C 
BRANCH  39  41
ATOM     40  C   UNL     1       1.680  -3.516  25.489  0.00  0.00    +0.016 C 
ATOM     41  C   UNL     1       2.108  -4.318  26.733  0.00  0.00    +0.024 C 
ATOM     42  C   UNL     1       1.016  -4.191  27.821  0.00  0.00    +0.016 C 
BRANCH  41  43
ATOM     43  C   UNL     1       3.499  -3.834  27.235  0.00  0.00    +0.208 C 
BRANCH  43  44
ATOM     44  C   UNL     1       3.836  -2.363  26.896  0.00  0.00    +0.242 C 
ATOM     45  N   UNL     1       4.854  -2.219  25.984  0.00  0.00    -0.313 N 
ATOM     46  H   UNL     1       4.977  -3.011  25.357  0.00  0.00    +0.149 HD
ATOM     47  O   UNL     1       3.309  -1.396  27.437  0.00  0.00    -0.273 OA
BRANCH  45  48
ATOM     48  C   UNL     1       5.302  -0.901  25.584  0.00  0.00    +0.113 C 
BRANCH  48  49
ATOM     49  C   UNL     1       6.479  -0.370  26.405  0.00  0.00    +0.114 C 
BRANCH  49  50
ATOM     50  C   UNL     1       6.258   1.033  26.918  0.00  0.00    +0.215 C 
ATOM     51  N   UNL     1       5.032   1.229  27.516  0.00  0.00    -0.314 N 
ATOM     52  H   UNL     1       4.498   0.415  27.784  0.00  0.00    +0.149 HD
ATOM     53  O   UNL     1       7.119   1.902  26.818  0.00  0.00    -0.276 OA
BRANCH  51  54
ATOM     54  C   UNL     1       4.598   2.503  28.061  0.00  0.00    +0.115 C 
BRANCH  54  55
ATOM     55  C   UNL     1       3.571   3.271  27.237  0.00  0.00    +0.096 C 
BRANCH  55  56
ATOM     56  S   UNL     1       4.343   4.316  25.944  0.00  0.00    -0.086 S 
BRANCH  56  57
ATOM     57  C   UNL     1       3.812   3.317  24.584  0.00  0.00    +0.200 C 
ATOM     58  O   UNL     1       4.122   2.138  24.536  0.00  0.00    -0.285 OA
BRANCH  57  59
ATOM     59  C   UNL     1       2.979   4.025  23.559  0.00  0.00    +0.206 C 
BRANCH  59  60
ATOM     60  C   UNL     1       3.380   3.619  22.172  0.00  0.00    +0.313 C 
ATOM     61  O   UNL     1       2.629   3.272  21.267  0.00  0.00    -0.251 OA
BRANCH  60  62
ATOM     62  O   UNL     1       4.696   3.708  21.923  0.00  0.00    -0.480 OA
ATOM     63  H   UNL     1       4.957   4.015  21.032  0.00  0.00    +0.295 HD
ENDBRANCH  60  62
ENDBRANCH  59  60
ENDBRANCH  57  59
ENDBRANCH  56  57
ENDBRANCH  55  56
ENDBRANCH  54  55
ENDBRANCH  51  54
ENDBRANCH  49  50
ENDBRANCH  48  49
ENDBRANCH  45  48
ENDBRANCH  43  44
BRANCH  43  64
ATOM     64  O   UNL     1       4.552  -4.665  26.705  0.00  0.00    -0.382 OA
ATOM     65  H   UNL     1       4.193  -5.132  25.937  0.00  0.00    +0.210 HD
ENDBRANCH  43  64
ENDBRANCH  41  43
ENDBRANCH  39  41
ENDBRANCH  38  39
ENDBRANCH  34  38
ENDBRANCH   1  34
TORSDOF 29
ENDMDL
MODEL 2
REMARK VINA RESULT:      -5.9      3.791      7.232
REMARK  Name = 
REMARK  31 active torsions:
REMARK  status: ('A' for Active; 'I' for Inactive)
REMARK    1  A    between atoms: C_1  and  C_2
REMARK    2  A    between atoms: C_2  and  C_3
REMARK    3  A    between atoms: C_2  and  C_4
REMARK    4  A    between atoms: C_2  and  C_40
REMARK    5  A    between atoms: C_4  and  O_5
REMARK    6  A    between atoms: O_5  and  P_6
REMARK    7  A    between atoms: P_6  and  O_7
REMARK    8  A    between atoms: P_6  and  O_9
REMARK    9  A    between atoms: O_9  and  P_10
REMARK   10  A    between atoms: P_10  and  O_11
REMARK   11  A    between atoms: P_10  and  O_13
REMARK   12  A    between atoms: O_13  and  C_14
REMARK   13  A    between atoms: C_14  and  C_15
REMARK   14  A    between atoms: C_18  and  N_30
REMARK   15  A    between atoms: C_20  and  O_22
REMARK   16  A    between atoms: C_23  and  O_25
REMARK   17  A    between atoms: O_25  and  P_26
REMARK   18  A    between atoms: P_26  and  O_27
REMARK   19  A    between atoms: P_26  and  O_28
REMARK   20  A    between atoms: C_40  and  O_42
REMARK   21  A    between atoms: C_40  and  C_43
REMARK   22  A    between atoms: N_45  and  C_46
REMARK   23  A    between atoms: C_46  and  C_47
REMARK   24  A    between atoms: C_47  and  C_48
REMARK   25  A    between atoms: N_50  and  C_51
REMARK   26  A    between atoms: C_51  and  C_52
REMARK   27  A    between atoms: C_52  and  S_53
REMARK   28  A    between atoms: S_53  and  C_54
REMARK   29  A    between atoms: C_54  and  C_56
REMARK   30  A    between atoms: C_56  and  C_57
REMARK   31  A    between atoms: C_57  and  O_58
REMARK                            x       y       z     vdW  Elec       q    Type
REMARK                         _______ _______ _______ _____ _____    ______ ____
ROOT
ATOM      1  O   UNL     1       4.287   2.366  24.699  0.00  0.00    -0.186 OA
ENDROOT
BRANCH   1   2
ATOM      2  P   UNL     1       5.649   2.737  23.700  0.00  0.00    +0.483 P 
ATOM      3  O   UNL     1       4.638   3.209  22.655  0.00  0.00    -0.227 OA
BRANCH   2   4
ATOM      4  O   UNL     1       5.826   1.161  23.355  0.00  0.00    -0.302 OA
ATOM      5  H   UNL     1       6.721   0.879  23.658  0.00  0.00    +0.222 HD
ENDBRANCH   2   4
BRANCH   2   6
ATOM      6  O   UNL     1       7.011   3.109  22.701  0.00  0.00    -0.284 OA
BRANCH   6   7
ATOM      7  C   UNL     1       7.482   1.990  21.935  0.00  0.00    +0.206 C 
BRANCH   7   8
ATOM      8  C   UNL     1       8.937   1.693  22.209  0.00  0.00    +0.179 C 
ATOM      9  C   UNL     1       9.390   2.408  23.480  0.00  0.00    +0.194 C 
ATOM     10  C   UNL     1       9.328   1.316  24.576  0.00  0.00    +0.196 C 
ATOM     11  C   UNL     1       8.758   0.089  23.845  0.00  0.00    +0.253 C 
ATOM     12  O   UNL     1       9.076   0.301  22.461  0.00  0.00    -0.346 OA
BRANCH  11  13
ATOM     13  N   UNL     1       9.190  -1.251  24.149  0.00  0.00    -0.286 N 
ATOM     14  C   UNL     1       8.712  -2.148  25.065  0.00  0.00    +0.167 A 
ATOM     15  N   UNL     1       7.754  -1.958  25.987  0.00  0.00    -0.216 NA
ATOM     16  C   UNL     1       7.593  -3.080  26.732  0.00  0.00    +0.225 A 
ATOM     17  N   UNL     1       8.235  -4.271  26.624  0.00  0.00    -0.219 NA
ATOM     18  C   UNL     1       9.155  -4.403  25.649  0.00  0.00    +0.147 A 
ATOM     19  N   UNL     1       9.818  -5.620  25.489  0.00  0.00    -0.341 N 
ATOM     20  H   UNL     1      10.683  -5.528  24.974  0.00  0.00    +0.144 HD
ATOM     21  H   UNL     1       9.842  -6.160  26.347  0.00  0.00    +0.144 HD
ATOM     22  C   UNL     1       9.431  -3.305  24.825  0.00  0.00    +0.147 A 
ATOM     23  N   UNL     1      10.309  -3.153  23.781  0.00  0.00    -0.231 NA
ATOM     24  C   UNL     1      10.123  -1.917  23.384  0.00  0.00    +0.203 A 
ENDBRANCH  11  13
BRANCH  10  25
ATOM     25  O   UNL     1       8.434   1.747  25.611  0.00  0.00    -0.385 OA
ATOM     26  H   UNL     1       7.917   0.967  25.894  0.00  0.00    +0.210 HD
ENDBRANCH  10  25
BRANCH   9  27
ATOM     27  O   UNL     1      10.732   2.869  23.320  0.00  0.00    -0.278 OA
BRANCH  27  28
ATOM     28  P   UNL     1      11.000   4.524  23.749  0.00  0.00    +0.473 P 
ATOM     29  O   UNL     1      11.239   6.004  24.133  0.00  0.00    -0.228 OA
BRANCH  28  30
ATOM     30  O   UNL     1       9.577   4.820  23.005  0.00  0.00    -0.303 OA
ATOM     31  H   UNL     1       9.567   4.418  22.118  0.00  0.00    +0.222 HD
ENDBRANCH  28  30
BRANCH  28  32
ATOM     32  O   UNL     1      11.925   4.533  22.405  0.00  0.00    -0.303 OA
ATOM     33  H   UNL     1      11.324   4.497  21.637  0.00  0.00    +0.222 HD
ENDBRANCH  28  32
ENDBRANCH  27  28
ENDBRANCH   9  27
ENDBRANCH   7   8
ENDBRANCH   6   7
ENDBRANCH   2   6
ENDBRANCH   1   2
BRANCH   1  34
ATOM     34  P   UNL     1       4.292   1.982  26.249  0.00  0.00    +0.483 P 
ATOM     35  O   UNL     1       4.084   3.122  27.186  0.00  0.00    -0.227 OA
BRANCH  34  36
ATOM     36  O   UNL     1       5.636   1.175  26.563  0.00  0.00    -0.302 OA
ATOM     37  H   UNL     1       6.270   1.799  26.977  0.00  0.00    +0.222 HD
ENDBRANCH  34  36
BRANCH  34  38
ATOM     38  O   UNL     1       3.145   0.862  26.361  0.00  0.00    -0.286 OA
BRANCH  38  39
ATOM     39  C   UNL     1       2.444   0.679  27.583  0.00  0.00    +0.181 C 
BRANCH  39  41
ATOM     40  C   UNL     1       1.637  -1.002  29.249  0.00  0.00    +0.016 C 
ATOM     41  C   UNL     1       2.168  -0.826  27.815  0.00  0.00    +0.024 C 
ATOM     42  C   UNL     1       1.069  -1.241  26.809  0.00  0.00    +0.016 C 
BRANCH  41  43
ATOM     43  C   UNL     1       3.480  -1.640  27.621  0.00  0.00    +0.208 C 
BRANCH  43  44
ATOM     44  C   UNL     1       3.409  -3.110  28.099  0.00  0.00    +0.242 C 
ATOM     45  N   UNL     1       4.117  -3.357  29.251  0.00  0.00    -0.313 N 
ATOM     46  H   UNL     1       4.244  -2.547  29.853  0.00  0.00    +0.149 HD
ATOM     47  O   UNL     1       2.843  -4.005  27.481  0.00  0.00    -0.273 OA
BRANCH  45  48
ATOM     48  C   UNL     1       4.169  -4.692  29.810  0.00  0.00    +0.113 C 
BRANCH  48  49
ATOM     49  C   UNL     1       5.516  -5.392  29.624  0.00  0.00    +0.114 C 
BRANCH  49  50
ATOM     50  C   UNL     1       5.545  -6.313  28.427  0.00  0.00    +0.215 C 
ATOM     51  N   UNL     1       5.381  -5.672  27.218  0.00  0.00    -0.314 N 
ATOM     52  H   UNL     1       5.501  -4.669  27.191  0.00  0.00    +0.149 HD
ATOM     53  O   UNL     1       5.721  -7.522  28.544  0.00  0.00    -0.276 OA
BRANCH  51  54
ATOM     54  C   UNL     1       5.355  -6.361  25.939  0.00  0.00    +0.115 C 
BRANCH  54  55
ATOM     55  C   UNL     1       5.245  -5.477  24.702  0.00  0.00    +0.096 C 
BRANCH  55  56
ATOM     56  S   UNL     1       6.487  -5.898  23.421  0.00  0.00    -0.086 S 
BRANCH  56  57
ATOM     57  C   UNL     1       5.732  -4.945  22.138  0.00  0.00    +0.200 C 
ATOM     58  O   UNL     1       5.800  -5.320  20.979  0.00  0.00    -0.285 OA
BRANCH  57  59
ATOM     59  C   UNL     1       5.028  -3.703  22.594  0.00  0.00    +0.206 C 
BRANCH  59  60
ATOM     60  C   UNL     1       5.987  -2.556  22.709  0.00  0.00    +0.313 C 
ATOM     61  O   UNL     1       6.959  -2.342  21.992  0.00  0.00    -0.251 OA
BRANCH  60  62
ATOM     62  O   UNL     1       5.686  -1.671  23.673  0.00  0.00    -0.480 OA
ATOM     63  H   UNL     1       4.775  -1.318  23.678  0.00  0.00    +0.295 HD
ENDBRANCH  60  62
ENDBRANCH  59  60
ENDBRANCH  57  59
ENDBRANCH  56  57
ENDBRANCH  55  56
ENDBRANCH  54  55
ENDBRANCH  51  54
ENDBRANCH  49  50
ENDBRANCH  48  49
ENDBRANCH  45  48
ENDBRANCH  43  44
BRANCH  43  64
ATOM     64  O   UNL     1       4.582  -1.005  28.299  0.00  0.00    -0.382 OA
ATOM     65  H   UNL     1       5.338  -1.010  27.694  0.00  0.00    +0.210 HD
ENDBRANCH  43  64
ENDBRANCH  41  43
ENDBRANCH  39  41
ENDBRANCH  38  39
ENDBRANCH  34  38
ENDBRANCH   1  34
TORSDOF 29
ENDMDL
MODEL 3
REMARK VINA RESULT:      -5.8      3.049      7.887
REMARK  Name = 
REMARK  31 active torsions:
REMARK  status: ('A' for Active; 'I' for Inactive)
REMARK    1  A    between atoms: C_1  and  C_2
REMARK    2  A    between atoms: C_2  and  C_3
REMARK    3  A    between atoms: C_2  and  C_4
REMARK    4  A    between atoms: C_2  and  C_40
REMARK    5  A    between atoms: C_4  and  O_5
REMARK    6  A    between atoms: O_5  and  P_6
REMARK    7  A    between atoms: P_6  and  O_7
REMARK    8  A    between atoms: P_6  and  O_9
REMARK    9  A    between atoms: O_9  and  P_10
REMARK   10  A    between atoms: P_10  and  O_11
REMARK   11  A    between atoms: P_10  and  O_13
REMARK   12  A    between atoms: O_13  and  C_14
REMARK   13  A    between atoms: C_14  and  C_15
REMARK   14  A    between atoms: C_18  and  N_30
REMARK   15  A    between atoms: C_20  and  O_22
REMARK   16  A    between atoms: C_23  and  O_25
REMARK   17  A    between atoms: O_25  and  P_26
REMARK   18  A    between atoms: P_26  and  O_27
REMARK   19  A    between atoms: P_26  and  O_28
REMARK   20  A    between atoms: C_40  and  O_42
REMARK   21  A    between atoms: C_40  and  C_43
REMARK   22  A    between atoms: N_45  and  C_46
REMARK   23  A    between atoms: C_46  and  C_47
REMARK   24  A    between atoms: C_47  and  C_48
REMARK   25  A    between atoms: N_50  and  C_51
REMARK   26  A    between atoms: C_51  and  C_52
REMARK   27  A    between atoms: C_52  and  S_53
REMARK   28  A    between atoms: S_53  and  C_54
REMARK   29  A    between atoms: C_54  and  C_56
REMARK   30  A    between atoms: C_56  and  C_57
REMARK   31  A    between atoms: C_57  and  O_58
REMARK                            x       y       z     vdW  Elec       q    Type
REMARK                         _______ _______ _______ _____ _____    ______ ____
ROOT
ATOM      1  O   UNL     1       3.350   0.759  27.619  0.00  0.00    -0.186 OA
ENDROOT
BRANCH   1   2
ATOM      2  P   UNL     1       2.570  -0.780  27.488  0.00  0.00    +0.483 P 
ATOM      3  O   UNL     1       3.540  -1.072  26.343  0.00  0.00    -0.227 OA
BRANCH   2   4
ATOM      4  O   UNL     1       1.314  -0.079  26.736  0.00  0.00    -0.302 OA
ATOM      5  H   UNL     1       0.490  -0.542  27.017  0.00  0.00    +0.222 HD
ENDBRANCH   2   4
BRANCH   2   6
ATOM      6  O   UNL     1       1.791  -2.318  27.357  0.00  0.00    -0.284 OA
BRANCH   6   7
ATOM      7  C   UNL     1       2.138  -3.228  28.412  0.00  0.00    +0.206 C 
BRANCH   7   8
ATOM      8  C   UNL     1       2.416  -4.617  27.888  0.00  0.00    +0.179 C 
ATOM      9  C   UNL     1       2.000  -4.719  26.422  0.00  0.00    +0.194 C 
ATOM     10  C   UNL     1       3.322  -4.542  25.636  0.00  0.00    +0.196 C 
ATOM     11  C   UNL     1       4.369  -4.265  26.728  0.00  0.00    +0.253 C 
ATOM     12  O   UNL     1       3.819  -4.841  27.923  0.00  0.00    -0.346 OA
BRANCH  11  13
ATOM     13  N   UNL     1       5.719  -4.759  26.637  0.00  0.00    -0.286 N 
ATOM     14  C   UNL     1       6.605  -4.723  25.595  0.00  0.00    +0.167 A 
ATOM     15  N   UNL     1       6.393  -4.283  24.343  0.00  0.00    -0.216 NA
ATOM     16  C   UNL     1       7.511  -4.450  23.594  0.00  0.00    +0.225 A 
ATOM     17  N   UNL     1       8.717  -4.951  23.966  0.00  0.00    -0.219 NA
ATOM     18  C   UNL     1       8.870  -5.334  25.248  0.00  0.00    +0.147 A 
ATOM     19  N   UNL     1      10.102  -5.829  25.676  0.00  0.00    -0.341 N 
ATOM     20  H   UNL     1      10.030  -6.373  26.525  0.00  0.00    +0.144 HD
ATOM     21  H   UNL     1      10.643  -6.223  24.915  0.00  0.00    +0.144 HD
ATOM     22  C   UNL     1       7.778  -5.234  26.120  0.00  0.00    +0.147 A 
ATOM     23  N   UNL     1       7.647  -5.556  27.448  0.00  0.00    -0.231 NA
ATOM     24  C   UNL     1       6.406  -5.237  27.731  0.00  0.00    +0.203 A 
ENDBRANCH  11  13
BRANCH  10  25
ATOM     25  O   UNL     1       3.195  -3.413  24.761  0.00  0.00    -0.385 OA
ATOM     26  H   UNL     1       2.313  -3.021  24.918  0.00  0.00    +0.210 HD
ENDBRANCH  10  25
BRANCH   9  27
ATOM     27  O   UNL     1       1.446  -6.011  26.169  0.00  0.00    -0.278 OA
BRANCH  27  28
ATOM     28  P   UNL     1       2.454  -7.079  25.254  0.00  0.00    +0.473 P 
ATOM     29  O   UNL     1       3.355  -8.035  24.436  0.00  0.00    -0.228 OA
BRANCH  28  30
ATOM     30  O   UNL     1       1.205  -7.164  24.206  0.00  0.00    -0.303 OA
ATOM     31  H   UNL     1       0.939  -6.271  23.922  0.00  0.00    +0.222 HD
ENDBRANCH  28  30
BRANCH  28  32
ATOM     32  O   UNL     1       1.901  -8.202  26.301  0.00  0.00    -0.303 OA
ATOM     33  H   UNL     1       1.982  -7.830  27.199  0.00  0.00    +0.222 HD
ENDBRANCH  28  32
ENDBRANCH  27  28
ENDBRANCH   9  27
ENDBRANCH   7   8
ENDBRANCH   6   7
ENDBRANCH   2   6
ENDBRANCH   1   2
BRANCH   1  34
ATOM     34  P   UNL     1       3.613   1.819  26.455  0.00  0.00    +0.483 P 
ATOM     35  O   UNL     1       2.393   2.296  25.743  0.00  0.00    -0.227 OA
BRANCH  34  36
ATOM     36  O   UNL     1       4.701   1.210  25.455  0.00  0.00    -0.302 OA
ATOM     37  H   UNL     1       5.013   1.936  24.874  0.00  0.00    +0.222 HD
ENDBRANCH  34  36
BRANCH  34  38
ATOM     38  O   UNL     1       4.406   3.003  27.200  0.00  0.00    -0.286 OA
BRANCH  38  39
ATOM     39  C   UNL     1       5.011   4.042  26.443  0.00  0.00    +0.181 C 
BRANCH  39  41
ATOM     40  C   UNL     1       6.446   6.034  26.915  0.00  0.00    +0.016 C 
ATOM     41  C   UNL     1       6.309   4.517  27.139  0.00  0.00    +0.024 C 
ATOM     42  C   UNL     1       6.135   4.238  28.650  0.00  0.00    +0.016 C 
BRANCH  41  43
ATOM     43  C   UNL     1       7.535   3.770  26.539  0.00  0.00    +0.208 C 
BRANCH  43  44
ATOM     44  C   UNL     1       7.967   4.252  25.135  0.00  0.00    +0.242 C 
ATOM     45  N   UNL     1       7.168   3.791  24.116  0.00  0.00    -0.313 N 
ATOM     46  H   UNL     1       6.217   3.561  24.393  0.00  0.00    +0.149 HD
ATOM     47  O   UNL     1       8.970   4.923  24.919  0.00  0.00    -0.273 OA
BRANCH  45  48
ATOM     48  C   UNL     1       7.459   4.135  22.740  0.00  0.00    +0.113 C 
BRANCH  48  49
ATOM     49  C   UNL     1       6.998   3.087  21.725  0.00  0.00    +0.114 C 
BRANCH  49  50
ATOM     50  C   UNL     1       7.544   1.707  22.009  0.00  0.00    +0.215 C 
ATOM     51  N   UNL     1       8.724   1.422  21.356  0.00  0.00    -0.314 N 
ATOM     52  H   UNL     1       9.247   2.191  20.961  0.00  0.00    +0.149 HD
ATOM     53  O   UNL     1       6.979   0.931  22.773  0.00  0.00    -0.276 OA
BRANCH  51  54
ATOM     54  C   UNL     1       9.416   0.150  21.466  0.00  0.00    +0.115 C 
BRANCH  54  55
ATOM     55  C   UNL     1      10.312  -0.023  22.687  0.00  0.00    +0.096 C 
BRANCH  55  56
ATOM     56  S   UNL     1       9.901  -1.523  23.657  0.00  0.00    -0.086 S 
BRANCH  56  57
ATOM     57  C   UNL     1       9.227  -0.648  25.038  0.00  0.00    +0.200 C 
ATOM     58  O   UNL     1       9.352   0.563  25.112  0.00  0.00    -0.285 OA
BRANCH  57  59
ATOM     59  C   UNL     1       8.516  -1.498  26.047  0.00  0.00    +0.206 C 
BRANCH  59  60
ATOM     60  C   UNL     1       7.086  -1.071  26.193  0.00  0.00    +0.313 C 
ATOM     61  O   UNL     1       6.576  -0.551  27.180  0.00  0.00    -0.251 OA
BRANCH  60  62
ATOM     62  O   UNL     1       6.337  -1.246  25.092  0.00  0.00    -0.480 OA
ATOM     63  H   UNL     1       6.217  -0.469  24.512  0.00  0.00    +0.295 HD
ENDBRANCH  60  62
ENDBRANCH  59  60
ENDBRANCH  57  59
ENDBRANCH  56  57
ENDBRANCH  55  56
ENDBRANCH  54  55
ENDBRANCH  51  54
ENDBRANCH  49  50
ENDBRANCH  48  49
ENDBRANCH  45  48
ENDBRANCH  43  44
BRANCH  43  64
ATOM     64  O   UNL     1       7.284   2.352  26.465  0.00  0.00    -0.382 OA
ATOM     65  H   UNL     1       6.465   2.228  25.961  0.00  0.00    +0.210 HD
ENDBRANCH  43  64
ENDBRANCH  41  43
ENDBRANCH  39  41
ENDBRANCH  38  39
ENDBRANCH  34  38
ENDBRANCH   1  34
TORSDOF 29
ENDMDL
MODEL 4
REMARK VINA RESULT:      -5.7      3.370      8.515
REMARK  Name = 
REMARK  31 active torsions:
REMARK  status: ('A' for Active; 'I' for Inactive)
REMARK    1  A    between atoms: C_1  and  C_2
REMARK    2  A    between atoms: C_2  and  C_3
REMARK    3  A    between atoms: C_2  and  C_4
REMARK    4  A    between atoms: C_2  and  C_40
REMARK    5  A    between atoms: C_4  and  O_5
REMARK    6  A    between atoms: O_5  and  P_6
REMARK    7  A    between atoms: P_6  and  O_7
REMARK    8  A    between atoms: P_6  and  O_9
REMARK    9  A    between atoms: O_9  and  P_10
REMARK   10  A    between atoms: P_10  and  O_11
REMARK   11  A    between atoms: P_10  and  O_13
REMARK   12  A    between atoms: O_13  and  C_14
REMARK   13  A    between atoms: C_14  and  C_15
REMARK   14  A    between atoms: C_18  and  N_30
REMARK   15  A    between atoms: C_20  and  O_22
REMARK   16  A    between atoms: C_23  and  O_25
REMARK   17  A    between atoms: O_25  and  P_26
REMARK   18  A    between atoms: P_26  and  O_27
REMARK   19  A    between atoms: P_26  and  O_28
REMARK   20  A    between atoms: C_40  and  O_42
REMARK   21  A    between atoms: C_40  and  C_43
REMARK   22  A    between atoms: N_45  and  C_46
REMARK   23  A    between atoms: C_46  and  C_47
REMARK   24  A    between atoms: C_47  and  C_48
REMARK   25  A    between atoms: N_50  and  C_51
REMARK   26  A    between atoms: C_51  and  C_52
REMARK   27  A    between atoms: C_52  and  S_53
REMARK   28  A    between atoms: S_53  and  C_54
REMARK   29  A    between atoms: C_54  and  C_56
REMARK   30  A    between atoms: C_56  and  C_57
REMARK   31  A    between atoms: C_57  and  O_58
REMARK                            x       y       z     vdW  Elec       q    Type
REMARK                         _______ _______ _______ _____ _____    ______ ____
ROOT
ATOM      1  O   UNL     1      10.087   0.215  22.646  0.00  0.00    -0.186 OA
ENDROOT
BRANCH   1   2
ATOM      2  P   UNL     1       9.234  -1.288  22.717  0.00  0.00    +0.483 P 
ATOM      3  O   UNL     1      10.118  -1.629  23.917  0.00  0.00    -0.227 OA
BRANCH   2   4
ATOM      4  O   UNL     1      10.097  -1.838  21.457  0.00  0.00    -0.302 OA
ATOM      5  H   UNL     1      11.036  -1.572  21.588  0.00  0.00    +0.222 HD
ENDBRANCH   2   4
BRANCH   2   6
ATOM      6  O   UNL     1       8.381  -2.791  22.788  0.00  0.00    -0.284 OA
BRANCH   6   7
ATOM      7  C   UNL     1       8.316  -3.351  24.108  0.00  0.00    +0.206 C 
BRANCH   7   8
ATOM      8  C   UNL     1       7.025  -2.996  24.807  0.00  0.00    +0.179 C 
ATOM      9  C   UNL     1       6.067  -2.317  23.830  0.00  0.00    +0.194 C 
ATOM     10  C   UNL     1       5.105  -3.448  23.389  0.00  0.00    +0.196 C 
ATOM     11  C   UNL     1       5.658  -4.700  24.091  0.00  0.00    +0.253 C 
ATOM     12  O   UNL     1       6.389  -4.198  25.221  0.00  0.00    -0.346 OA
BRANCH  11  13
ATOM     13  N   UNL     1       4.794  -5.732  24.607  0.00  0.00    -0.286 N 
ATOM     14  C   UNL     1       3.710  -6.343  24.038  0.00  0.00    +0.167 A 
ATOM     15  N   UNL     1       3.121  -6.058  22.865  0.00  0.00    -0.216 NA
ATOM     16  C   UNL     1       2.048  -6.866  22.673  0.00  0.00    +0.225 A 
ATOM     17  N   UNL     1       1.576  -7.856  23.473  0.00  0.00    -0.219 NA
ATOM     18  C   UNL     1       2.242  -8.113  24.615  0.00  0.00    +0.147 A 
ATOM     19  N   UNL     1       1.804  -9.141  25.451  0.00  0.00    -0.341 N 
ATOM     20  H   UNL     1       2.148  -9.048  26.396  0.00  0.00    +0.144 HD
ATOM     21  H   UNL     1       0.817  -9.338  25.331  0.00  0.00    +0.144 HD
ATOM     22  C   UNL     1       3.356  -7.330  24.940  0.00  0.00    +0.147 A 
ATOM     23  N   UNL     1       4.200  -7.359  26.022  0.00  0.00    -0.231 NA
ATOM     24  C   UNL     1       5.064  -6.402  25.780  0.00  0.00    +0.203 A 
ENDBRANCH  11  13
BRANCH  10  25
ATOM     25  O   UNL     1       5.181  -3.594  21.965  0.00  0.00    -0.385 OA
ATOM     26  H   UNL     1       5.963  -3.090  21.661  0.00  0.00    +0.210 HD
ENDBRANCH  10  25
BRANCH   9  27
ATOM     27  O   UNL     1       5.341  -1.289  24.504  0.00  0.00    -0.278 OA
BRANCH  27  28
ATOM     28  P   UNL     1       6.277   0.088  24.973  0.00  0.00    +0.473 P 
ATOM     29  O   UNL     1       7.114   1.321  25.392  0.00  0.00    -0.228 OA
BRANCH  28  30
ATOM     30  O   UNL     1       4.859   0.732  25.464  0.00  0.00    -0.303 OA
ATOM     31  H   UNL     1       4.578   1.440  24.856  0.00  0.00    +0.222 HD
ENDBRANCH  28  30
BRANCH  28  32
ATOM     32  O   UNL     1       6.135   0.492  23.398  0.00  0.00    -0.303 OA
ATOM     33  H   UNL     1       6.402  -0.284  22.872  0.00  0.00    +0.222 HD
ENDBRANCH  28  32
ENDBRANCH  27  28
ENDBRANCH   9  27
ENDBRANCH   7   8
ENDBRANCH   6   7
ENDBRANCH   2   6
ENDBRANCH   1   2
BRANCH   1  34
ATOM     34  P   UNL     1       9.517   1.638  22.201  0.00  0.00    +0.483 P 
ATOM     35  O   UNL     1       8.249   1.598  21.420  0.00  0.00    -0.227 OA
BRANCH  34  36
ATOM     36  O   UNL     1      10.677   2.429  21.436  0.00  0.00    -0.302 OA
ATOM     37  H   UNL     1      10.392   3.363  21.344  0.00  0.00    +0.222 HD
ENDBRANCH  34  36
BRANCH  34  38
ATOM     38  O   UNL     1       9.372   2.433  23.591  0.00  0.00    -0.286 OA
BRANCH  38  39
ATOM     39  C   UNL     1       9.943   3.726  23.735  0.00  0.00    +0.181 C 
BRANCH  39  41
ATOM     40  C   UNL     1       8.310   4.687  25.367  0.00  0.00    +0.016 C 
ATOM     41  C   UNL     1       8.827   4.781  23.920  0.00  0.00    +0.024 C 
ATOM     42  C   UNL     1       9.478   6.167  23.700  0.00  0.00    +0.016 C 
BRANCH  41  43
ATOM     43  C   UNL     1       7.670   4.509  22.914  0.00  0.00    +0.208 C 
BRANCH  43  44
ATOM     44  C   UNL     1       6.895   5.768  22.459  0.00  0.00    +0.242 C 
ATOM     45  N   UNL     1       5.721   5.979  23.143  0.00  0.00    -0.313 N 
ATOM     46  H   UNL     1       5.696   5.577  24.077  0.00  0.00    +0.149 HD
ATOM     47  O   UNL     1       7.239   6.484  21.525  0.00  0.00    -0.273 OA
BRANCH  45  48
ATOM     48  C   UNL     1       4.871   7.103  22.813  0.00  0.00    +0.113 C 
BRANCH  48  49
ATOM     49  C   UNL     1       3.413   6.927  23.243  0.00  0.00    +0.114 C 
BRANCH  49  50
ATOM     50  C   UNL     1       2.966   5.484  23.248  0.00  0.00    +0.215 C 
ATOM     51  N   UNL     1       2.162   5.146  24.316  0.00  0.00    -0.314 N 
ATOM     52  H   UNL     1       1.742   5.893  24.850  0.00  0.00    +0.149 HD
ATOM     53  O   UNL     1       3.288   4.703  22.358  0.00  0.00    -0.276 OA
BRANCH  51  54
ATOM     54  C   UNL     1       1.635   3.810  24.533  0.00  0.00    +0.115 C 
BRANCH  54  55
ATOM     55  C   UNL     1       2.247   3.027  25.690  0.00  0.00    +0.096 C 
BRANCH  55  56
ATOM     56  S   UNL     1       2.828   4.113  27.047  0.00  0.00    -0.086 S 
BRANCH  56  57
ATOM     57  C   UNL     1       4.545   3.980  26.643  0.00  0.00    +0.200 C 
ATOM     58  O   UNL     1       4.887   3.822  25.482  0.00  0.00    -0.285 OA
BRANCH  57  59
ATOM     59  C   UNL     1       5.485   4.089  27.805  0.00  0.00    +0.206 C 
BRANCH  59  60
ATOM     60  C   UNL     1       6.086   2.754  28.132  0.00  0.00    +0.313 C 
ATOM     61  O   UNL     1       5.477   1.707  28.326  0.00  0.00    -0.251 OA
BRANCH  60  62
ATOM     62  O   UNL     1       7.428   2.737  28.155  0.00  0.00    -0.480 OA
ATOM     63  H   UNL     1       7.877   3.587  28.332  0.00  0.00    +0.295 HD
ENDBRANCH  60  62
ENDBRANCH  59  60
ENDBRANCH  57  59
ENDBRANCH  56  57
ENDBRANCH  55  56
ENDBRANCH  54  55
ENDBRANCH  51  54
ENDBRANCH  49  50
ENDBRANCH  48  49
ENDBRANCH  45  48
ENDBRANCH  43  44
BRANCH  43  64
ATOM     64  O   UNL     1       6.719   3.577  23.469  0.00  0.00    -0.382 OA
ATOM     65  H   UNL     1       6.884   3.527  24.422  0.00  0.00    +0.210 HD
ENDBRANCH  43  64
ENDBRANCH  41  43
ENDBRANCH  39  41
ENDBRANCH  38  39
ENDBRANCH  34  38
ENDBRANCH   1  34
TORSDOF 29
ENDMDL
MODEL 5
REMARK VINA RESULT:      -5.6      3.321      8.853
REMARK  Name = 
REMARK  31 active torsions:
REMARK  status: ('A' for Active; 'I' for Inactive)
REMARK    1  A    between atoms: C_1  and  C_2
REMARK    2  A    between atoms: C_2  and  C_3
REMARK    3  A    between atoms: C_2  and  C_4
REMARK    4  A    between atoms: C_2  and  C_40
REMARK    5  A    between atoms: C_4  and  O_5
REMARK    6  A    between atoms: O_5  and  P_6
REMARK    7  A    between atoms: P_6  and  O_7
REMARK    8  A    between atoms: P_6  and  O_9
REMARK    9  A    between atoms: O_9  and  P_10
REMARK   10  A    between atoms: P_10  and  O_11
REMARK   11  A    between atoms: P_10  and  O_13
REMARK   12  A    between atoms: O_13  and  C_14
REMARK   13  A    between atoms: C_14  and  C_15
REMARK   14  A    between atoms: C_18  and  N_30
REMARK   15  A    between atoms: C_20  and  O_22
REMARK   16  A    between atoms: C_23  and  O_25
REMARK   17  A    between atoms: O_25  and  P_26
REMARK   18  A    between atoms: P_26  and  O_27
REMARK   19  A    between atoms: P_26  and  O_28
REMARK   20  A    between atoms: C_40  and  O_42
REMARK   21  A    between atoms: C_40  and  C_43
REMARK   22  A    between atoms: N_45  and  C_46
REMARK   23  A    between atoms: C_46  and  C_47
REMARK   24  A    between atoms: C_47  and  C_48
REMARK   25  A    between atoms: N_50  and  C_51
REMARK   26  A    between atoms: C_51  and  C_52
REMARK   27  A    between atoms: C_52  and  S_53
REMARK   28  A    between atoms: S_53  and  C_54
REMARK   29  A    between atoms: C_54  and  C_56
REMARK   30  A    between atoms: C_56  and  C_57
REMARK   31  A    between atoms: C_57  and  O_58
REMARK                            x       y       z     vdW  Elec       q    Type
REMARK                         _______ _______ _______ _____ _____    ______ ____
ROOT
ATOM      1  O   UNL     1       5.098   0.717  24.887  0.00  0.00    -0.186 OA
ENDROOT
BRANCH   1   2
ATOM      2  P   UNL     1       5.363  -0.452  26.134  0.00  0.00    +0.483 P 
ATOM      3  O   UNL     1       3.842  -0.596  26.196  0.00  0.00    -0.227 OA
BRANCH   2   4
ATOM      4  O   UNL     1       5.663   0.742  27.191  0.00  0.00    -0.302 OA
ATOM      5  H   UNL     1       5.536   1.602  26.727  0.00  0.00    +0.222 HD
ENDBRANCH   2   4
BRANCH   2   6
ATOM      6  O   UNL     1       5.628  -1.622  27.380  0.00  0.00    -0.284 OA
BRANCH   6   7
ATOM      7  C   UNL     1       4.441  -2.335  27.758  0.00  0.00    +0.206 C 
BRANCH   7   8
ATOM      8  C   UNL     1       4.642  -3.831  27.703  0.00  0.00    +0.179 C 
ATOM      9  C   UNL     1       3.669  -4.528  28.652  0.00  0.00    +0.194 C 
ATOM     10  C   UNL     1       2.516  -5.005  27.736  0.00  0.00    +0.196 C 
ATOM     11  C   UNL     1       2.894  -4.457  26.349  0.00  0.00    +0.253 C 
ATOM     12  O   UNL     1       4.318  -4.283  26.395  0.00  0.00    -0.346 OA
BRANCH  11  13
ATOM     13  N   UNL     1       2.625  -5.190  25.138  0.00  0.00    -0.286 N 
ATOM     14  C   UNL     1       2.352  -6.518  24.950  0.00  0.00    +0.167 A 
ATOM     15  N   UNL     1       2.356  -7.501  25.866  0.00  0.00    -0.216 NA
ATOM     16  C   UNL     1       2.071  -8.689  25.277  0.00  0.00    +0.225 A 
ATOM     17  N   UNL     1       1.787  -8.946  23.974  0.00  0.00    -0.219 NA
ATOM     18  C   UNL     1       1.761  -7.905  23.120  0.00  0.00    +0.147 A 
ATOM     19  N   UNL     1       1.446  -8.123  21.778  0.00  0.00    -0.341 N 
ATOM     20  H   UNL     1       1.760  -7.373  21.177  0.00  0.00    +0.144 HD
ATOM     21  H   UNL     1       1.651  -9.072  21.486  0.00  0.00    +0.144 HD
ATOM     22  C   UNL     1       2.062  -6.625  23.602  0.00  0.00    +0.147 A 
ATOM     23  N   UNL     1       2.122  -5.409  22.969  0.00  0.00    -0.231 NA
ATOM     24  C   UNL     1       2.440  -4.567  23.923  0.00  0.00    +0.203 A 
ENDBRANCH  11  13
BRANCH  10  25
ATOM     25  O   UNL     1       1.288  -4.421  28.192  0.00  0.00    -0.385 OA
ATOM     26  H   UNL     1       1.103  -3.649  27.620  0.00  0.00    +0.210 HD
ENDBRANCH  10  25
BRANCH   9  27
ATOM     27  O   UNL     1       4.311  -5.649  29.260  0.00  0.00    -0.278 OA
BRANCH  27  28
ATOM     28  P   UNL     1       5.901  -5.997  28.673  0.00  0.00    +0.473 P 
ATOM     29  O   UNL     1       7.323  -6.308  28.147  0.00  0.00    -0.228 OA
BRANCH  28  30
ATOM     30  O   UNL     1       5.369  -7.531  28.498  0.00  0.00    -0.303 OA
ATOM     31  H   UNL     1       6.087  -8.163  28.683  0.00  0.00    +0.222 HD
ENDBRANCH  28  30
BRANCH  28  32
ATOM     32  O   UNL     1       6.267  -6.101  30.259  0.00  0.00    -0.303 OA
ATOM     33  H   UNL     1       7.205  -6.356  30.326  0.00  0.00    +0.222 HD
ENDBRANCH  28  32
ENDBRANCH  27  28
ENDBRANCH   9  27
ENDBRANCH   7   8
ENDBRANCH   6   7
ENDBRANCH   2   6
ENDBRANCH   1   2
BRANCH   1  34
ATOM     34  P   UNL     1       4.459   2.172  25.037  0.00  0.00    +0.483 P 
ATOM     35  O   UNL     1       3.445   2.312  26.120  0.00  0.00    -0.227 OA
BRANCH  34  36
ATOM     36  O   UNL     1       3.891   2.622  23.612  0.00  0.00    -0.302 OA
ATOM     37  H   UNL     1       3.907   1.838  23.022  0.00  0.00    +0.222 HD
ENDBRANCH  34  36
BRANCH  34  38
ATOM     38  O   UNL     1       5.738   3.122  25.250  0.00  0.00    -0.286 OA
BRANCH  38  39
ATOM     39  C   UNL     1       6.487   3.571  24.130  0.00  0.00    +0.181 C 
BRANCH  39  41
ATOM     40  C   UNL     1       8.388   5.056  23.469  0.00  0.00    +0.016 C 
ATOM     41  C   UNL     1       7.835   4.168  24.599  0.00  0.00    +0.024 C 
ATOM     42  C   UNL     1       7.532   5.046  25.835  0.00  0.00    +0.016 C 
BRANCH  41  43
ATOM     43  C   UNL     1       8.837   3.021  24.923  0.00  0.00    +0.208 C 
BRANCH  43  44
ATOM     44  C   UNL     1       9.670   2.526  23.717  0.00  0.00    +0.242 C 
ATOM     45  N   UNL     1       9.051   1.549  22.975  0.00  0.00    -0.313 N 
ATOM     46  H   UNL     1       8.035   1.557  23.026  0.00  0.00    +0.149 HD
ATOM     47  O   UNL     1      10.811   2.902  23.472  0.00  0.00    -0.273 OA
BRANCH  45  48
ATOM     48  C   UNL     1       9.715   0.966  21.828  0.00  0.00    +0.113 C 
BRANCH  48  49
ATOM     49  C   UNL     1       9.296  -0.476  21.534  0.00  0.00    +0.114 C 
BRANCH  49  50
ATOM     50  C   UNL     1       9.743  -1.452  22.596  0.00  0.00    +0.215 C 
ATOM     51  N   UNL     1       8.784  -1.730  23.547  0.00  0.00    -0.314 N 
ATOM     52  H   UNL     1       7.826  -1.480  23.343  0.00  0.00    +0.149 HD
ATOM     53  O   UNL     1      10.861  -1.956  22.584  0.00  0.00    -0.276 OA
BRANCH  51  54
ATOM     54  C   UNL     1       9.001  -2.623  24.671  0.00  0.00    +0.115 C 
BRANCH  54  55
ATOM     55  C   UNL     1       8.947  -4.115  24.362  0.00  0.00    +0.096 C 
BRANCH  55  56
ATOM     56  S   UNL     1       7.307  -4.852  24.721  0.00  0.00    -0.086 S 
BRANCH  56  57
ATOM     57  C   UNL     1       6.511  -4.190  23.287  0.00  0.00    +0.200 C 
ATOM     58  O   UNL     1       5.601  -3.385  23.412  0.00  0.00    -0.285 OA
BRANCH  57  59
ATOM     59  C   UNL     1       7.044  -4.680  21.976  0.00  0.00    +0.206 C 
BRANCH  59  60
ATOM     60  C   UNL     1       6.011  -5.486  21.246  0.00  0.00    +0.313 C 
ATOM     61  O   UNL     1       5.991  -5.730  20.044  0.00  0.00    -0.251 OA
BRANCH  60  62
ATOM     62  O   UNL     1       5.062  -6.019  22.032  0.00  0.00    -0.480 OA
ATOM     63  H   UNL     1       5.347  -6.349  22.906  0.00  0.00    +0.295 HD
ENDBRANCH  60  62
ENDBRANCH  59  60
ENDBRANCH  57  59
ENDBRANCH  56  57
ENDBRANCH  55  56
ENDBRANCH  54  55
ENDBRANCH  51  54
ENDBRANCH  49  50
ENDBRANCH  48  49
ENDBRANCH  45  48
ENDBRANCH  43  44
BRANCH  43  64
ATOM     64  O   UNL     1       8.149   1.885  25.485  0.00  0.00    -0.382 OA
ATOM     65  H   UNL     1       8.797   1.170  25.576  0.00  0.00    +0.210 HD
ENDBRANCH  43  64
ENDBRANCH  41  43
ENDBRANCH  39  41
ENDBRANCH  38  39
ENDBRANCH  34  38
ENDBRANCH   1  34
TORSDOF 29
ENDMDL
MODEL 6
REMARK VINA RESULT:      -5.6      2.778      4.879
REMARK  Name = 
REMARK  31 active torsions:
REMARK  status: ('A' for Active; 'I' for Inactive)
REMARK    1  A    between atoms: C_1  and  C_2
REMARK    2  A    between atoms: C_2  and  C_3
REMARK    3  A    between atoms: C_2  and  C_4
REMARK    4  A    between atoms: C_2  and  C_40
REMARK    5  A    between atoms: C_4  and  O_5
REMARK    6  A    between atoms: O_5  and  P_6
REMARK    7  A    between atoms: P_6  and  O_7
REMARK    8  A    between atoms: P_6  and  O_9
REMARK    9  A    between atoms: O_9  and  P_10
REMARK   10  A    between atoms: P_10  and  O_11
REMARK   11  A    between atoms: P_10  and  O_13
REMARK   12  A    between atoms: O_13  and  C_14
REMARK   13  A    between atoms: C_14  and  C_15
REMARK   14  A    between atoms: C_18  and  N_30
REMARK   15  A    between atoms: C_20  and  O_22
REMARK   16  A    between atoms: C_23  and  O_25
REMARK   17  A    between atoms: O_25  and  P_26
REMARK   18  A    between atoms: P_26  and  O_27
REMARK   19  A    between atoms: P_26  and  O_28
REMARK   20  A    between atoms: C_40  and  O_42
REMARK   21  A    between atoms: C_40  and  C_43
REMARK   22  A    between atoms: N_45  and  C_46
REMARK   23  A    between atoms: C_46  and  C_47
REMARK   24  A    between atoms: C_47  and  C_48
REMARK   25  A    between atoms: N_50  and  C_51
REMARK   26  A    between atoms: C_51  and  C_52
REMARK   27  A    between atoms: C_52  and  S_53
REMARK   28  A    between atoms: S_53  and  C_54
REMARK   29  A    between atoms: C_54  and  C_56
REMARK   30  A    between atoms: C_56  and  C_57
REMARK   31  A    between atoms: C_57  and  O_58
REMARK                            x       y       z     vdW  Elec       q    Type
REMARK                         _______ _______ _______ _____ _____    ______ ____
ROOT
ATOM      1  O   UNL     1       4.119  -6.421  28.028  0.00  0.00    -0.186 OA
ENDROOT
BRANCH   1   2
ATOM      2  P   UNL     1       5.796  -6.138  27.717  0.00  0.00    +0.483 P 
ATOM      3  O   UNL     1       6.074  -7.324  28.640  0.00  0.00    -0.227 OA
BRANCH   2   4
ATOM      4  O   UNL     1       5.772  -4.876  28.737  0.00  0.00    -0.302 OA
ATOM      5  H   UNL     1       5.401  -4.099  28.258  0.00  0.00    +0.222 HD
ENDBRANCH   2   4
BRANCH   2   6
ATOM      6  O   UNL     1       7.474  -5.854  27.406  0.00  0.00    -0.284 OA
BRANCH   6   7
ATOM      7  C   UNL     1       7.734  -4.592  26.775  0.00  0.00    +0.206 C 
BRANCH   7   8
ATOM      8  C   UNL     1       7.951  -4.741  25.288  0.00  0.00    +0.179 C 
ATOM      9  C   UNL     1       6.613  -4.694  24.553  0.00  0.00    +0.194 C 
ATOM     10  C   UNL     1       6.512  -3.239  24.034  0.00  0.00    +0.196 C 
ATOM     11  C   UNL     1       7.770  -2.556  24.598  0.00  0.00    +0.253 C 
ATOM     12  O   UNL     1       8.701  -3.625  24.826  0.00  0.00    -0.346 OA
BRANCH  11  13
ATOM     13  N   UNL     1       8.493  -1.554  23.857  0.00  0.00    -0.286 N 
ATOM     14  C   UNL     1       8.055  -0.391  23.284  0.00  0.00    +0.167 A 
ATOM     15  N   UNL     1       6.795   0.066  23.197  0.00  0.00    -0.216 NA
ATOM     16  C   UNL     1       6.769   1.241  22.520  0.00  0.00    +0.225 A 
ATOM     17  N   UNL     1       7.807   1.941  21.994  0.00  0.00    -0.219 NA
ATOM     18  C   UNL     1       9.048   1.443  22.155  0.00  0.00    +0.147 A 
ATOM     19  N   UNL     1      10.142   2.147  21.652  0.00  0.00    -0.341 N 
ATOM     20  H   UNL     1      10.960   1.564  21.535  0.00  0.00    +0.144 HD
ATOM     21  H   UNL     1       9.887   2.753  20.881  0.00  0.00    +0.144 HD
ATOM     22  C   UNL     1       9.206   0.220  22.818  0.00  0.00    +0.147 A 
ATOM     23  N   UNL     1      10.328  -0.515  23.109  0.00  0.00    -0.231 NA
ATOM     24  C   UNL     1       9.866  -1.561  23.752  0.00  0.00    +0.203 A 
ENDBRANCH  11  13
BRANCH  10  25
ATOM     25  O   UNL     1       5.327  -2.636  24.571  0.00  0.00    -0.385 OA
ATOM     26  H   UNL     1       5.581  -2.178  25.397  0.00  0.00    +0.210 HD
ENDBRANCH  10  25
BRANCH   9  27
ATOM     27  O   UNL     1       6.635  -5.607  23.455  0.00  0.00    -0.278 OA
BRANCH  27  28
ATOM     28  P   UNL     1       6.177  -4.937  21.928  0.00  0.00    +0.473 P 
ATOM     29  O   UNL     1       5.766  -4.337  20.562  0.00  0.00    -0.228 OA
BRANCH  28  30
ATOM     30  O   UNL     1       4.941  -6.003  21.969  0.00  0.00    -0.303 OA
ATOM     31  H   UNL     1       4.780  -6.371  21.081  0.00  0.00    +0.222 HD
ENDBRANCH  28  30
BRANCH  28  32
ATOM     32  O   UNL     1       7.299  -5.967  21.344  0.00  0.00    -0.303 OA
ATOM     33  H   UNL     1       6.976  -6.294  20.484  0.00  0.00    +0.222 HD
ENDBRANCH  28  32
ENDBRANCH  27  28
ENDBRANCH   9  27
ENDBRANCH   7   8
ENDBRANCH   6   7
ENDBRANCH   2   6
ENDBRANCH   1   2
BRANCH   1  34
ATOM     34  P   UNL     1       3.165  -5.620  29.026  0.00  0.00    +0.483 P 
ATOM     35  O   UNL     1       3.650  -5.530  30.432  0.00  0.00    -0.227 OA
BRANCH  34  36
ATOM     36  O   UNL     1       1.696  -6.245  28.929  0.00  0.00    -0.302 OA
ATOM     37  H   UNL     1       1.732  -7.152  29.302  0.00  0.00    +0.222 HD
ENDBRANCH  34  36
BRANCH  34  38
ATOM     38  O   UNL     1       3.010  -4.183  28.323  0.00  0.00    -0.286 OA
BRANCH  38  39
ATOM     39  C   UNL     1       2.558  -3.067  29.076  0.00  0.00    +0.181 C 
BRANCH  39  41
ATOM     40  C   UNL     1       2.419  -1.891  26.873  0.00  0.00    +0.016 C 
ATOM     41  C   UNL     1       2.896  -1.753  28.330  0.00  0.00    +0.024 C 
ATOM     42  C   UNL     1       2.097  -0.625  29.024  0.00  0.00    +0.016 C 
BRANCH  41  43
ATOM     43  C   UNL     1       4.431  -1.500  28.375  0.00  0.00    +0.208 C 
BRANCH  43  44
ATOM     44  C   UNL     1       4.849  -0.018  28.227  0.00  0.00    +0.242 C 
ATOM     45  N   UNL     1       4.934   0.411  26.924  0.00  0.00    -0.313 N 
ATOM     46  H   UNL     1       4.352  -0.105  26.269  0.00  0.00    +0.149 HD
ATOM     47  O   UNL     1       5.156   0.705  29.169  0.00  0.00    -0.273 OA
BRANCH  45  48
ATOM     48  C   UNL     1       5.339   1.768  26.621  0.00  0.00    +0.113 C 
BRANCH  48  49
ATOM     49  C   UNL     1       4.824   2.285  25.277  0.00  0.00    +0.114 C 
BRANCH  49  50
ATOM     50  C   UNL     1       4.780   3.793  25.199  0.00  0.00    +0.215 C 
ATOM     51  N   UNL     1       5.939   4.368  24.724  0.00  0.00    -0.314 N 
ATOM     52  H   UNL     1       6.605   3.774  24.249  0.00  0.00    +0.149 HD
ATOM     53  O   UNL     1       3.781   4.429  25.519  0.00  0.00    -0.276 OA
BRANCH  51  54
ATOM     54  C   UNL     1       6.128   5.801  24.585  0.00  0.00    +0.115 C 
BRANCH  54  55
ATOM     55  C   UNL     1       7.530   6.325  24.874  0.00  0.00    +0.096 C 
BRANCH  55  56
ATOM     56  S   UNL     1       8.568   6.428  23.367  0.00  0.00    -0.086 S 
BRANCH  56  57
ATOM     57  C   UNL     1       9.822   5.327  23.952  0.00  0.00    +0.200 C 
ATOM     58  O   UNL     1       9.558   4.152  24.148  0.00  0.00    -0.285 OA
BRANCH  57  59
ATOM     59  C   UNL     1      11.171   5.947  24.160  0.00  0.00    +0.206 C 
BRANCH  59  60
ATOM     60  C   UNL     1      12.221   5.217  23.376  0.00  0.00    +0.313 C 
ATOM     61  O   UNL     1      13.434   5.383  23.451  0.00  0.00    -0.251 OA
BRANCH  60  62
ATOM     62  O   UNL     1      11.746   4.261  22.562  0.00  0.00    -0.480 OA
ATOM     63  H   UNL     1      11.128   3.614  22.955  0.00  0.00    +0.295 HD
ENDBRANCH  60  62
ENDBRANCH  59  60
ENDBRANCH  57  59
ENDBRANCH  56  57
ENDBRANCH  55  56
ENDBRANCH  54  55
ENDBRANCH  51  54
ENDBRANCH  49  50
ENDBRANCH  48  49
ENDBRANCH  45  48
ENDBRANCH  43  44
BRANCH  43  64
ATOM     64  O   UNL     1       5.105  -2.257  27.350  0.00  0.00    -0.382 OA
ATOM     65  H   UNL     1       4.471  -2.401  26.632  0.00  0.00    +0.210 HD
ENDBRANCH  43  64
ENDBRANCH  41  43
ENDBRANCH  39  41
ENDBRANCH  38  39
ENDBRANCH  34  38
ENDBRANCH   1  34
TORSDOF 29
ENDMDL
MODEL 7
REMARK VINA RESULT:      -5.5      1.957      5.588
REMARK  Name = 
REMARK  31 active torsions:
REMARK  status: ('A' for Active; 'I' for Inactive)
REMARK    1  A    between atoms: C_1  and  C_2
REMARK    2  A    between atoms: C_2  and  C_3
REMARK    3  A    between atoms: C_2  and  C_4
REMARK    4  A    between atoms: C_2  and  C_40
REMARK    5  A    between atoms: C_4  and  O_5
REMARK    6  A    between atoms: O_5  and  P_6
REMARK    7  A    between atoms: P_6  and  O_7
REMARK    8  A    between atoms: P_6  and  O_9
REMARK    9  A    between atoms: O_9  and  P_10
REMARK   10  A    between atoms: P_10  and  O_11
REMARK   11  A    between atoms: P_10  and  O_13
REMARK   12  A    between atoms: O_13  and  C_14
REMARK   13  A    between atoms: C_14  and  C_15
REMARK   14  A    between atoms: C_18  and  N_30
REMARK   15  A    between atoms: C_20  and  O_22
REMARK   16  A    between atoms: C_23  and  O_25
REMARK   17  A    between atoms: O_25  and  P_26
REMARK   18  A    between atoms: P_26  and  O_27
REMARK   19  A    between atoms: P_26  and  O_28
REMARK   20  A    between atoms: C_40  and  O_42
REMARK   21  A    between atoms: C_40  and  C_43
REMARK   22  A    between atoms: N_45  and  C_46
REMARK   23  A    between atoms: C_46  and  C_47
REMARK   24  A    between atoms: C_47  and  C_48
REMARK   25  A    between atoms: N_50  and  C_51
REMARK   26  A    between atoms: C_51  and  C_52
REMARK   27  A    between atoms: C_52  and  S_53
REMARK   28  A    between atoms: S_53  and  C_54
REMARK   29  A    between atoms: C_54  and  C_56
REMARK   30  A    between atoms: C_56  and  C_57
REMARK   31  A    between atoms: C_57  and  O_58
REMARK                            x       y       z     vdW  Elec       q    Type
REMARK                         _______ _______ _______ _____ _____    ______ ____
ROOT
ATOM      1  O   UNL     1       4.848  -4.705  22.162  0.00  0.00    -0.186 OA
ENDROOT
BRANCH   1   2
ATOM      2  P   UNL     1       4.154  -5.100  23.697  0.00  0.00    +0.483 P 
ATOM      3  O   UNL     1       2.797  -5.033  22.997  0.00  0.00    -0.227 OA
BRANCH   2   4
ATOM      4  O   UNL     1       4.386  -3.572  24.195  0.00  0.00    -0.302 OA
ATOM      5  H   UNL     1       3.526  -3.095  24.134  0.00  0.00    +0.222 HD
ENDBRANCH   2   4
BRANCH   2   6
ATOM      6  O   UNL     1       3.460  -5.494  25.231  0.00  0.00    -0.284 OA
BRANCH   6   7
ATOM      7  C   UNL     1       2.667  -4.436  25.790  0.00  0.00    +0.206 C 
BRANCH   7   8
ATOM      8  C   UNL     1       2.935  -4.251  27.264  0.00  0.00    +0.179 C 
ATOM      9  C   UNL     1       4.355  -4.701  27.602  0.00  0.00    +0.194 C 
ATOM     10  C   UNL     1       5.171  -3.386  27.650  0.00  0.00    +0.196 C 
ATOM     11  C   UNL     1       4.156  -2.304  27.246  0.00  0.00    +0.253 C 
ATOM     12  O   UNL     1       2.872  -2.863  27.565  0.00  0.00    -0.346 OA
BRANCH  11  13
ATOM     13  N   UNL     1       4.169  -0.987  27.830  0.00  0.00    -0.286 N 
ATOM     14  C   UNL     1       5.149  -0.032  27.837  0.00  0.00    +0.167 A 
ATOM     15  N   UNL     1       6.402  -0.129  27.363  0.00  0.00    -0.216 NA
ATOM     16  C   UNL     1       7.079   1.023  27.592  0.00  0.00    +0.225 A 
ATOM     17  N   UNL     1       6.639   2.164  28.182  0.00  0.00    -0.219 NA
ATOM     18  C   UNL     1       5.359   2.204  28.596  0.00  0.00    +0.147 A 
ATOM     19  N   UNL     1       4.861   3.369  29.183  0.00  0.00    -0.341 N 
ATOM     20  H   UNL     1       4.031   3.203  29.735  0.00  0.00    +0.144 HD
ATOM     21  H   UNL     1       5.594   3.932  29.600  0.00  0.00    +0.144 HD
ATOM     22  C   UNL     1       4.559   1.066  28.437  0.00  0.00    +0.147 A 
ATOM     23  N   UNL     1       3.250   0.824  28.772  0.00  0.00    -0.231 NA
ATOM     24  C   UNL     1       3.042  -0.409  28.374  0.00  0.00    +0.203 A 
ENDBRANCH  11  13
BRANCH  10  25
ATOM     25  O   UNL     1       6.234  -3.464  26.690  0.00  0.00    -0.385 OA
ATOM     26  H   UNL     1       7.053  -3.172  27.137  0.00  0.00    +0.210 HD
ENDBRANCH  10  25
BRANCH   9  27
ATOM     27  O   UNL     1       4.367  -5.334  28.882  0.00  0.00    -0.278 OA
BRANCH  27  28
ATOM     28  P   UNL     1       5.585  -6.544  29.094  0.00  0.00    +0.473 P 
ATOM     29  O   UNL     1       6.675  -7.626  29.284  0.00  0.00    -0.228 OA
BRANCH  28  30
ATOM     30  O   UNL     1       5.657  -6.585  27.463  0.00  0.00    -0.303 OA
ATOM     31  H   UNL     1       5.950  -5.723  27.114  0.00  0.00    +0.222 HD
ENDBRANCH  28  30
BRANCH  28  32
ATOM     32  O   UNL     1       4.306  -7.544  29.254  0.00  0.00    -0.303 OA
ATOM     33  H   UNL     1       3.955  -7.428  30.157  0.00  0.00    +0.222 HD
ENDBRANCH  28  32
ENDBRANCH  27  28
ENDBRANCH   9  27
ENDBRANCH   7   8
ENDBRANCH   6   7
ENDBRANCH   2   6
ENDBRANCH   1   2
BRANCH   1  34
ATOM     34  P   UNL     1       6.127  -5.368  21.473  0.00  0.00    +0.483 P 
ATOM     35  O   UNL     1       6.038  -5.528  19.994  0.00  0.00    -0.227 OA
BRANCH  34  36
ATOM     36  O   UNL     1       6.441  -6.748  22.216  0.00  0.00    -0.302 OA
ATOM     37  H   UNL     1       7.403  -6.921  22.132  0.00  0.00    +0.222 HD
ENDBRANCH  34  36
BRANCH  34  38
ATOM     38  O   UNL     1       7.335  -4.411  21.928  0.00  0.00    -0.286 OA
BRANCH  38  39
ATOM     39  C   UNL     1       7.132  -3.009  22.038  0.00  0.00    +0.181 C 
BRANCH  39  41
ATOM     40  C   UNL     1       8.498  -3.481  24.079  0.00  0.00    +0.016 C 
ATOM     41  C   UNL     1       8.148  -2.403  23.036  0.00  0.00    +0.024 C 
ATOM     42  C   UNL     1       9.416  -2.048  22.225  0.00  0.00    +0.016 C 
BRANCH  41  43
ATOM     43  C   UNL     1       7.527  -1.158  23.733  0.00  0.00    +0.208 C 
BRANCH  43  44
ATOM     44  C   UNL     1       8.553  -0.189  24.366  0.00  0.00    +0.242 C 
ATOM     45  N   UNL     1       8.640   1.026  23.730  0.00  0.00    -0.313 N 
ATOM     46  H   UNL     1       7.800   1.303  23.228  0.00  0.00    +0.149 HD
ATOM     47  O   UNL     1       9.287  -0.484  25.303  0.00  0.00    -0.273 OA
BRANCH  45  48
ATOM     48  C   UNL     1       9.576   2.031  24.189  0.00  0.00    +0.113 C 
BRANCH  48  49
ATOM     49  C   UNL     1       8.934   3.388  24.488  0.00  0.00    +0.114 C 
BRANCH  49  50
ATOM     50  C   UNL     1       8.281   4.014  23.278  0.00  0.00    +0.215 C 
ATOM     51  N   UNL     1       8.162   5.386  23.347  0.00  0.00    -0.314 N 
ATOM     52  H   UNL     1       8.712   5.876  24.038  0.00  0.00    +0.149 HD
ATOM     53  O   UNL     1       7.913   3.342  22.320  0.00  0.00    -0.276 OA
BRANCH  51  54
ATOM     54  C   UNL     1       7.548   6.193  22.308  0.00  0.00    +0.115 C 
BRANCH  54  55
ATOM     55  C   UNL     1       6.047   6.423  22.436  0.00  0.00    +0.096 C 
BRANCH  55  56
ATOM     56  S   UNL     1       5.470   6.367  24.175  0.00  0.00    -0.086 S 
BRANCH  56  57
ATOM     57  C   UNL     1       4.791   4.737  24.073  0.00  0.00    +0.200 C 
ATOM     58  O   UNL     1       4.087   4.427  23.126  0.00  0.00    -0.285 OA
BRANCH  57  59
ATOM     59  C   UNL     1       5.159   3.820  25.200  0.00  0.00    +0.206 C 
BRANCH  59  60
ATOM     60  C   UNL     1       4.811   2.400  24.869  0.00  0.00    +0.313 C 
ATOM     61  O   UNL     1       5.573   1.545  24.429  0.00  0.00    -0.251 OA
BRANCH  60  62
ATOM     62  O   UNL     1       3.543   2.057  25.145  0.00  0.00    -0.480 OA
ATOM     63  H   UNL     1       3.100   1.459  24.512  0.00  0.00    +0.295 HD
ENDBRANCH  60  62
ENDBRANCH  59  60
ENDBRANCH  57  59
ENDBRANCH  56  57
ENDBRANCH  55  56
ENDBRANCH  54  55
ENDBRANCH  51  54
ENDBRANCH  49  50
ENDBRANCH  48  49
ENDBRANCH  45  48
ENDBRANCH  43  44
BRANCH  43  64
ATOM     64  O   UNL     1       6.599  -1.557  24.761  0.00  0.00    -0.382 OA
ATOM     65  H   UNL     1       6.936  -1.218  25.604  0.00  0.00    +0.210 HD
ENDBRANCH  43  64
ENDBRANCH  41  43
ENDBRANCH  39  41
ENDBRANCH  38  39
ENDBRANCH  34  38
ENDBRANCH   1  34
TORSDOF 29
ENDMDL
MODEL 8
REMARK VINA RESULT:      -5.5      3.256      7.799
REMARK  Name = 
REMARK  31 active torsions:
REMARK  status: ('A' for Active; 'I' for Inactive)
REMARK    1  A    between atoms: C_1  and  C_2
REMARK    2  A    between atoms: C_2  and  C_3
REMARK    3  A    between atoms: C_2  and  C_4
REMARK    4  A    between atoms: C_2  and  C_40
REMARK    5  A    between atoms: C_4  and  O_5
REMARK    6  A    between atoms: O_5  and  P_6
REMARK    7  A    between atoms: P_6  and  O_7
REMARK    8  A    between atoms: P_6  and  O_9
REMARK    9  A    between atoms: O_9  and  P_10
REMARK   10  A    between atoms: P_10  and  O_11
REMARK   11  A    between atoms: P_10  and  O_13
REMARK   12  A    between atoms: O_13  and  C_14
REMARK   13  A    between atoms: C_14  and  C_15
REMARK   14  A    between atoms: C_18  and  N_30
REMARK   15  A    between atoms: C_20  and  O_22
REMARK   16  A    between atoms: C_23  and  O_25
REMARK   17  A    between atoms: O_25  and  P_26
REMARK   18  A    between atoms: P_26  and  O_27
REMARK   19  A    between atoms: P_26  and  O_28
REMARK   20  A    between atoms: C_40  and  O_42
REMARK   21  A    between atoms: C_40  and  C_43
REMARK   22  A    between atoms: N_45  and  C_46
REMARK   23  A    between atoms: C_46  and  C_47
REMARK   24  A    between atoms: C_47  and  C_48
REMARK   25  A    between atoms: N_50  and  C_51
REMARK   26  A    between atoms: C_51  and  C_52
REMARK   27  A    between atoms: C_52  and  S_53
REMARK   28  A    between atoms: S_53  and  C_54
REMARK   29  A    between atoms: C_54  and  C_56
REMARK   30  A    between atoms: C_56  and  C_57
REMARK   31  A    between atoms: C_57  and  O_58
REMARK                            x       y       z     vdW  Elec       q    Type
REMARK                         _______ _______ _______ _____ _____    ______ ____
ROOT
ATOM      1  O   UNL     1      10.267  -0.194  23.305  0.00  0.00    -0.186 OA
ENDROOT
BRANCH   1   2
ATOM      2  P   UNL     1       9.776  -1.773  23.811  0.00  0.00    +0.483 P 
ATOM      3  O   UNL     1      10.540  -2.301  22.597  0.00  0.00    -0.227 OA
BRANCH   2   4
ATOM      4  O   UNL     1       8.289  -1.501  23.219  0.00  0.00    -0.302 OA
ATOM      5  H   UNL     1       8.157  -0.527  23.155  0.00  0.00    +0.222 HD
ENDBRANCH   2   4
BRANCH   2   6
ATOM      6  O   UNL     1       9.284  -3.353  24.317  0.00  0.00    -0.284 OA
BRANCH   6   7
ATOM      7  C   UNL     1       8.700  -3.378  25.628  0.00  0.00    +0.206 C 
BRANCH   7   8
ATOM      8  C   UNL     1       8.069  -4.715  25.937  0.00  0.00    +0.179 C 
ATOM      9  C   UNL     1       7.287  -4.638  27.247  0.00  0.00    +0.194 C 
ATOM     10  C   UNL     1       5.816  -4.445  26.803  0.00  0.00    +0.196 C 
ATOM     11  C   UNL     1       5.901  -4.342  25.271  0.00  0.00    +0.253 C 
ATOM     12  O   UNL     1       7.121  -5.014  24.921  0.00  0.00    -0.346 OA
BRANCH  11  13
ATOM     13  N   UNL     1       4.886  -4.892  24.409  0.00  0.00    -0.286 N 
ATOM     14  C   UNL     1       4.122  -6.018  24.550  0.00  0.00    +0.167 A 
ATOM     15  N   UNL     1       4.197  -6.954  25.511  0.00  0.00    -0.216 NA
ATOM     16  C   UNL     1       3.290  -7.936  25.279  0.00  0.00    +0.225 A 
ATOM     17  N   UNL     1       2.385  -8.036  24.272  0.00  0.00    -0.219 NA
ATOM     18  C   UNL     1       2.339  -7.039  23.367  0.00  0.00    +0.147 A 
ATOM     19  N   UNL     1       1.405  -7.092  22.332  0.00  0.00    -0.341 N 
ATOM     20  H   UNL     1       1.652  -6.499  21.552  0.00  0.00    +0.144 HD
ATOM     21  H   UNL     1       1.118  -8.042  22.122  0.00  0.00    +0.144 HD
ATOM     22  C   UNL     1       3.243  -5.976  23.483  0.00  0.00    +0.147 A 
ATOM     23  N   UNL     1       3.426  -4.854  22.713  0.00  0.00    -0.231 NA
ATOM     24  C   UNL     1       4.405  -4.215  23.309  0.00  0.00    +0.203 A 
ENDBRANCH  11  13
BRANCH  10  25
ATOM     25  O   UNL     1       5.317  -3.224  27.364  0.00  0.00    -0.385 OA
ATOM     26  H   UNL     1       5.530  -2.506  26.735  0.00  0.00    +0.210 HD
ENDBRANCH  10  25
BRANCH   9  27
ATOM     27  O   UNL     1       7.428  -5.864  27.964  0.00  0.00    -0.278 OA
BRANCH  27  28
ATOM     28  P   UNL     1       5.964  -6.502  28.630  0.00  0.00    +0.473 P 
ATOM     29  O   UNL     1       4.654  -7.072  29.226  0.00  0.00    -0.228 OA
BRANCH  28  30
ATOM     30  O   UNL     1       6.132  -5.356  29.781  0.00  0.00    -0.303 OA
ATOM     31  H   UNL     1       6.708  -5.675  30.498  0.00  0.00    +0.222 HD
ENDBRANCH  28  30
BRANCH  28  32
ATOM     32  O   UNL     1       6.965  -7.599  29.306  0.00  0.00    -0.303 OA
ATOM     33  H   UNL     1       7.698  -7.750  28.681  0.00  0.00    +0.222 HD
ENDBRANCH  28  32
ENDBRANCH  27  28
ENDBRANCH   9  27
ENDBRANCH   7   8
ENDBRANCH   6   7
ENDBRANCH   2   6
ENDBRANCH   1   2
BRANCH   1  34
ATOM     34  P   UNL     1       9.561   0.745  22.223  0.00  0.00    +0.483 P 
ATOM     35  O   UNL     1       9.092   0.052  20.990  0.00  0.00    -0.227 OA
BRANCH  34  36
ATOM     36  O   UNL     1      10.543   1.965  21.899  0.00  0.00    -0.302 OA
ATOM     37  H   UNL     1      11.236   1.983  22.593  0.00  0.00    +0.222 HD
ENDBRANCH  34  36
BRANCH  34  38
ATOM     38  O   UNL     1       8.365   1.432  23.049  0.00  0.00    -0.286 OA
BRANCH  38  39
ATOM     39  C   UNL     1       8.653   2.244  24.178  0.00  0.00    +0.181 C 
BRANCH  39  41
ATOM     40  C   UNL     1       7.342   4.121  25.184  0.00  0.00    +0.016 C 
ATOM     41  C   UNL     1       8.138   3.684  23.940  0.00  0.00    +0.024 C 
ATOM     42  C   UNL     1       9.384   4.587  23.788  0.00  0.00    +0.016 C 
BRANCH  41  43
ATOM     43  C   UNL     1       7.228   3.719  22.678  0.00  0.00    +0.208 C 
BRANCH  43  44
ATOM     44  C   UNL     1       6.615   5.102  22.357  0.00  0.00    +0.242 C 
ATOM     45  N   UNL     1       5.272   5.196  22.635  0.00  0.00    -0.313 N 
ATOM     46  H   UNL     1       4.943   4.558  23.355  0.00  0.00    +0.149 HD
ATOM     47  O   UNL     1       7.235   6.021  21.831  0.00  0.00    -0.273 OA
BRANCH  45  48
ATOM     48  C   UNL     1       4.550   6.421  22.364  0.00  0.00    +0.113 C 
BRANCH  48  49
ATOM     49  C   UNL     1       3.495   6.767  23.417  0.00  0.00    +0.114 C 
BRANCH  49  50
ATOM     50  C   UNL     1       3.943   6.463  24.827  0.00  0.00    +0.215 C 
ATOM     51  N   UNL     1       3.079   5.653  25.531  0.00  0.00    -0.314 N 
ATOM     52  H   UNL     1       2.379   5.140  25.014  0.00  0.00    +0.149 HD
ATOM     53  O   UNL     1       4.999   6.896  25.278  0.00  0.00    -0.276 OA
BRANCH  51  54
ATOM     54  C   UNL     1       3.299   5.249  26.909  0.00  0.00    +0.115 C 
BRANCH  54  55
ATOM     55  C   UNL     1       3.061   3.777  27.223  0.00  0.00    +0.096 C 
BRANCH  55  56
ATOM     56  S   UNL     1       4.620   2.825  27.369  0.00  0.00    -0.086 S 
BRANCH  56  57
ATOM     57  C   UNL     1       4.380   1.884  25.891  0.00  0.00    +0.200 C 
ATOM     58  O   UNL     1       4.028   2.441  24.864  0.00  0.00    -0.285 OA
BRANCH  57  59
ATOM     59  C   UNL     1       4.650   0.415  26.018  0.00  0.00    +0.206 C 
BRANCH  59  60
ATOM     60  C   UNL     1       5.926   0.044  25.323  0.00  0.00    +0.313 C 
ATOM     61  O   UNL     1       6.952  -0.369  25.852  0.00  0.00    -0.251 OA
BRANCH  60  62
ATOM     62  O   UNL     1       5.880   0.139  23.984  0.00  0.00    -0.480 OA
ATOM     63  H   UNL     1       5.119   0.619  23.602  0.00  0.00    +0.295 HD
ENDBRANCH  60  62
ENDBRANCH  59  60
ENDBRANCH  57  59
ENDBRANCH  56  57
ENDBRANCH  55  56
ENDBRANCH  54  55
ENDBRANCH  51  54
ENDBRANCH  49  50
ENDBRANCH  48  49
ENDBRANCH  45  48
ENDBRANCH  43  44
BRANCH  43  64
ATOM     64  O   UNL     1       6.148   2.771  22.799  0.00  0.00    -0.382 OA
ATOM     65  H   UNL     1       6.380   2.156  23.510  0.00  0.00    +0.210 HD
ENDBRANCH  43  64
ENDBRANCH  41  43
ENDBRANCH  39  41
ENDBRANCH  38  39
ENDBRANCH  34  38
ENDBRANCH   1  34
TORSDOF 29
ENDMDL
MODEL 9
REMARK VINA RESULT:      -5.4      3.045      6.908
REMARK  Name = 
REMARK  31 active torsions:
REMARK  status: ('A' for Active; 'I' for Inactive)
REMARK    1  A    between atoms: C_1  and  C_2
REMARK    2  A    between atoms: C_2  and  C_3
REMARK    3  A    between atoms: C_2  and  C_4
REMARK    4  A    between atoms: C_2  and  C_40
REMARK    5  A    between atoms: C_4  and  O_5
REMARK    6  A    between atoms: O_5  and  P_6
REMARK    7  A    between atoms: P_6  and  O_7
REMARK    8  A    between atoms: P_6  and  O_9
REMARK    9  A    between atoms: O_9  and  P_10
REMARK   10  A    between atoms: P_10  and  O_11
REMARK   11  A    between atoms: P_10  and  O_13
REMARK   12  A    between atoms: O_13  and  C_14
REMARK   13  A    between atoms: C_14  and  C_15
REMARK   14  A    between atoms: C_18  and  N_30
REMARK   15  A    between atoms: C_20  and  O_22
REMARK   16  A    between atoms: C_23  and  O_25
REMARK   17  A    between atoms: O_25  and  P_26
REMARK   18  A    between atoms: P_26  and  O_27
REMARK   19  A    between atoms: P_26  and  O_28
REMARK   20  A    between atoms: C_40  and  O_42
REMARK   21  A    between atoms: C_40  and  C_43
REMARK   22  A    between atoms: N_45  and  C_46
REMARK   23  A    between atoms: C_46  and  C_47
REMARK   24  A    between atoms: C_47  and  C_48
REMARK   25  A    between atoms: N_50  and  C_51
REMARK   26  A    between atoms: C_51  and  C_52
REMARK   27  A    between atoms: C_52  and  S_53
REMARK   28  A    between atoms: S_53  and  C_54
REMARK   29  A    between atoms: C_54  and  C_56
REMARK   30  A    between atoms: C_56  and  C_57
REMARK   31  A    between atoms: C_57  and  O_58
REMARK                            x       y       z     vdW  Elec       q    Type
REMARK                         _______ _______ _______ _____ _____    ______ ____
ROOT
ATOM      1  O   UNL     1       5.756  -1.007  26.724  0.00  0.00    -0.186 OA
ENDROOT
BRANCH   1   2
ATOM      2  P   UNL     1       5.210   0.335  25.779  0.00  0.00    +0.483 P 
ATOM      3  O   UNL     1       6.109  -0.201  24.665  0.00  0.00    -0.227 OA
BRANCH   2   4
ATOM      4  O   UNL     1       6.197   1.321  26.607  0.00  0.00    -0.302 OA
ATOM      5  H   UNL     1       6.827   0.764  27.122  0.00  0.00    +0.222 HD
ENDBRANCH   2   4
BRANCH   2   6
ATOM      6  O   UNL     1       4.663   1.676  24.835  0.00  0.00    -0.284 OA
BRANCH   6   7
ATOM      7  C   UNL     1       5.528   1.992  23.733  0.00  0.00    +0.206 C 
BRANCH   7   8
ATOM      8  C   UNL     1       5.551   3.473  23.442  0.00  0.00    +0.179 C 
ATOM      9  C   UNL     1       4.847   4.241  24.560  0.00  0.00    +0.194 C 
ATOM     10  C   UNL     1       6.001   4.758  25.453  0.00  0.00    +0.196 C 
ATOM     11  C   UNL     1       7.265   4.162  24.810  0.00  0.00    +0.253 C 
ATOM     12  O   UNL     1       6.902   3.913  23.443  0.00  0.00    -0.346 OA
BRANCH  11  13
ATOM     13  N   UNL     1       8.512   4.881  24.764  0.00  0.00    -0.286 N 
ATOM     14  C   UNL     1       9.714   4.533  24.210  0.00  0.00    +0.167 A 
ATOM     15  N   UNL     1      10.053   3.367  23.637  0.00  0.00    -0.216 NA
ATOM     16  C   UNL     1      11.351   3.400  23.243  0.00  0.00    +0.225 A 
ATOM     17  N   UNL     1      12.244   4.417  23.346  0.00  0.00    -0.219 NA
ATOM     18  C   UNL     1      11.822   5.572  23.895  0.00  0.00    +0.147 A 
ATOM     19  N   UNL     1      12.702   6.649  23.995  0.00  0.00    -0.341 N 
ATOM     20  H   UNL     1      12.412   7.328  24.685  0.00  0.00    +0.144 HD
ATOM     21  H   UNL     1      13.672   6.352  24.012  0.00  0.00    +0.144 HD
ATOM     22  C   UNL     1      10.505   5.657  24.365  0.00  0.00    +0.147 A 
ATOM     23  N   UNL     1       9.822   6.684  24.967  0.00  0.00    -0.231 NA
ATOM     24  C   UNL     1       8.624   6.192  25.173  0.00  0.00    +0.203 A 
ENDBRANCH  11  13
BRANCH  10  25
ATOM     25  O   UNL     1       5.823   4.249  26.782  0.00  0.00    -0.385 OA
ATOM     26  H   UNL     1       6.367   3.440  26.860  0.00  0.00    +0.210 HD
ENDBRANCH  10  25
BRANCH   9  27
ATOM     27  O   UNL     1       4.123   5.340  24.006  0.00  0.00    -0.278 OA
BRANCH  27  28
ATOM     28  P   UNL     1       3.240   4.988  22.560  0.00  0.00    +0.473 P 
ATOM     29  O   UNL     1       2.451   4.673  21.267  0.00  0.00    -0.228 OA
BRANCH  28  30
ATOM     30  O   UNL     1       4.138   6.164  21.871  0.00  0.00    -0.303 OA
ATOM     31  H   UNL     1       3.671   6.543  21.104  0.00  0.00    +0.222 HD
ENDBRANCH  28  30
BRANCH  28  32
ATOM     32  O   UNL     1       2.118   5.968  23.225  0.00  0.00    -0.303 OA
ATOM     33  H   UNL     1       2.118   6.800  22.716  0.00  0.00    +0.222 HD
ENDBRANCH  28  32
ENDBRANCH  27  28
ENDBRANCH   9  27
ENDBRANCH   7   8
ENDBRANCH   6   7
ENDBRANCH   2   6
ENDBRANCH   1   2
BRANCH   1  34
ATOM     34  P   UNL     1       5.588  -2.560  26.398  0.00  0.00    +0.483 P 
ATOM     35  O   UNL     1       6.853  -3.348  26.387  0.00  0.00    -0.227 OA
BRANCH  34  36
ATOM     36  O   UNL     1       4.773  -2.702  25.029  0.00  0.00    -0.302 OA
ATOM     37  H   UNL     1       4.246  -3.528  25.079  0.00  0.00    +0.222 HD
ENDBRANCH  34  36
BRANCH  34  38
ATOM     38  O   UNL     1       4.545  -3.066  27.512  0.00  0.00    -0.286 OA
BRANCH  38  39
ATOM     39  C   UNL     1       3.774  -4.238  27.287  0.00  0.00    +0.181 C 
BRANCH  39  41
ATOM     40  C   UNL     1       5.002  -4.741  29.407  0.00  0.00    +0.016 C 
ATOM     41  C   UNL     1       4.257  -5.376  28.218  0.00  0.00    +0.024 C 
ATOM     42  C   UNL     1       2.992  -6.098  28.737  0.00  0.00    +0.016 C 
BRANCH  41  43
ATOM     43  C   UNL     1       5.202  -6.334  27.437  0.00  0.00    +0.208 C 
BRANCH  43  44
ATOM     44  C   UNL     1       4.733  -6.684  26.005  0.00  0.00    +0.242 C 
ATOM     45  N   UNL     1       5.369  -5.971  25.018  0.00  0.00    -0.313 N 
ATOM     46  H   UNL     1       6.296  -5.634  25.268  0.00  0.00    +0.149 HD
ATOM     47  O   UNL     1       3.824  -7.469  25.755  0.00  0.00    -0.273 OA
BRANCH  45  48
ATOM     48  C   UNL     1       5.020  -6.168  23.627  0.00  0.00    +0.113 C 
BRANCH  48  49
ATOM     49  C   UNL     1       6.211  -6.087  22.669  0.00  0.00    +0.114 C 
BRANCH  49  50
ATOM     50  C   UNL     1       7.221  -5.037  23.067  0.00  0.00    +0.215 C 
ATOM     51  N   UNL     1       6.849  -3.748  22.750  0.00  0.00    -0.314 N 
ATOM     52  H   UNL     1       5.880  -3.574  22.522  0.00  0.00    +0.149 HD
ATOM     53  O   UNL     1       8.267  -5.328  23.639  0.00  0.00    -0.276 OA
BRANCH  51  54
ATOM     54  C   UNL     1       7.675  -2.584  23.021  0.00  0.00    +0.115 C 
BRANCH  54  55
ATOM     55  C   UNL     1       8.254  -1.874  21.803  0.00  0.00    +0.096 C 
BRANCH  55  56
ATOM     56  S   UNL     1       8.923  -0.215  22.204  0.00  0.00    -0.086 S 
BRANCH  56  57
ATOM     57  C   UNL     1      10.324  -0.814  23.102  0.00  0.00    +0.200 C 
ATOM     58  O   UNL     1      10.951  -1.774  22.684  0.00  0.00    -0.285 OA
BRANCH  57  59
ATOM     59  C   UNL     1      10.653  -0.056  24.352  0.00  0.00    +0.206 C 
BRANCH  59  60
ATOM     60  C   UNL     1       9.495  -0.068  25.305  0.00  0.00    +0.313 C 
ATOM     61  O   UNL     1       9.089  -1.029  25.949  0.00  0.00    -0.251 OA
BRANCH  60  62
ATOM     62  O   UNL     1       8.904   1.125  25.479  0.00  0.00    -0.480 OA
ATOM     63  H   UNL     1       9.069   1.579  26.328  0.00  0.00    +0.295 HD
ENDBRANCH  60  62
ENDBRANCH  59  60
ENDBRANCH  57  59
ENDBRANCH  56  57
ENDBRANCH  55  56
ENDBRANCH  54  55
ENDBRANCH  51  54
ENDBRANCH  49  50
ENDBRANCH  48  49
ENDBRANCH  45  48
ENDBRANCH  43  44
BRANCH  43  64
ATOM     64  O   UNL     1       5.391  -7.568  28.158  0.00  0.00    -0.382 OA
ATOM     65  H   UNL     1       6.309  -7.846  28.022  0.00  0.00    +0.210 HD
ENDBRANCH  43  64
ENDBRANCH  41  43
ENDBRANCH  39  41
ENDBRANCH  38  39
ENDBRANCH  34  38
ENDBRANCH   1  34
TORSDOF 29
ENDMDL
