MODEL 1
REMARK VINA RESULT:      -7.2      0.000      0.000
REMARK  Name = 
REMARK  2 active torsions:
REMARK  status: ('A' for Active; 'I' for Inactive)
REMARK    1  A    between atoms: N_1  and  C_2
REMARK    2  A    between atoms: N_9  and  C_10
REMARK                            x       y       z     vdW  Elec       q    Type
REMARK                         _______ _______ _______ _____ _____    ______ ____
ROOT
ATOM      1  C   UNL     1       9.832   0.171  24.039  0.00  0.00    +0.030 A 
ATOM      2  C   UNL     1       9.142  -1.023  24.176  0.00  0.00    +0.003 A 
ATOM      3  C   UNL     1       8.695  -1.742  25.407  0.00  0.00    +0.146 C 
ATOM      4  N   UNL     1       7.972  -2.887  24.867  0.00  0.00    -0.282 N 
ATOM      5  C   UNL     1       8.051  -2.954  23.488  0.00  0.00    +0.248 C 
ATOM      6  O   UNL     1       7.612  -3.818  22.753  0.00  0.00    -0.270 OA
ATOM      7  C   UNL     1       8.765  -1.754  23.046  0.00  0.00    +0.043 A 
ATOM      8  C   UNL     1       9.064  -1.361  21.755  0.00  0.00    +0.013 A 
ATOM      9  C   UNL     1       9.796  -0.188  21.605  0.00  0.00    +0.003 A 
ATOM     10  C   UNL     1      10.195   0.554  22.737  0.00  0.00    +0.023 A 
ENDROOT
BRANCH   4  11
ATOM     11  C   UNL     1       7.442  -3.976  25.676  0.00  0.00    +0.163 C 
ATOM     12  C   UNL     1       8.505  -4.970  26.170  0.00  0.00    +0.240 C 
ATOM     13  O   UNL     1       9.683  -4.964  25.826  0.00  0.00    -0.273 OA
ATOM     14  N   UNL     1       8.044  -5.897  27.080  0.00  0.00    -0.255 N 
ATOM     15  H   UNL     1       8.725  -6.576  27.393  0.00  0.00    +0.158 HD
ATOM     16  C   UNL     1       6.943  -5.765  27.890  0.00  0.00    +0.219 C 
ATOM     17  O   UNL     1       6.766  -6.518  28.843  0.00  0.00    -0.275 OA
ATOM     18  C   UNL     1       5.960  -4.671  27.536  0.00  0.00    +0.098 C 
ATOM     19  C   UNL     1       6.656  -3.482  26.886  0.00  0.00    +0.041 C 
ENDBRANCH   4  11
BRANCH   1  20
ATOM     20  N   UNL     1      10.356   0.854  25.137  0.00  0.00    -0.358 N 
ATOM     21  H   UNL     1       9.908   1.736  25.356  0.00  0.00    +0.142 HD
ATOM     22  H   UNL     1      11.369   0.931  25.135  0.00  0.00    +0.142 HD
ENDBRANCH   1  20
TORSDOF 2
ENDMDL
MODEL 2
REMARK VINA RESULT:      -6.8      2.131      2.398
REMARK  Name = 
REMARK  2 active torsions:
REMARK  status: ('A' for Active; 'I' for Inactive)
REMARK    1  A    between atoms: N_1  and  C_2
REMARK    2  A    between atoms: N_9  and  C_10
REMARK                            x       y       z     vdW  Elec       q    Type
REMARK                         _______ _______ _______ _____ _____    ______ ____
ROOT
ATOM      1  C   UNL     1       7.445   1.065  22.407  0.00  0.00    +0.030 A 
ATOM      2  C   UNL     1       7.818  -0.191  22.858  0.00  0.00    +0.003 A 
ATOM      3  C   UNL     1       6.998  -1.276  23.477  0.00  0.00    +0.146 C 
ATOM      4  N   UNL     1       7.965  -2.351  23.657  0.00  0.00    -0.282 N 
ATOM      5  C   UNL     1       9.248  -1.964  23.313  0.00  0.00    +0.248 C 
ATOM      6  O   UNL     1      10.276  -2.606  23.410  0.00  0.00    -0.270 OA
ATOM      7  C   UNL     1       9.150  -0.605  22.774  0.00  0.00    +0.043 A 
ATOM      8  C   UNL     1      10.161   0.193  22.273  0.00  0.00    +0.013 A 
ATOM      9  C   UNL     1       9.809   1.473  21.859  0.00  0.00    +0.003 A 
ATOM     10  C   UNL     1       8.471   1.909  21.949  0.00  0.00    +0.023 A 
ENDROOT
BRANCH   4  11
ATOM     11  C   UNL     1       7.683  -3.600  24.350  0.00  0.00    +0.163 C 
ATOM     12  C   UNL     1       7.959  -3.560  25.861  0.00  0.00    +0.240 C 
ATOM     13  O   UNL     1       8.499  -2.627  26.449  0.00  0.00    -0.273 OA
ATOM     14  N   UNL     1       7.527  -4.671  26.553  0.00  0.00    -0.255 N 
ATOM     15  H   UNL     1       7.728  -4.672  27.544  0.00  0.00    +0.158 HD
ATOM     16  C   UNL     1       6.540  -5.541  26.160  0.00  0.00    +0.219 C 
ATOM     17  O   UNL     1       6.049  -6.338  26.955  0.00  0.00    -0.275 OA
ATOM     18  C   UNL     1       6.113  -5.484  24.710  0.00  0.00    +0.098 C 
ATOM     19  C   UNL     1       6.248  -4.077  24.143  0.00  0.00    +0.041 C 
ENDBRANCH   4  11
BRANCH   1  20
ATOM     20  N   UNL     1       6.161   1.573  22.608  0.00  0.00    -0.358 N 
ATOM     21  H   UNL     1       5.403   0.965  22.320  0.00  0.00    +0.142 HD
ATOM     22  H   UNL     1       6.034   2.524  22.276  0.00  0.00    +0.142 HD
ENDBRANCH   1  20
TORSDOF 2
ENDMDL
MODEL 3
REMARK VINA RESULT:      -6.5      2.861      6.459
REMARK  Name = 
REMARK  2 active torsions:
REMARK  status: ('A' for Active; 'I' for Inactive)
REMARK    1  A    between atoms: N_1  and  C_2
REMARK    2  A    between atoms: N_9  and  C_10
REMARK                            x       y       z     vdW  Elec       q    Type
REMARK                         _______ _______ _______ _____ _____    ______ ____
ROOT
ATOM      1  C   UNL     1       6.500  -5.638  25.905  0.00  0.00    +0.030 A 
ATOM      2  C   UNL     1       6.607  -4.759  24.839  0.00  0.00    +0.003 A 
ATOM      3  C   UNL     1       7.676  -3.767  24.511  0.00  0.00    +0.146 C 
ATOM      4  N   UNL     1       7.227  -3.217  23.237  0.00  0.00    -0.282 N 
ATOM      5  C   UNL     1       5.986  -3.702  22.866  0.00  0.00    +0.248 C 
ATOM      6  O   UNL     1       5.318  -3.391  21.898  0.00  0.00    -0.270 OA
ATOM      7  C   UNL     1       5.607  -4.706  23.864  0.00  0.00    +0.043 A 
ATOM      8  C   UNL     1       4.466  -5.484  23.906  0.00  0.00    +0.013 A 
ATOM      9  C   UNL     1       4.325  -6.339  24.994  0.00  0.00    +0.003 A 
ATOM     10  C   UNL     1       5.319  -6.394  25.992  0.00  0.00    +0.023 A 
ENDROOT
BRANCH   4  11
ATOM     11  C   UNL     1       7.870  -2.105  22.553  0.00  0.00    +0.163 C 
ATOM     12  C   UNL     1       7.368  -0.720  22.989  0.00  0.00    +0.240 C 
ATOM     13  O   UNL     1       6.416  -0.525  23.740  0.00  0.00    -0.273 OA
ATOM     14  N   UNL     1       8.092   0.338  22.483  0.00  0.00    -0.255 N 
ATOM     15  H   UNL     1       7.755   1.257  22.738  0.00  0.00    +0.158 HD
ATOM     16  C   UNL     1       9.392   0.299  22.043  0.00  0.00    +0.219 C 
ATOM     17  O   UNL     1      10.029   1.332  21.860  0.00  0.00    -0.275 OA
ATOM     18  C   UNL     1       9.982  -1.068  21.774  0.00  0.00    +0.098 C 
ATOM     19  C   UNL     1       9.389  -2.125  22.697  0.00  0.00    +0.041 C 
ENDBRANCH   4  11
BRANCH   1  20
ATOM     20  N   UNL     1       7.397  -5.619  26.973  0.00  0.00    -0.358 N 
ATOM     21  H   UNL     1       7.919  -4.757  27.089  0.00  0.00    +0.142 HD
ATOM     22  H   UNL     1       7.995  -6.437  27.030  0.00  0.00    +0.142 HD
ENDBRANCH   1  20
TORSDOF 2
ENDMDL
MODEL 4
REMARK VINA RESULT:      -6.2      2.719      6.346
REMARK  Name = 
REMARK  2 active torsions:
REMARK  status: ('A' for Active; 'I' for Inactive)
REMARK    1  A    between atoms: N_1  and  C_2
REMARK    2  A    between atoms: N_9  and  C_10
REMARK                            x       y       z     vdW  Elec       q    Type
REMARK                         _______ _______ _______ _____ _____    ______ ____
ROOT
ATOM      1  C   UNL     1       8.799  -4.866  25.325  0.00  0.00    +0.030 A 
ATOM      2  C   UNL     1       8.464  -3.605  24.859  0.00  0.00    +0.003 A 
ATOM      3  C   UNL     1       9.339  -2.479  24.412  0.00  0.00    +0.146 C 
ATOM      4  N   UNL     1       8.376  -1.471  23.985  0.00  0.00    -0.282 N 
ATOM      5  C   UNL     1       7.071  -1.853  24.237  0.00  0.00    +0.248 C 
ATOM      6  O   UNL     1       6.054  -1.212  24.057  0.00  0.00    -0.270 OA
ATOM      7  C   UNL     1       7.124  -3.221  24.761  0.00  0.00    +0.043 A 
ATOM      8  C   UNL     1       6.073  -4.038  25.131  0.00  0.00    +0.013 A 
ATOM      9  C   UNL     1       6.396  -5.290  25.643  0.00  0.00    +0.003 A 
ATOM     10  C   UNL     1       7.744  -5.687  25.760  0.00  0.00    +0.023 A 
ENDROOT
BRANCH   4  11
ATOM     11  C   UNL     1       8.732  -0.119  23.577  0.00  0.00    +0.163 C 
ATOM     12  C   UNL     1       8.918   0.863  24.743  0.00  0.00    +0.240 C 
ATOM     13  O   UNL     1       8.666   0.612  25.918  0.00  0.00    -0.273 OA
ATOM     14  N   UNL     1       9.429   2.091  24.382  0.00  0.00    -0.255 N 
ATOM     15  H   UNL     1       9.530   2.759  25.135  0.00  0.00    +0.158 HD
ATOM     16  C   UNL     1      10.170   2.367  23.259  0.00  0.00    +0.219 C 
ATOM     17  O   UNL     1      10.796   3.418  23.158  0.00  0.00    -0.275 OA
ATOM     18  C   UNL     1      10.154   1.331  22.157  0.00  0.00    +0.098 C 
ATOM     19  C   UNL     1       9.990  -0.076  22.715  0.00  0.00    +0.041 C 
ENDBRANCH   4  11
BRANCH   1  20
ATOM     20  N   UNL     1      10.119  -5.236  25.579  0.00  0.00    -0.358 N 
ATOM     21  H   UNL     1      10.778  -5.039  24.833  0.00  0.00    +0.142 HD
ATOM     22  H   UNL     1      10.226  -6.178  25.943  0.00  0.00    +0.142 HD
ENDBRANCH   1  20
TORSDOF 2
ENDMDL
MODEL 5
REMARK VINA RESULT:      -6.1      3.913      5.781
REMARK  Name = 
REMARK  2 active torsions:
REMARK  status: ('A' for Active; 'I' for Inactive)
REMARK    1  A    between atoms: N_1  and  C_2
REMARK    2  A    between atoms: N_9  and  C_10
REMARK                            x       y       z     vdW  Elec       q    Type
REMARK                         _______ _______ _______ _____ _____    ______ ____
ROOT
ATOM      1  C   UNL     1       7.866   5.246  23.321  0.00  0.00    +0.030 A 
ATOM      2  C   UNL     1       8.426   3.987  23.467  0.00  0.00    +0.003 A 
ATOM      3  C   UNL     1       7.784   2.638  23.450  0.00  0.00    +0.146 C 
ATOM      4  N   UNL     1       8.921   1.736  23.588  0.00  0.00    -0.282 N 
ATOM      5  C   UNL     1      10.108   2.417  23.787  0.00  0.00    +0.248 C 
ATOM      6  O   UNL     1      11.212   1.954  24.000  0.00  0.00    -0.270 OA
ATOM      7  C   UNL     1       9.801   3.846  23.678  0.00  0.00    +0.043 A 
ATOM      8  C   UNL     1      10.666   4.919  23.774  0.00  0.00    +0.013 A 
ATOM      9  C   UNL     1      10.111   6.190  23.674  0.00  0.00    +0.003 A 
ATOM     10  C   UNL     1       8.724   6.348  23.475  0.00  0.00    +0.023 A 
ENDROOT
BRANCH   4  11
ATOM     11  C   UNL     1       8.807   0.294  23.755  0.00  0.00    +0.163 C 
ATOM     12  C   UNL     1       9.466  -0.524  22.634  0.00  0.00    +0.240 C 
ATOM     13  O   UNL     1       9.935  -0.050  21.603  0.00  0.00    -0.273 OA
ATOM     14  N   UNL     1       9.523  -1.881  22.872  0.00  0.00    -0.255 N 
ATOM     15  H   UNL     1       9.927  -2.436  22.130  0.00  0.00    +0.158 HD
ATOM     16  C   UNL     1       9.482  -2.495  24.099  0.00  0.00    +0.219 C 
ATOM     17  O   UNL     1       9.801  -3.673  24.227  0.00  0.00    -0.275 OA
ATOM     18  C   UNL     1       9.006  -1.659  25.267  0.00  0.00    +0.098 C 
ATOM     19  C   UNL     1       9.368  -0.191  25.088  0.00  0.00    +0.041 C 
ENDBRANCH   4  11
BRANCH   1  20
ATOM     20  N   UNL     1       6.486   5.440  23.260  0.00  0.00    -0.358 N 
ATOM     21  H   UNL     1       6.162   6.358  23.542  0.00  0.00    +0.142 HD
ATOM     22  H   UNL     1       5.941   4.696  23.686  0.00  0.00    +0.142 HD
ENDBRANCH   1  20
TORSDOF 2
ENDMDL
MODEL 6
REMARK VINA RESULT:      -6.1      2.848      3.697
REMARK  Name = 
REMARK  2 active torsions:
REMARK  status: ('A' for Active; 'I' for Inactive)
REMARK    1  A    between atoms: N_1  and  C_2
REMARK    2  A    between atoms: N_9  and  C_10
REMARK                            x       y       z     vdW  Elec       q    Type
REMARK                         _______ _______ _______ _____ _____    ______ ____
ROOT
ATOM      1  C   UNL     1       7.043   2.288  22.933  0.00  0.00    +0.030 A 
ATOM      2  C   UNL     1       7.802   1.271  23.489  0.00  0.00    +0.003 A 
ATOM      3  C   UNL     1       7.478  -0.174  23.693  0.00  0.00    +0.146 C 
ATOM      4  N   UNL     1       8.712  -0.706  24.257  0.00  0.00    -0.282 N 
ATOM      5  C   UNL     1       9.649   0.284  24.494  0.00  0.00    +0.248 C 
ATOM      6  O   UNL     1      10.743   0.172  25.014  0.00  0.00    -0.270 OA
ATOM      7  C   UNL     1       9.086   1.534  23.976  0.00  0.00    +0.043 A 
ATOM      8  C   UNL     1       9.660   2.790  23.958  0.00  0.00    +0.013 A 
ATOM      9  C   UNL     1       8.892   3.829  23.444  0.00  0.00    +0.003 A 
ATOM     10  C   UNL     1       7.590   3.582  22.961  0.00  0.00    +0.023 A 
ENDROOT
BRANCH   4  11
ATOM     11  C   UNL     1       8.866  -2.066  24.755  0.00  0.00    +0.163 C 
ATOM     12  C   UNL     1       8.380  -2.268  26.198  0.00  0.00    +0.240 C 
ATOM     13  O   UNL     1       8.018  -1.366  26.948  0.00  0.00    -0.273 OA
ATOM     14  N   UNL     1       8.353  -3.582  26.615  0.00  0.00    -0.255 N 
ATOM     15  H   UNL     1       8.063  -3.728  27.573  0.00  0.00    +0.158 HD
ATOM     16  C   UNL     1       8.273  -4.690  25.809  0.00  0.00    +0.219 C 
ATOM     17  O   UNL     1       7.991  -5.791  26.274  0.00  0.00    -0.275 OA
ATOM     18  C   UNL     1       8.571  -4.490  24.339  0.00  0.00    +0.098 C 
ATOM     19  C   UNL     1       8.171  -3.097  23.872  0.00  0.00    +0.041 C 
ENDBRANCH   4  11
BRANCH   1  20
ATOM     20  N   UNL     1       5.708   2.103  22.573  0.00  0.00    -0.358 N 
ATOM     21  H   UNL     1       5.046   2.104  23.341  0.00  0.00    +0.142 HD
ATOM     22  H   UNL     1       5.551   1.328  21.936  0.00  0.00    +0.142 HD
ENDBRANCH   1  20
TORSDOF 2
ENDMDL
MODEL 7
REMARK VINA RESULT:      -6.1      2.168      6.269
REMARK  Name = 
REMARK  2 active torsions:
REMARK  status: ('A' for Active; 'I' for Inactive)
REMARK    1  A    between atoms: N_1  and  C_2
REMARK    2  A    between atoms: N_9  and  C_10
REMARK                            x       y       z     vdW  Elec       q    Type
REMARK                         _______ _______ _______ _____ _____    ______ ____
ROOT
ATOM      1  C   UNL     1       5.993  -3.336  27.171  0.00  0.00    +0.030 A 
ATOM      2  C   UNL     1       7.069  -3.029  26.355  0.00  0.00    +0.003 A 
ATOM      3  C   UNL     1       7.493  -1.721  25.769  0.00  0.00    +0.146 C 
ATOM      4  N   UNL     1       8.727  -2.063  25.073  0.00  0.00    -0.282 N 
ATOM      5  C   UNL     1       8.989  -3.420  25.107  0.00  0.00    +0.248 C 
ATOM      6  O   UNL     1       9.899  -4.022  24.570  0.00  0.00    -0.270 OA
ATOM      7  C   UNL     1       7.956  -4.030  25.949  0.00  0.00    +0.043 A 
ATOM      8  C   UNL     1       7.813  -5.358  26.303  0.00  0.00    +0.013 A 
ATOM      9  C   UNL     1       6.712  -5.688  27.086  0.00  0.00    +0.003 A 
ATOM     10  C   UNL     1       5.801  -4.691  27.492  0.00  0.00    +0.023 A 
ENDROOT
BRANCH   4  11
ATOM     11  C   UNL     1       9.470  -1.142  24.224  0.00  0.00    +0.163 C 
ATOM     12  C   UNL     1       8.908  -1.003  22.801  0.00  0.00    +0.240 C 
ATOM     13  O   UNL     1       8.002  -1.688  22.335  0.00  0.00    -0.273 OA
ATOM     14  N   UNL     1       9.491  -0.005  22.049  0.00  0.00    -0.255 N 
ATOM     15  H   UNL     1       9.152   0.080  21.100  0.00  0.00    +0.158 HD
ATOM     16  C   UNL     1      10.144   1.102  22.532  0.00  0.00    +0.219 C 
ATOM     17  O   UNL     1      10.395   2.056  21.802  0.00  0.00    -0.275 OA
ATOM     18  C   UNL     1      10.555   1.073  23.988  0.00  0.00    +0.098 C 
ATOM     19  C   UNL     1       9.584   0.254  24.827  0.00  0.00    +0.041 C 
ENDBRANCH   4  11
BRANCH   1  20
ATOM     20  N   UNL     1       5.004  -2.401  27.476  0.00  0.00    -0.358 N 
ATOM     21  H   UNL     1       4.884  -1.656  26.798  0.00  0.00    +0.142 HD
ATOM     22  H   UNL     1       5.044  -2.048  28.427  0.00  0.00    +0.142 HD
ENDBRANCH   1  20
TORSDOF 2
ENDMDL
MODEL 8
REMARK VINA RESULT:      -6.0      2.721      6.460
REMARK  Name = 
REMARK  2 active torsions:
REMARK  status: ('A' for Active; 'I' for Inactive)
REMARK    1  A    between atoms: N_1  and  C_2
REMARK    2  A    between atoms: N_9  and  C_10
REMARK                            x       y       z     vdW  Elec       q    Type
REMARK                         _______ _______ _______ _____ _____    ______ ____
ROOT
ATOM      1  C   UNL     1       4.877  -6.065  23.978  0.00  0.00    +0.030 A 
ATOM      2  C   UNL     1       5.664  -4.985  24.345  0.00  0.00    +0.003 A 
ATOM      3  C   UNL     1       6.263  -3.901  23.510  0.00  0.00    +0.146 C 
ATOM      4  N   UNL     1       6.911  -3.050  24.500  0.00  0.00    -0.282 N 
ATOM      5  C   UNL     1       6.838  -3.581  25.775  0.00  0.00    +0.248 C 
ATOM      6  O   UNL     1       7.333  -3.147  26.798  0.00  0.00    -0.270 OA
ATOM      7  C   UNL     1       6.018  -4.793  25.683  0.00  0.00    +0.043 A 
ATOM      8  C   UNL     1       5.640  -5.651  26.698  0.00  0.00    +0.013 A 
ATOM      9  C   UNL     1       4.888  -6.763  26.337  0.00  0.00    +0.003 A 
ATOM     10  C   UNL     1       4.534  -6.978  24.990  0.00  0.00    +0.023 A 
ENDROOT
BRANCH   4  11
ATOM     11  C   UNL     1       7.754  -1.909  24.174  0.00  0.00    +0.163 C 
ATOM     12  C   UNL     1       9.212  -2.273  23.855  0.00  0.00    +0.240 C 
ATOM     13  O   UNL     1       9.700  -3.392  23.986  0.00  0.00    -0.273 OA
ATOM     14  N   UNL     1       9.971  -1.229  23.371  0.00  0.00    -0.255 N 
ATOM     15  H   UNL     1      10.941  -1.446  23.184  0.00  0.00    +0.158 HD
ATOM     16  C   UNL     1       9.500  -0.099  22.749  0.00  0.00    +0.219 C 
ATOM     17  O   UNL     1      10.256   0.640  22.124  0.00  0.00    -0.275 OA
ATOM     18  C   UNL     1       8.023   0.195  22.892  0.00  0.00    +0.098 C 
ATOM     19  C   UNL     1       7.207  -1.085  23.012  0.00  0.00    +0.041 C 
ENDBRANCH   4  11
BRANCH   1  20
ATOM     20  N   UNL     1       4.625  -6.378  22.642  0.00  0.00    -0.358 N 
ATOM     21  H   UNL     1       4.765  -5.620  21.983  0.00  0.00    +0.142 HD
ATOM     22  H   UNL     1       3.745  -6.860  22.486  0.00  0.00    +0.142 HD
ENDBRANCH   1  20
TORSDOF 2
ENDMDL
MODEL 9
REMARK VINA RESULT:      -6.0      3.453      6.721
REMARK  Name = 
REMARK  2 active torsions:
REMARK  status: ('A' for Active; 'I' for Inactive)
REMARK    1  A    between atoms: N_1  and  C_2
REMARK    2  A    between atoms: N_9  and  C_10
REMARK                            x       y       z     vdW  Elec       q    Type
REMARK                         _______ _______ _______ _____ _____    ______ ____
ROOT
ATOM      1  C   UNL     1       7.045  -4.100  22.867  0.00  0.00    +0.030 A 
ATOM      2  C   UNL     1       7.509  -2.843  23.222  0.00  0.00    +0.003 A 
ATOM      3  C   UNL     1       7.071  -1.489  22.764  0.00  0.00    +0.146 C 
ATOM      4  N   UNL     1       7.904  -0.594  23.558  0.00  0.00    -0.282 N 
ATOM      5  C   UNL     1       8.828  -1.281  24.325  0.00  0.00    +0.248 C 
ATOM      6  O   UNL     1       9.699  -0.823  25.039  0.00  0.00    -0.270 OA
ATOM      7  C   UNL     1       8.556  -2.709  24.138  0.00  0.00    +0.043 A 
ATOM      8  C   UNL     1       9.197  -3.787  24.719  0.00  0.00    +0.013 A 
ATOM      9  C   UNL     1       8.771  -5.055  24.338  0.00  0.00    +0.003 A 
ATOM     10  C   UNL     1       7.725  -5.206  23.405  0.00  0.00    +0.023 A 
ENDROOT
BRANCH   4  11
ATOM     11  C   UNL     1       7.947   0.851  23.388  0.00  0.00    +0.163 C 
ATOM     12  C   UNL     1       8.645   1.314  22.100  0.00  0.00    +0.240 C 
ATOM     13  O   UNL     1       9.248   0.576  21.326  0.00  0.00    -0.273 OA
ATOM     14  N   UNL     1       8.532   2.663  21.841  0.00  0.00    -0.255 N 
ATOM     15  H   UNL     1       9.012   2.989  21.012  0.00  0.00    +0.158 HD
ATOM     16  C   UNL     1       7.555   3.505  22.313  0.00  0.00    +0.219 C 
ATOM     17  O   UNL     1       7.389   4.617  21.821  0.00  0.00    -0.275 OA
ATOM     18  C   UNL     1       6.722   3.004  23.472  0.00  0.00    +0.098 C 
ATOM     19  C   UNL     1       6.562   1.490  23.432  0.00  0.00    +0.041 C 
ENDBRANCH   4  11
BRANCH   1  20
ATOM     20  N   UNL     1       6.109  -4.284  21.850  0.00  0.00    -0.358 N 
ATOM     21  H   UNL     1       5.525  -5.108  21.940  0.00  0.00    +0.142 HD
ATOM     22  H   UNL     1       6.487  -4.185  20.913  0.00  0.00    +0.142 HD
ENDBRANCH   1  20
TORSDOF 2
ENDMDL
