MODEL 1
REMARK VINA RESULT:      -7.1      0.000      0.000
REMARK  Name = 
REMARK  16 active torsions:
REMARK  status: ('A' for Active; 'I' for Inactive)
REMARK    1  A    between atoms: O_1  and  C_2
REMARK    2  A    between atoms: C_2  and  C_3
REMARK    3  A    between atoms: C_6  and  O_8
REMARK    4  A    between atoms: O_8  and  P_9
REMARK    5  A    between atoms: P_9  and  O_10
REMARK    6  A    between atoms: P_9  and  O_12
REMARK    7  A    between atoms: O_12  and  P_13
REMARK    8  A    between atoms: P_13  and  O_14
REMARK    9  A    between atoms: P_13  and  O_16
REMARK   10  A    between atoms: O_16  and  C_17
REMARK   11  A    between atoms: C_17  and  C_18
REMARK   12  A    between atoms: C_21  and  N_29
REMARK   13  A    between atoms: C_23  and  O_25
REMARK   14  A    between atoms: C_26  and  O_28
REMARK   15  A    between atoms: C_40  and  O_42
REMARK   16  A    between atoms: C_43  and  O_45
REMARK                            x       y       z     vdW  Elec       q    Type
REMARK                         _______ _______ _______ _____ _____    ______ ____
ROOT
ATOM      1  P   UNL     1       9.645  -2.045  23.436  0.00  0.00    +0.483 P 
ATOM      2  O   UNL     1       8.698  -1.577  24.547  0.00  0.00    -0.227 OA
ENDROOT
BRANCH   1   3
ATOM      3  O   UNL     1       8.807  -1.682  22.079  0.00  0.00    -0.302 OA
ATOM      4  H   UNL     1       8.163  -0.998  22.348  0.00  0.00    +0.222 HD
ENDBRANCH   1   3
BRANCH   1   5
ATOM      5  O   UNL     1       8.889  -3.600  23.468  0.00  0.00    -0.186 OA
BRANCH   5   6
ATOM      6  P   UNL     1       8.978  -4.251  25.069  0.00  0.00    +0.486 P 
ATOM      7  O   UNL     1      10.419  -4.724  24.900  0.00  0.00    -0.227 OA
BRANCH   6   8
ATOM      8  O   UNL     1       9.065  -4.903  26.669  0.00  0.00    -0.302 OA
ATOM      9  H   UNL     1       8.449  -5.670  26.514  0.00  0.00    +0.222 HD
ENDBRANCH   6   8
BRANCH   6  10
ATOM     10  O   UNL     1       7.974  -5.530  24.809  0.00  0.00    -0.253 OA
BRANCH  10  16
ATOM     11  C   UNL     1       5.227  -5.132  22.786  0.00  0.00    +0.178 C 
ATOM     12  C   UNL     1       4.481  -3.894  23.306  0.00  0.00    +0.177 C 
ATOM     13  C   UNL     1       5.360  -2.979  24.157  0.00  0.00    +0.184 C 
ATOM     14  C   UNL     1       6.151  -3.757  25.226  0.00  0.00    +0.253 C 
ATOM     15  F   UNL     1       5.319  -3.819  26.324  0.00  0.00    -0.237 F 
ATOM     16  C   UNL     1       6.554  -5.230  24.873  0.00  0.00    +0.298 C 
ATOM     17  O   UNL     1       5.882  -5.900  23.814  0.00  0.00    -0.340 OA
BRANCH  12  18
ATOM     18  O   UNL     1       3.379  -4.363  24.094  0.00  0.00    -0.386 OA
ATOM     19  H   UNL     1       3.289  -3.781  24.872  0.00  0.00    +0.210 HD
ENDBRANCH  12  18
BRANCH  13  20
ATOM     20  O   UNL     1       6.146  -2.117  23.328  0.00  0.00    -0.386 OA
ATOM     21  H   UNL     1       5.607  -1.905  22.539  0.00  0.00    +0.210 HD
ENDBRANCH  13  20
BRANCH  11  22
ATOM     22  C   UNL     1       6.102  -4.863  21.539  0.00  0.00    +0.190 C 
BRANCH  22  23
ATOM     23  O   UNL     1       5.622  -3.715  20.832  0.00  0.00    -0.392 OA
ATOM     24  H   UNL     1       5.486  -3.006  21.491  0.00  0.00    +0.210 HD
ENDBRANCH  22  23
ENDBRANCH  11  22
ENDBRANCH  10  16
ENDBRANCH   6  10
ENDBRANCH   5   6
ENDBRANCH   1   5
BRANCH   1  25
ATOM     25  O   UNL     1      10.401  -0.488  23.403  0.00  0.00    -0.284 OA
BRANCH  25  26
ATOM     26  C   UNL     1      10.261   0.280  24.599  0.00  0.00    +0.206 C 
BRANCH  26  27
ATOM     27  C   UNL     1      10.135   1.761  24.223  0.00  0.00    +0.178 C 
ATOM     28  C   UNL     1      10.453   2.042  22.755  0.00  0.00    +0.178 C 
ATOM     29  C   UNL     1       9.096   1.933  22.041  0.00  0.00    +0.195 C 
ATOM     30  C   UNL     1       8.090   1.690  23.186  0.00  0.00    +0.255 C 
ATOM     31  O   UNL     1       8.761   2.178  24.361  0.00  0.00    -0.346 OA
BRANCH  30  32
ATOM     32  N   UNL     1       6.755   2.268  23.084  0.00  0.00    -0.271 N 
ATOM     33  C   UNL     1       5.745   1.695  23.839  0.00  0.00    +0.331 A 
ATOM     34  O   UNL     1       5.860   0.643  24.472  0.00  0.00    -0.246 OA
ATOM     35  N   UNL     1       4.559   2.384  23.882  0.00  0.00    -0.275 N 
ATOM     36  H   UNL     1       3.833   1.995  24.452  0.00  0.00    +0.173 HD
ATOM     37  C   UNL     1       4.387   3.681  23.478  0.00  0.00    +0.254 A 
ATOM     38  O   UNL     1       3.375   4.323  23.734  0.00  0.00    -0.268 OA
ATOM     39  C   UNL     1       5.504   4.271  22.740  0.00  0.00    +0.088 A 
ATOM     40  C   UNL     1       6.615   3.549  22.577  0.00  0.00    +0.098 A 
ENDBRANCH  30  32
BRANCH  29  41
ATOM     41  O   UNL     1       9.109   0.832  21.129  0.00  0.00    -0.385 OA
ATOM     42  H   UNL     1       9.978   0.390  21.267  0.00  0.00    +0.210 HD
ENDBRANCH  29  41
BRANCH  28  43
ATOM     43  O   UNL     1      10.955   3.382  22.622  0.00  0.00    -0.386 OA
ATOM     44  H   UNL     1      11.327   3.651  23.482  0.00  0.00    +0.210 HD
ENDBRANCH  28  43
ENDBRANCH  26  27
ENDBRANCH  25  26
ENDBRANCH   1  25
TORSDOF 16
ENDMDL
MODEL 2
REMARK VINA RESULT:      -7.0      2.664      6.897
REMARK  Name = 
REMARK  16 active torsions:
REMARK  status: ('A' for Active; 'I' for Inactive)
REMARK    1  A    between atoms: O_1  and  C_2
REMARK    2  A    between atoms: C_2  and  C_3
REMARK    3  A    between atoms: C_6  and  O_8
REMARK    4  A    between atoms: O_8  and  P_9
REMARK    5  A    between atoms: P_9  and  O_10
REMARK    6  A    between atoms: P_9  and  O_12
REMARK    7  A    between atoms: O_12  and  P_13
REMARK    8  A    between atoms: P_13  and  O_14
REMARK    9  A    between atoms: P_13  and  O_16
REMARK   10  A    between atoms: O_16  and  C_17
REMARK   11  A    between atoms: C_17  and  C_18
REMARK   12  A    between atoms: C_21  and  N_29
REMARK   13  A    between atoms: C_23  and  O_25
REMARK   14  A    between atoms: C_26  and  O_28
REMARK   15  A    between atoms: C_40  and  O_42
REMARK   16  A    between atoms: C_43  and  O_45
REMARK                            x       y       z     vdW  Elec       q    Type
REMARK                         _______ _______ _______ _____ _____    ______ ____
ROOT
ATOM      1  P   UNL     1       6.259  -4.054  22.218  0.00  0.00    +0.483 P 
ATOM      2  O   UNL     1       5.650  -4.129  20.813  0.00  0.00    -0.227 OA
ENDROOT
BRANCH   1   3
ATOM      3  O   UNL     1       5.367  -2.884  22.931  0.00  0.00    -0.302 OA
ATOM      4  H   UNL     1       5.300  -2.170  22.266  0.00  0.00    +0.222 HD
ENDBRANCH   1   3
BRANCH   1   5
ATOM      5  O   UNL     1       7.365  -2.848  21.657  0.00  0.00    -0.186 OA
BRANCH   5   6
ATOM      6  P   UNL     1       8.616  -2.622  22.831  0.00  0.00    +0.486 P 
ATOM      7  O   UNL     1       8.281  -3.910  23.577  0.00  0.00    -0.227 OA
BRANCH   6   8
ATOM      8  O   UNL     1       9.866  -2.394  24.006  0.00  0.00    -0.302 OA
ATOM      9  H   UNL     1       9.325  -1.855  24.645  0.00  0.00    +0.222 HD
ENDBRANCH   6   8
BRANCH   6  10
ATOM     10  O   UNL     1       7.908  -1.361  23.620  0.00  0.00    -0.253 OA
BRANCH  10  16
ATOM     11  C   UNL     1      10.241   1.158  23.507  0.00  0.00    +0.178 C 
ATOM     12  C   UNL     1       9.464   2.475  23.650  0.00  0.00    +0.177 C 
ATOM     13  C   UNL     1       8.077   2.289  24.265  0.00  0.00    +0.184 C 
ATOM     14  C   UNL     1       7.293   1.141  23.601  0.00  0.00    +0.253 C 
ATOM     15  F   UNL     1       6.637   1.717  22.533  0.00  0.00    -0.237 F 
ATOM     16  C   UNL     1       8.135  -0.053  23.032  0.00  0.00    +0.298 C 
ATOM     17  O   UNL     1       9.525   0.126  22.799  0.00  0.00    -0.340 OA
BRANCH  12  18
ATOM     18  O   UNL     1       9.331   3.034  22.337  0.00  0.00    -0.386 OA
ATOM     19  H   UNL     1       9.416   2.313  21.686  0.00  0.00    +0.210 HD
ENDBRANCH  12  18
BRANCH  13  20
ATOM     20  O   UNL     1       8.161   2.221  25.692  0.00  0.00    -0.386 OA
ATOM     21  H   UNL     1       8.293   1.281  25.930  0.00  0.00    +0.210 HD
ENDBRANCH  13  20
BRANCH  11  22
ATOM     22  C   UNL     1      10.917   0.679  24.813  0.00  0.00    +0.190 C 
BRANCH  22  23
ATOM     23  O   UNL     1       9.983  -0.047  25.620  0.00  0.00    -0.392 OA
ATOM     24  H   UNL     1       9.145   0.456  25.615  0.00  0.00    +0.210 HD
ENDBRANCH  22  23
ENDBRANCH  11  22
ENDBRANCH  10  16
ENDBRANCH   6  10
ENDBRANCH   5   6
ENDBRANCH   1   5
BRANCH   1  25
ATOM     25  O   UNL     1       5.153  -5.261  22.779  0.00  0.00    -0.284 OA
BRANCH  25  26
ATOM     26  C   UNL     1       5.648  -6.100  23.824  0.00  0.00    +0.206 C 
BRANCH  26  27
ATOM     27  C   UNL     1       4.807  -5.866  25.085  0.00  0.00    +0.178 C 
ATOM     28  C   UNL     1       5.393  -6.521  26.335  0.00  0.00    +0.178 C 
ATOM     29  C   UNL     1       6.289  -5.435  26.952  0.00  0.00    +0.195 C 
ATOM     30  C   UNL     1       6.063  -4.205  26.046  0.00  0.00    +0.255 C 
ATOM     31  O   UNL     1       4.800  -4.459  25.407  0.00  0.00    -0.346 OA
BRANCH  30  32
ATOM     32  N   UNL     1       6.071  -2.878  26.649  0.00  0.00    -0.271 N 
ATOM     33  C   UNL     1       7.289  -2.225  26.755  0.00  0.00    +0.331 A 
ATOM     34  O   UNL     1       8.380  -2.745  26.517  0.00  0.00    -0.246 OA
ATOM     35  N   UNL     1       7.236  -0.907  27.131  0.00  0.00    -0.275 N 
ATOM     36  H   UNL     1       8.108  -0.417  27.178  0.00  0.00    +0.173 HD
ATOM     37  C   UNL     1       6.103  -0.136  27.143  0.00  0.00    +0.254 A 
ATOM     38  O   UNL     1       6.136   1.082  27.272  0.00  0.00    -0.268 OA
ATOM     39  C   UNL     1       4.842  -0.857  26.962  0.00  0.00    +0.088 A 
ATOM     40  C   UNL     1       4.883  -2.170  26.731  0.00  0.00    +0.098 A 
ENDBRANCH  30  32
BRANCH  29  41
ATOM     41  O   UNL     1       7.657  -5.851  26.919  0.00  0.00    -0.385 OA
ATOM     42  H   UNL     1       8.150  -5.094  26.529  0.00  0.00    +0.210 HD
ENDBRANCH  29  41
BRANCH  28  43
ATOM     43  O   UNL     1       4.333  -6.841  27.250  0.00  0.00    -0.386 OA
ATOM     44  H   UNL     1       4.734  -7.201  28.062  0.00  0.00    +0.210 HD
ENDBRANCH  28  43
ENDBRANCH  26  27
ENDBRANCH  25  26
ENDBRANCH   1  25
TORSDOF 16
ENDMDL
MODEL 3
REMARK VINA RESULT:      -7.0      3.280      7.293
REMARK  Name = 
REMARK  16 active torsions:
REMARK  status: ('A' for Active; 'I' for Inactive)
REMARK    1  A    between atoms: O_1  and  C_2
REMARK    2  A    between atoms: C_2  and  C_3
REMARK    3  A    between atoms: C_6  and  O_8
REMARK    4  A    between atoms: O_8  and  P_9
REMARK    5  A    between atoms: P_9  and  O_10
REMARK    6  A    between atoms: P_9  and  O_12
REMARK    7  A    between atoms: O_12  and  P_13
REMARK    8  A    between atoms: P_13  and  O_14
REMARK    9  A    between atoms: P_13  and  O_16
REMARK   10  A    between atoms: O_16  and  C_17
REMARK   11  A    between atoms: C_17  and  C_18
REMARK   12  A    between atoms: C_21  and  N_29
REMARK   13  A    between atoms: C_23  and  O_25
REMARK   14  A    between atoms: C_26  and  O_28
REMARK   15  A    between atoms: C_40  and  O_42
REMARK   16  A    between atoms: C_43  and  O_45
REMARK                            x       y       z     vdW  Elec       q    Type
REMARK                         _______ _______ _______ _____ _____    ______ ____
ROOT
ATOM      1  P   UNL     1       4.692  -0.913  26.676  0.00  0.00    +0.483 P 
ATOM      2  O   UNL     1       3.195  -0.588  26.739  0.00  0.00    -0.227 OA
ENDROOT
BRANCH   1   3
ATOM      3  O   UNL     1       5.310   0.023  27.866  0.00  0.00    -0.302 OA
ATOM      4  H   UNL     1       5.600  -0.601  28.561  0.00  0.00    +0.222 HD
ENDBRANCH   1   3
BRANCH   1   5
ATOM      5  O   UNL     1       4.912   0.389  25.559  0.00  0.00    -0.186 OA
BRANCH   5   6
ATOM      6  P   UNL     1       6.400   1.201  25.906  0.00  0.00    +0.486 P 
ATOM      7  O   UNL     1       5.749   2.581  25.944  0.00  0.00    -0.227 OA
BRANCH   6   8
ATOM      8  O   UNL     1       7.889   2.013  26.251  0.00  0.00    -0.302 OA
ATOM      9  H   UNL     1       8.109   2.253  25.310  0.00  0.00    +0.222 HD
ENDBRANCH   6   8
BRANCH   6  10
ATOM     10  O   UNL     1       7.083   0.986  24.423  0.00  0.00    -0.253 OA
BRANCH  10  16
ATOM     11  C   UNL     1      10.177  -0.505  24.350  0.00  0.00    +0.178 C 
ATOM     12  C   UNL     1      10.182  -1.434  23.128  0.00  0.00    +0.177 C 
ATOM     13  C   UNL     1       9.112  -1.075  22.098  0.00  0.00    +0.184 C 
ATOM     14  C   UNL     1       7.730  -0.858  22.742  0.00  0.00    +0.253 C 
ATOM     15  F   UNL     1       7.142  -2.105  22.776  0.00  0.00    -0.237 F 
ATOM     16  C   UNL     1       7.714  -0.305  24.210  0.00  0.00    +0.298 C 
ATOM     17  O   UNL     1       8.894  -0.390  24.997  0.00  0.00    -0.340 OA
BRANCH  12  18
ATOM     18  O   UNL     1       9.954  -2.767  23.606  0.00  0.00    -0.386 OA
ATOM     19  H   UNL     1       9.124  -3.095  23.214  0.00  0.00    +0.210 HD
ENDBRANCH  12  18
BRANCH  13  20
ATOM     20  O   UNL     1       9.560  -0.012  21.251  0.00  0.00    -0.386 OA
ATOM     21  H   UNL     1      10.191  -0.399  20.610  0.00  0.00    +0.210 HD
ENDBRANCH  13  20
BRANCH  11  22
ATOM     22  C   UNL     1      10.895   0.846  24.120  0.00  0.00    +0.190 C 
BRANCH  22  23
ATOM     23  O   UNL     1      10.023   1.934  24.446  0.00  0.00    -0.392 OA
ATOM     24  H   UNL     1       9.299   1.571  24.993  0.00  0.00    +0.210 HD
ENDBRANCH  22  23
ENDBRANCH  11  22
ENDBRANCH  10  16
ENDBRANCH   6  10
ENDBRANCH   5   6
ENDBRANCH   1   5
BRANCH   1  25
ATOM     25  O   UNL     1       4.473  -2.216  27.794  0.00  0.00    -0.284 OA
BRANCH  25  26
ATOM     26  C   UNL     1       5.261  -3.379  27.534  0.00  0.00    +0.206 C 
BRANCH  26  27
ATOM     27  C   UNL     1       6.383  -3.006  26.558  0.00  0.00    +0.178 C 
ATOM     28  C   UNL     1       7.717  -3.678  26.883  0.00  0.00    +0.178 C 
ATOM     29  C   UNL     1       7.696  -4.983  26.073  0.00  0.00    +0.195 C 
ATOM     30  C   UNL     1       6.379  -4.904  25.270  0.00  0.00    +0.255 C 
ATOM     31  O   UNL     1       6.063  -3.501  25.241  0.00  0.00    -0.346 OA
BRANCH  30  32
ATOM     32  N   UNL     1       6.343  -5.462  23.924  0.00  0.00    -0.271 N 
ATOM     33  C   UNL     1       5.108  -5.821  23.409  0.00  0.00    +0.331 A 
ATOM     34  O   UNL     1       4.062  -5.844  24.060  0.00  0.00    -0.246 OA
ATOM     35  N   UNL     1       5.082  -6.145  22.076  0.00  0.00    -0.275 N 
ATOM     36  H   UNL     1       4.188  -6.374  21.685  0.00  0.00    +0.173 HD
ATOM     37  C   UNL     1       6.087  -5.887  21.182  0.00  0.00    +0.254 A 
ATOM     38  O   UNL     1       5.937  -5.992  19.970  0.00  0.00    -0.268 OA
ATOM     39  C   UNL     1       7.356  -5.446  21.763  0.00  0.00    +0.088 A 
ATOM     40  C   UNL     1       7.425  -5.261  23.083  0.00  0.00    +0.098 A 
ENDBRANCH  30  32
BRANCH  29  41
ATOM     41  O   UNL     1       7.689  -6.108  26.957  0.00  0.00    -0.385 OA
ATOM     42  H   UNL     1       8.276  -6.775  26.534  0.00  0.00    +0.210 HD
ENDBRANCH  29  41
BRANCH  28  43
ATOM     43  O   UNL     1       8.796  -2.848  26.422  0.00  0.00    -0.386 OA
ATOM     44  H   UNL     1       9.372  -3.391  25.854  0.00  0.00    +0.210 HD
ENDBRANCH  28  43
ENDBRANCH  26  27
ENDBRANCH  25  26
ENDBRANCH   1  25
TORSDOF 16
ENDMDL
MODEL 4
REMARK VINA RESULT:      -7.0      3.820      8.442
REMARK  Name = 
REMARK  16 active torsions:
REMARK  status: ('A' for Active; 'I' for Inactive)
REMARK    1  A    between atoms: O_1  and  C_2
REMARK    2  A    between atoms: C_2  and  C_3
REMARK    3  A    between atoms: C_6  and  O_8
REMARK    4  A    between atoms: O_8  and  P_9
REMARK    5  A    between atoms: P_9  and  O_10
REMARK    6  A    between atoms: P_9  and  O_12
REMARK    7  A    between atoms: O_12  and  P_13
REMARK    8  A    between atoms: P_13  and  O_14
REMARK    9  A    between atoms: P_13  and  O_16
REMARK   10  A    between atoms: O_16  and  C_17
REMARK   11  A    between atoms: C_17  and  C_18
REMARK   12  A    between atoms: C_21  and  N_29
REMARK   13  A    between atoms: C_23  and  O_25
REMARK   14  A    between atoms: C_26  and  O_28
REMARK   15  A    between atoms: C_40  and  O_42
REMARK   16  A    between atoms: C_43  and  O_45
REMARK                            x       y       z     vdW  Elec       q    Type
REMARK                         _______ _______ _______ _____ _____    ______ ____
ROOT
ATOM      1  P   UNL     1       7.833  -4.830  24.959  0.00  0.00    +0.483 P 
ATOM      2  O   UNL     1       9.042  -5.738  24.707  0.00  0.00    -0.227 OA
ENDROOT
BRANCH   1   3
ATOM      3  O   UNL     1       6.642  -5.588  24.134  0.00  0.00    -0.302 OA
ATOM      4  H   UNL     1       5.848  -5.515  24.700  0.00  0.00    +0.222 HD
ENDBRANCH   1   3
BRANCH   1   5
ATOM      5  O   UNL     1       8.229  -3.935  23.533  0.00  0.00    -0.186 OA
BRANCH   5   6
ATOM      6  P   UNL     1       6.785  -3.608  22.637  0.00  0.00    +0.486 P 
ATOM      7  O   UNL     1       7.156  -4.563  21.506  0.00  0.00    -0.227 OA
BRANCH   6   8
ATOM      8  O   UNL     1       5.341  -3.280  21.741  0.00  0.00    -0.302 OA
ATOM      9  H   UNL     1       5.623  -3.734  20.901  0.00  0.00    +0.222 HD
ENDBRANCH   6   8
BRANCH   6  10
ATOM     10  O   UNL     1       7.186  -2.077  22.182  0.00  0.00    -0.253 OA
BRANCH  10  16
ATOM     11  C   UNL     1       8.308   0.581  24.047  0.00  0.00    +0.178 C 
ATOM     12  C   UNL     1       9.635   1.023  23.416  0.00  0.00    +0.177 C 
ATOM     13  C   UNL     1       9.803   0.545  21.974  0.00  0.00    +0.184 C 
ATOM     14  C   UNL     1       9.475  -0.951  21.813  0.00  0.00    +0.253 C 
ATOM     15  F   UNL     1      10.657  -1.615  22.069  0.00  0.00    -0.237 F 
ATOM     16  C   UNL     1       8.397  -1.546  22.784  0.00  0.00    +0.298 C 
ATOM     17  O   UNL     1       8.063  -0.838  23.970  0.00  0.00    -0.340 OA
BRANCH  12  18
ATOM     18  O   UNL     1      10.690   0.482  24.222  0.00  0.00    -0.386 OA
ATOM     19  H   UNL     1      10.856  -0.435  23.935  0.00  0.00    +0.210 HD
ENDBRANCH  12  18
BRANCH  13  20
ATOM     20  O   UNL     1       9.120   1.417  21.068  0.00  0.00    -0.386 OA
ATOM     21  H   UNL     1       9.661   1.469  20.254  0.00  0.00    +0.210 HD
ENDBRANCH  13  20
BRANCH  11  22
ATOM     22  C   UNL     1       7.096   1.456  23.648  0.00  0.00    +0.190 C 
BRANCH  22  23
ATOM     23  O   UNL     1       6.408   0.874  22.535  0.00  0.00    -0.392 OA
ATOM     24  H   UNL     1       7.055   0.790  21.807  0.00  0.00    +0.210 HD
ENDBRANCH  22  23
ENDBRANCH  11  22
ENDBRANCH  10  16
ENDBRANCH   6  10
ENDBRANCH   5   6
ENDBRANCH   1   5
BRANCH   1  25
ATOM     25  O   UNL     1       7.436  -5.726  26.386  0.00  0.00    -0.284 OA
BRANCH  25  26
ATOM     26  C   UNL     1       6.206  -5.358  27.011  0.00  0.00    +0.206 C 
BRANCH  26  27
ATOM     27  C   UNL     1       5.401  -6.630  27.303  0.00  0.00    +0.178 C 
ATOM     28  C   UNL     1       4.250  -6.408  28.283  0.00  0.00    +0.178 C 
ATOM     29  C   UNL     1       3.046  -6.070  27.390  0.00  0.00    +0.195 C 
ATOM     30  C   UNL     1       3.591  -6.222  25.954  0.00  0.00    +0.255 C 
ATOM     31  O   UNL     1       4.743  -7.072  26.097  0.00  0.00    -0.346 OA
BRANCH  30  32
ATOM     32  N   UNL     1       2.705  -6.736  24.917  0.00  0.00    -0.271 N 
ATOM     33  C   UNL     1       2.955  -6.353  23.609  0.00  0.00    +0.331 A 
ATOM     34  O   UNL     1       3.775  -5.494  23.279  0.00  0.00    -0.246 OA
ATOM     35  N   UNL     1       2.239  -7.012  22.641  0.00  0.00    -0.275 N 
ATOM     36  H   UNL     1       2.437  -6.767  21.690  0.00  0.00    +0.173 HD
ATOM     37  C   UNL     1       1.525  -8.165  22.836  0.00  0.00    +0.254 A 
ATOM     38  O   UNL     1       1.087  -8.835  21.908  0.00  0.00    -0.268 OA
ATOM     39  C   UNL     1       1.341  -8.569  24.230  0.00  0.00    +0.088 A 
ATOM     40  C   UNL     1       1.925  -7.847  25.189  0.00  0.00    +0.098 A 
ENDBRANCH  30  32
BRANCH  29  41
ATOM     41  O   UNL     1       2.615  -4.728  27.635  0.00  0.00    -0.385 OA
ATOM     42  H   UNL     1       1.988  -4.790  28.390  0.00  0.00    +0.210 HD
ENDBRANCH  29  41
BRANCH  28  43
ATOM     43  O   UNL     1       3.988  -7.627  28.997  0.00  0.00    -0.386 OA
ATOM     44  H   UNL     1       3.077  -7.907  28.791  0.00  0.00    +0.210 HD
ENDBRANCH  28  43
ENDBRANCH  26  27
ENDBRANCH  25  26
ENDBRANCH   1  25
TORSDOF 16
ENDMDL
MODEL 5
REMARK VINA RESULT:      -6.9      2.785      4.620
REMARK  Name = 
REMARK  16 active torsions:
REMARK  status: ('A' for Active; 'I' for Inactive)
REMARK    1  A    between atoms: O_1  and  C_2
REMARK    2  A    between atoms: C_2  and  C_3
REMARK    3  A    between atoms: C_6  and  O_8
REMARK    4  A    between atoms: O_8  and  P_9
REMARK    5  A    between atoms: P_9  and  O_10
REMARK    6  A    between atoms: P_9  and  O_12
REMARK    7  A    between atoms: O_12  and  P_13
REMARK    8  A    between atoms: P_13  and  O_14
REMARK    9  A    between atoms: P_13  and  O_16
REMARK   10  A    between atoms: O_16  and  C_17
REMARK   11  A    between atoms: C_17  and  C_18
REMARK   12  A    between atoms: C_21  and  N_29
REMARK   13  A    between atoms: C_23  and  O_25
REMARK   14  A    between atoms: C_26  and  O_28
REMARK   15  A    between atoms: C_40  and  O_42
REMARK   16  A    between atoms: C_43  and  O_45
REMARK                            x       y       z     vdW  Elec       q    Type
REMARK                         _______ _______ _______ _____ _____    ______ ____
ROOT
ATOM      1  P   UNL     1       7.281  -5.128  26.639  0.00  0.00    +0.483 P 
ATOM      2  O   UNL     1       8.634  -4.501  26.995  0.00  0.00    -0.227 OA
ENDROOT
BRANCH   1   3
ATOM      3  O   UNL     1       6.307  -3.820  26.513  0.00  0.00    -0.302 OA
ATOM      4  H   UNL     1       6.791  -3.094  26.953  0.00  0.00    +0.222 HD
ENDBRANCH   1   3
BRANCH   1   5
ATOM      5  O   UNL     1       6.903  -5.226  28.325  0.00  0.00    -0.186 OA
BRANCH   5   6
ATOM      6  P   UNL     1       5.666  -6.411  28.570  0.00  0.00    +0.486 P 
ATOM      7  O   UNL     1       6.620  -7.414  29.213  0.00  0.00    -0.227 OA
BRANCH   6   8
ATOM      8  O   UNL     1       4.428  -7.596  28.813  0.00  0.00    -0.302 OA
ATOM      9  H   UNL     1       3.987  -7.484  27.928  0.00  0.00    +0.222 HD
ENDBRANCH   6   8
BRANCH   6  10
ATOM     10  O   UNL     1       5.473  -6.815  26.985  0.00  0.00    -0.253 OA
BRANCH  10  16
ATOM     11  C   UNL     1       3.682  -6.776  24.054  0.00  0.00    +0.178 C 
ATOM     12  C   UNL     1       2.581  -5.721  24.233  0.00  0.00    +0.177 C 
ATOM     13  C   UNL     1       2.884  -4.721  25.348  0.00  0.00    +0.184 C 
ATOM     14  C   UNL     1       3.336  -5.414  26.648  0.00  0.00    +0.253 C 
ATOM     15  F   UNL     1       2.176  -5.688  27.340  0.00  0.00    -0.237 F 
ATOM     16  C   UNL     1       4.108  -6.771  26.493  0.00  0.00    +0.298 C 
ATOM     17  O   UNL     1       4.026  -7.480  25.264  0.00  0.00    -0.340 OA
BRANCH  12  18
ATOM     18  O   UNL     1       1.368  -6.422  24.540  0.00  0.00    -0.386 OA
ATOM     19  H   UNL     1       1.244  -7.126  23.876  0.00  0.00    +0.210 HD
ENDBRANCH  12  18
BRANCH  13  20
ATOM     20  O   UNL     1       3.752  -3.686  24.878  0.00  0.00    -0.386 OA
ATOM     21  H   UNL     1       4.667  -3.948  25.110  0.00  0.00    +0.210 HD
ENDBRANCH  13  20
BRANCH  11  22
ATOM     22  C   UNL     1       4.901  -6.282  23.240  0.00  0.00    +0.190 C 
BRANCH  22  23
ATOM     23  O   UNL     1       4.500  -5.276  22.304  0.00  0.00    -0.392 OA
ATOM     24  H   UNL     1       3.651  -4.909  22.620  0.00  0.00    +0.210 HD
ENDBRANCH  22  23
ENDBRANCH  11  22
ENDBRANCH  10  16
ENDBRANCH   6  10
ENDBRANCH   5   6
ENDBRANCH   1   5
BRANCH   1  25
ATOM     25  O   UNL     1       7.659  -5.028  24.953  0.00  0.00    -0.284 OA
BRANCH  25  26
ATOM     26  C   UNL     1       8.651  -4.059  24.610  0.00  0.00    +0.206 C 
BRANCH  26  27
ATOM     27  C   UNL     1       8.272  -3.420  23.268  0.00  0.00    +0.178 C 
ATOM     28  C   UNL     1       6.796  -3.032  23.177  0.00  0.00    +0.178 C 
ATOM     29  C   UNL     1       6.752  -1.578  23.674  0.00  0.00    +0.195 C 
ATOM     30  C   UNL     1       8.233  -1.222  23.921  0.00  0.00    +0.255 C 
ATOM     31  O   UNL     1       8.966  -2.164  23.119  0.00  0.00    -0.346 OA
BRANCH  30  32
ATOM     32  N   UNL     1       8.684   0.138  23.648  0.00  0.00    -0.271 N 
ATOM     33  C   UNL     1       8.648   1.050  24.691  0.00  0.00    +0.331 A 
ATOM     34  O   UNL     1       8.123   0.836  25.785  0.00  0.00    -0.246 OA
ATOM     35  N   UNL     1       9.267   2.252  24.461  0.00  0.00    -0.275 N 
ATOM     36  H   UNL     1       9.276   2.906  25.220  0.00  0.00    +0.173 HD
ATOM     37  C   UNL     1      10.125   2.512  23.425  0.00  0.00    +0.254 A 
ATOM     38  O   UNL     1      10.821   3.520  23.381  0.00  0.00    -0.268 OA
ATOM     39  C   UNL     1      10.181   1.492  22.377  0.00  0.00    +0.088 A 
ATOM     40  C   UNL     1       9.469   0.374  22.532  0.00  0.00    +0.098 A 
ENDBRANCH  30  32
BRANCH  29  41
ATOM     41  O   UNL     1       5.997  -1.498  24.887  0.00  0.00    -0.385 OA
ATOM     42  H   UNL     1       5.883  -2.429  25.185  0.00  0.00    +0.210 HD
ENDBRANCH  29  41
BRANCH  28  43
ATOM     43  O   UNL     1       6.373  -3.080  21.805  0.00  0.00    -0.386 OA
ATOM     44  H   UNL     1       5.656  -3.737  21.734  0.00  0.00    +0.210 HD
ENDBRANCH  28  43
ENDBRANCH  26  27
ENDBRANCH  25  26
ENDBRANCH   1  25
TORSDOF 16
ENDMDL
MODEL 6
REMARK VINA RESULT:      -6.9      1.347      2.197
REMARK  Name = 
REMARK  16 active torsions:
REMARK  status: ('A' for Active; 'I' for Inactive)
REMARK    1  A    between atoms: O_1  and  C_2
REMARK    2  A    between atoms: C_2  and  C_3
REMARK    3  A    between atoms: C_6  and  O_8
REMARK    4  A    between atoms: O_8  and  P_9
REMARK    5  A    between atoms: P_9  and  O_10
REMARK    6  A    between atoms: P_9  and  O_12
REMARK    7  A    between atoms: O_12  and  P_13
REMARK    8  A    between atoms: P_13  and  O_14
REMARK    9  A    between atoms: P_13  and  O_16
REMARK   10  A    between atoms: O_16  and  C_17
REMARK   11  A    between atoms: C_17  and  C_18
REMARK   12  A    between atoms: C_21  and  N_29
REMARK   13  A    between atoms: C_23  and  O_25
REMARK   14  A    between atoms: C_26  and  O_28
REMARK   15  A    between atoms: C_40  and  O_42
REMARK   16  A    between atoms: C_43  and  O_45
REMARK                            x       y       z     vdW  Elec       q    Type
REMARK                         _______ _______ _______ _____ _____    ______ ____
ROOT
ATOM      1  P   UNL     1       9.858  -1.931  23.469  0.00  0.00    +0.483 P 
ATOM      2  O   UNL     1       8.479  -1.379  23.846  0.00  0.00    -0.227 OA
ENDROOT
BRANCH   1   3
ATOM      3  O   UNL     1       9.853  -1.815  21.838  0.00  0.00    -0.302 OA
ATOM      4  H   UNL     1      10.494  -1.106  21.628  0.00  0.00    +0.222 HD
ENDBRANCH   1   3
BRANCH   1   5
ATOM      5  O   UNL     1       9.172  -3.514  23.342  0.00  0.00    -0.186 OA
BRANCH   5   6
ATOM      6  P   UNL     1       9.012  -4.202  24.922  0.00  0.00    +0.486 P 
ATOM      7  O   UNL     1      10.381  -4.874  24.873  0.00  0.00    -0.227 OA
BRANCH   6   8
ATOM      8  O   UNL     1       8.850  -4.890  26.501  0.00  0.00    -0.302 OA
ATOM      9  H   UNL     1       9.532  -5.606  26.384  0.00  0.00    +0.222 HD
ENDBRANCH   6   8
BRANCH   6  10
ATOM     10  O   UNL     1       7.867  -5.318  24.527  0.00  0.00    -0.253 OA
BRANCH  10  16
ATOM     11  C   UNL     1       4.765  -5.081  25.984  0.00  0.00    +0.178 C 
ATOM     12  C   UNL     1       3.744  -5.393  24.881  0.00  0.00    +0.177 C 
ATOM     13  C   UNL     1       4.348  -6.155  23.702  0.00  0.00    +0.184 C 
ATOM     14  C   UNL     1       5.662  -5.521  23.208  0.00  0.00    +0.253 C 
ATOM     15  F   UNL     1       5.285  -4.574  22.279  0.00  0.00    -0.237 F 
ATOM     16  C   UNL     1       6.538  -4.786  24.281  0.00  0.00    +0.298 C 
ATOM     17  O   UNL     1       5.948  -4.402  25.516  0.00  0.00    -0.340 OA
BRANCH  12  18
ATOM     18  O   UNL     1       3.220  -4.140  24.420  0.00  0.00    -0.386 OA
ATOM     19  H   UNL     1       2.681  -3.752  25.134  0.00  0.00    +0.210 HD
ENDBRANCH  12  18
BRANCH  13  20
ATOM     20  O   UNL     1       4.419  -7.556  23.986  0.00  0.00    -0.386 OA
ATOM     21  H   UNL     1       5.365  -7.779  24.104  0.00  0.00    +0.210 HD
ENDBRANCH  13  20
BRANCH  11  22
ATOM     22  C   UNL     1       5.049  -6.268  26.934  0.00  0.00    +0.190 C 
BRANCH  22  23
ATOM     23  O   UNL     1       6.454  -6.375  27.189  0.00  0.00    -0.392 OA
ATOM     24  H   UNL     1       6.854  -5.511  26.974  0.00  0.00    +0.210 HD
ENDBRANCH  22  23
ENDBRANCH  11  22
ENDBRANCH  10  16
ENDBRANCH   6  10
ENDBRANCH   5   6
ENDBRANCH   1   5
BRANCH   1  25
ATOM     25  O   UNL     1      10.545  -0.348  23.596  0.00  0.00    -0.284 OA
BRANCH  25  26
ATOM     26  C   UNL     1      10.089   0.424  24.709  0.00  0.00    +0.206 C 
BRANCH  26  27
ATOM     27  C   UNL     1      10.018   1.897  24.291  0.00  0.00    +0.178 C 
ATOM     28  C   UNL     1      10.379   2.130  22.824  0.00  0.00    +0.178 C 
ATOM     29  C   UNL     1       9.037   2.044  22.081  0.00  0.00    +0.195 C 
ATOM     30  C   UNL     1       7.997   1.861  23.207  0.00  0.00    +0.255 C 
ATOM     31  O   UNL     1       8.654   2.360  24.385  0.00  0.00    -0.346 OA
BRANCH  30  32
ATOM     32  N   UNL     1       6.684   2.477  23.057  0.00  0.00    -0.271 N 
ATOM     33  C   UNL     1       5.625   1.913  23.749  0.00  0.00    +0.331 A 
ATOM     34  O   UNL     1       5.682   0.843  24.358  0.00  0.00    -0.246 OA
ATOM     35  N   UNL     1       4.456   2.631  23.753  0.00  0.00    -0.275 N 
ATOM     36  H   UNL     1       3.694   2.248  24.278  0.00  0.00    +0.173 HD
ATOM     37  C   UNL     1       4.335   3.942  23.375  0.00  0.00    +0.254 A 
ATOM     38  O   UNL     1       3.329   4.604  23.600  0.00  0.00    -0.268 OA
ATOM     39  C   UNL     1       5.502   4.520  22.705  0.00  0.00    +0.088 A 
ATOM     40  C   UNL     1       6.601   3.773  22.576  0.00  0.00    +0.098 A 
ENDBRANCH  30  32
BRANCH  29  41
ATOM     41  O   UNL     1       9.038   0.918  21.198  0.00  0.00    -0.385 OA
ATOM     42  H   UNL     1       9.621   0.251  21.626  0.00  0.00    +0.210 HD
ENDBRANCH  29  41
BRANCH  28  43
ATOM     43  O   UNL     1      10.926   3.450  22.670  0.00  0.00    -0.386 OA
ATOM     44  H   UNL     1      11.721   3.514  23.231  0.00  0.00    +0.210 HD
ENDBRANCH  28  43
ENDBRANCH  26  27
ENDBRANCH  25  26
ENDBRANCH   1  25
TORSDOF 16
ENDMDL
MODEL 7
REMARK VINA RESULT:      -6.8      3.356      8.011
REMARK  Name = 
REMARK  16 active torsions:
REMARK  status: ('A' for Active; 'I' for Inactive)
REMARK    1  A    between atoms: O_1  and  C_2
REMARK    2  A    between atoms: C_2  and  C_3
REMARK    3  A    between atoms: C_6  and  O_8
REMARK    4  A    between atoms: O_8  and  P_9
REMARK    5  A    between atoms: P_9  and  O_10
REMARK    6  A    between atoms: P_9  and  O_12
REMARK    7  A    between atoms: O_12  and  P_13
REMARK    8  A    between atoms: P_13  and  O_14
REMARK    9  A    between atoms: P_13  and  O_16
REMARK   10  A    between atoms: O_16  and  C_17
REMARK   11  A    between atoms: C_17  and  C_18
REMARK   12  A    between atoms: C_21  and  N_29
REMARK   13  A    between atoms: C_23  and  O_25
REMARK   14  A    between atoms: C_26  and  O_28
REMARK   15  A    between atoms: C_40  and  O_42
REMARK   16  A    between atoms: C_43  and  O_45
REMARK                            x       y       z     vdW  Elec       q    Type
REMARK                         _______ _______ _______ _____ _____    ______ ____
ROOT
ATOM      1  P   UNL     1       7.984  -0.938  23.173  0.00  0.00    +0.483 P 
ATOM      2  O   UNL     1       7.107  -1.238  24.395  0.00  0.00    -0.227 OA
ENDROOT
BRANCH   1   3
ATOM      3  O   UNL     1       9.360  -1.753  23.515  0.00  0.00    -0.302 OA
ATOM      4  H   UNL     1       9.775  -1.261  24.251  0.00  0.00    +0.222 HD
ENDBRANCH   1   3
BRANCH   1   5
ATOM      5  O   UNL     1       8.620   0.447  23.992  0.00  0.00    -0.186 OA
BRANCH   5   6
ATOM      6  P   UNL     1       9.478   1.440  22.864  0.00  0.00    +0.486 P 
ATOM      7  O   UNL     1      10.812   0.744  23.119  0.00  0.00    -0.227 OA
BRANCH   6   8
ATOM      8  O   UNL     1      10.335   2.434  21.736  0.00  0.00    -0.302 OA
ATOM      9  H   UNL     1      10.727   3.056  22.407  0.00  0.00    +0.222 HD
ENDBRANCH   6   8
BRANCH   6  10
ATOM     10  O   UNL     1       9.430   2.824  23.755  0.00  0.00    -0.253 OA
BRANCH  10  16
ATOM     11  C   UNL     1       6.727   3.936  25.559  0.00  0.00    +0.178 C 
ATOM     12  C   UNL     1       5.497   3.742  24.661  0.00  0.00    +0.177 C 
ATOM     13  C   UNL     1       5.727   2.730  23.539  0.00  0.00    +0.184 C 
ATOM     14  C   UNL     1       7.047   2.982  22.786  0.00  0.00    +0.253 C 
ATOM     15  F   UNL     1       6.732   3.876  21.784  0.00  0.00    -0.237 F 
ATOM     16  C   UNL     1       8.221   3.615  23.611  0.00  0.00    +0.298 C 
ATOM     17  O   UNL     1       7.934   4.266  24.842  0.00  0.00    -0.340 OA
BRANCH  12  18
ATOM     18  O   UNL     1       5.181   5.020  24.091  0.00  0.00    -0.386 OA
ATOM     19  H   UNL     1       4.536   5.464  24.672  0.00  0.00    +0.210 HD
ENDBRANCH  12  18
BRANCH  13  20
ATOM     20  O   UNL     1       5.548   1.394  24.018  0.00  0.00    -0.386 OA
ATOM     21  H   UNL     1       6.279   0.855  23.653  0.00  0.00    +0.210 HD
ENDBRANCH  13  20
BRANCH  11  22
ATOM     22  C   UNL     1       6.906   2.835  26.630  0.00  0.00    +0.190 C 
BRANCH  22  23
ATOM     23  O   UNL     1       7.864   1.865  26.191  0.00  0.00    -0.392 OA
ATOM     24  H   UNL     1       8.357   2.262  25.446  0.00  0.00    +0.210 HD
ENDBRANCH  22  23
ENDBRANCH  11  22
ENDBRANCH  10  16
ENDBRANCH   6  10
ENDBRANCH   5   6
ENDBRANCH   1   5
BRANCH   1  25
ATOM     25  O   UNL     1       7.347  -2.323  22.355  0.00  0.00    -0.284 OA
BRANCH  25  26
ATOM     26  C   UNL     1       6.059  -2.753  22.799  0.00  0.00    +0.206 C 
BRANCH  26  27
ATOM     27  C   UNL     1       5.964  -4.274  22.638  0.00  0.00    +0.178 C 
ATOM     28  C   UNL     1       7.317  -4.946  22.405  0.00  0.00    +0.178 C 
ATOM     29  C   UNL     1       7.811  -5.309  23.814  0.00  0.00    +0.195 C 
ATOM     30  C   UNL     1       6.645  -4.897  24.738  0.00  0.00    +0.255 C 
ATOM     31  O   UNL     1       5.498  -4.862  23.871  0.00  0.00    -0.346 OA
BRANCH  30  32
ATOM     32  N   UNL     1       6.366  -5.704  25.920  0.00  0.00    -0.271 N 
ATOM     33  C   UNL     1       7.130  -5.474  27.052  0.00  0.00    +0.331 A 
ATOM     34  O   UNL     1       8.124  -4.746  27.085  0.00  0.00    -0.246 OA
ATOM     35  N   UNL     1       6.709  -6.096  28.200  0.00  0.00    -0.275 N 
ATOM     36  H   UNL     1       7.235  -5.910  29.032  0.00  0.00    +0.173 HD
ATOM     37  C   UNL     1       5.484  -6.684  28.374  0.00  0.00    +0.254 A 
ATOM     38  O   UNL     1       5.068  -7.031  29.474  0.00  0.00    -0.268 OA
ATOM     39  C   UNL     1       4.681  -6.849  27.162  0.00  0.00    +0.088 A 
ATOM     40  C   UNL     1       5.151  -6.363  26.011  0.00  0.00    +0.098 A 
ENDBRANCH  30  32
BRANCH  29  41
ATOM     41  O   UNL     1       8.996  -4.570  24.124  0.00  0.00    -0.385 OA
ATOM     42  H   UNL     1       8.726  -3.924  24.816  0.00  0.00    +0.210 HD
ENDBRANCH  29  41
BRANCH  28  43
ATOM     43  O   UNL     1       7.129  -6.148  21.641  0.00  0.00    -0.386 OA
ATOM     44  H   UNL     1       6.213  -6.451  21.776  0.00  0.00    +0.210 HD
ENDBRANCH  28  43
ENDBRANCH  26  27
ENDBRANCH  25  26
ENDBRANCH   1  25
TORSDOF 16
ENDMDL
MODEL 8
REMARK VINA RESULT:      -6.8      3.318      7.624
REMARK  Name = 
REMARK  16 active torsions:
REMARK  status: ('A' for Active; 'I' for Inactive)
REMARK    1  A    between atoms: O_1  and  C_2
REMARK    2  A    between atoms: C_2  and  C_3
REMARK    3  A    between atoms: C_6  and  O_8
REMARK    4  A    between atoms: O_8  and  P_9
REMARK    5  A    between atoms: P_9  and  O_10
REMARK    6  A    between atoms: P_9  and  O_12
REMARK    7  A    between atoms: O_12  and  P_13
REMARK    8  A    between atoms: P_13  and  O_14
REMARK    9  A    between atoms: P_13  and  O_16
REMARK   10  A    between atoms: O_16  and  C_17
REMARK   11  A    between atoms: C_17  and  C_18
REMARK   12  A    between atoms: C_21  and  N_29
REMARK   13  A    between atoms: C_23  and  O_25
REMARK   14  A    between atoms: C_26  and  O_28
REMARK   15  A    between atoms: C_40  and  O_42
REMARK   16  A    between atoms: C_43  and  O_45
REMARK                            x       y       z     vdW  Elec       q    Type
REMARK                         _______ _______ _______ _____ _____    ______ ____
ROOT
ATOM      1  P   UNL     1       8.615  -1.457  23.082  0.00  0.00    +0.483 P 
ATOM      2  O   UNL     1       9.713  -2.283  22.400  0.00  0.00    -0.227 OA
ENDROOT
BRANCH   1   3
ATOM      3  O   UNL     1       8.506  -0.144  22.114  0.00  0.00    -0.302 OA
ATOM      4  H   UNL     1       7.580   0.160  22.194  0.00  0.00    +0.222 HD
ENDBRANCH   1   3
BRANCH   1   5
ATOM      5  O   UNL     1       9.825  -0.649  24.016  0.00  0.00    -0.186 OA
BRANCH   5   6
ATOM      6  P   UNL     1       9.181  -0.249  25.572  0.00  0.00    +0.486 P 
ATOM      7  O   UNL     1       8.761  -1.686  25.873  0.00  0.00    -0.227 OA
BRANCH   6   8
ATOM      8  O   UNL     1       8.537   0.151  27.127  0.00  0.00    -0.302 OA
ATOM      9  H   UNL     1       9.006   1.023  27.224  0.00  0.00    +0.222 HD
ENDBRANCH   6   8
BRANCH   6  10
ATOM     10  O   UNL     1       7.866   0.577  25.026  0.00  0.00    -0.253 OA
BRANCH  10  16
ATOM     11  C   UNL     1       6.297   3.384  23.818  0.00  0.00    +0.178 C 
ATOM     12  C   UNL     1       7.388   4.244  23.165  0.00  0.00    +0.177 C 
ATOM     13  C   UNL     1       8.645   3.450  22.810  0.00  0.00    +0.184 C 
ATOM     14  C   UNL     1       9.126   2.565  23.976  0.00  0.00    +0.253 C 
ATOM     15  F   UNL     1       9.961   3.368  24.724  0.00  0.00    -0.237 F 
ATOM     16  C   UNL     1       8.024   2.019  24.949  0.00  0.00    +0.298 C 
ATOM     17  O   UNL     1       6.744   2.636  24.966  0.00  0.00    -0.340 OA
BRANCH  12  18
ATOM     18  O   UNL     1       7.728   5.279  24.097  0.00  0.00    -0.386 OA
ATOM     19  H   UNL     1       7.023   5.329  24.770  0.00  0.00    +0.210 HD
ENDBRANCH  12  18
BRANCH  13  20
ATOM     20  O   UNL     1       8.479   2.771  21.562  0.00  0.00    -0.386 OA
ATOM     21  H   UNL     1       8.992   3.267  20.892  0.00  0.00    +0.210 HD
ENDBRANCH  13  20
BRANCH  11  22
ATOM     22  C   UNL     1       5.457   2.561  22.813  0.00  0.00    +0.190 C 
BRANCH  22  23
ATOM     23  O   UNL     1       6.036   1.265  22.625  0.00  0.00    -0.392 OA
ATOM     24  H   UNL     1       6.985   1.397  22.437  0.00  0.00    +0.210 HD
ENDBRANCH  22  23
ENDBRANCH  11  22
ENDBRANCH  10  16
ENDBRANCH   6  10
ENDBRANCH   5   6
ENDBRANCH   1   5
BRANCH   1  25
ATOM     25  O   UNL     1       7.404  -2.266  22.146  0.00  0.00    -0.284 OA
BRANCH  25  26
ATOM     26  C   UNL     1       6.240  -2.664  22.873  0.00  0.00    +0.206 C 
BRANCH  26  27
ATOM     27  C   UNL     1       6.023  -4.168  22.672  0.00  0.00    +0.178 C 
ATOM     28  C   UNL     1       7.316  -4.936  22.399  0.00  0.00    +0.178 C 
ATOM     29  C   UNL     1       7.801  -5.377  23.788  0.00  0.00    +0.195 C 
ATOM     30  C   UNL     1       6.685  -4.901  24.742  0.00  0.00    +0.255 C 
ATOM     31  O   UNL     1       5.531  -4.752  23.897  0.00  0.00    -0.346 OA
BRANCH  30  32
ATOM     32  N   UNL     1       6.361  -5.717  25.907  0.00  0.00    -0.271 N 
ATOM     33  C   UNL     1       7.098  -5.513  27.062  0.00  0.00    +0.331 A 
ATOM     34  O   UNL     1       8.103  -4.802  27.130  0.00  0.00    -0.246 OA
ATOM     35  N   UNL     1       6.636  -6.141  28.191  0.00  0.00    -0.275 N 
ATOM     36  H   UNL     1       7.143  -5.973  29.038  0.00  0.00    +0.173 HD
ATOM     37  C   UNL     1       5.397  -6.710  28.325  0.00  0.00    +0.254 A 
ATOM     38  O   UNL     1       4.947  -7.062  29.409  0.00  0.00    -0.268 OA
ATOM     39  C   UNL     1       4.624  -6.847  27.090  0.00  0.00    +0.088 A 
ATOM     40  C   UNL     1       5.133  -6.356  25.958  0.00  0.00    +0.098 A 
ENDBRANCH  30  32
BRANCH  29  41
ATOM     41  O   UNL     1       9.044  -4.741  24.098  0.00  0.00    -0.385 OA
ATOM     42  H   UNL     1       9.136  -4.015  23.440  0.00  0.00    +0.210 HD
ENDBRANCH  29  41
BRANCH  28  43
ATOM     43  O   UNL     1       7.023  -6.098  21.605  0.00  0.00    -0.386 OA
ATOM     44  H   UNL     1       7.027  -6.874  22.194  0.00  0.00    +0.210 HD
ENDBRANCH  28  43
ENDBRANCH  26  27
ENDBRANCH  25  26
ENDBRANCH   1  25
TORSDOF 16
ENDMDL
MODEL 9
REMARK VINA RESULT:      -6.8      2.450      4.775
REMARK  Name = 
REMARK  16 active torsions:
REMARK  status: ('A' for Active; 'I' for Inactive)
REMARK    1  A    between atoms: O_1  and  C_2
REMARK    2  A    between atoms: C_2  and  C_3
REMARK    3  A    between atoms: C_6  and  O_8
REMARK    4  A    between atoms: O_8  and  P_9
REMARK    5  A    between atoms: P_9  and  O_10
REMARK    6  A    between atoms: P_9  and  O_12
REMARK    7  A    between atoms: O_12  and  P_13
REMARK    8  A    between atoms: P_13  and  O_14
REMARK    9  A    between atoms: P_13  and  O_16
REMARK   10  A    between atoms: O_16  and  C_17
REMARK   11  A    between atoms: C_17  and  C_18
REMARK   12  A    between atoms: C_21  and  N_29
REMARK   13  A    between atoms: C_23  and  O_25
REMARK   14  A    between atoms: C_26  and  O_28
REMARK   15  A    between atoms: C_40  and  O_42
REMARK   16  A    between atoms: C_43  and  O_45
REMARK                            x       y       z     vdW  Elec       q    Type
REMARK                         _______ _______ _______ _____ _____    ______ ____
ROOT
ATOM      1  P   UNL     1       5.034   1.694  25.515  0.00  0.00    +0.483 P 
ATOM      2  O   UNL     1       3.527   1.477  25.700  0.00  0.00    -0.227 OA
ENDROOT
BRANCH   1   3
ATOM      3  O   UNL     1       5.368   0.769  24.209  0.00  0.00    -0.302 OA
ATOM      4  H   UNL     1       4.643   0.944  23.576  0.00  0.00    +0.222 HD
ENDBRANCH   1   3
BRANCH   1   5
ATOM      5  O   UNL     1       5.339   0.333  26.538  0.00  0.00    -0.186 OA
BRANCH   5   6
ATOM      6  P   UNL     1       7.044   0.171  26.788  0.00  0.00    +0.486 P 
ATOM      7  O   UNL     1       7.310   1.663  26.601  0.00  0.00    -0.227 OA
BRANCH   6   8
ATOM      8  O   UNL     1       8.748   0.009  27.038  0.00  0.00    -0.302 OA
ATOM      9  H   UNL     1       8.691  -0.498  27.893  0.00  0.00    +0.222 HD
ENDBRANCH   6   8
BRANCH   6  10
ATOM     10  O   UNL     1       7.371  -0.601  25.371  0.00  0.00    -0.253 OA
BRANCH  10  16
ATOM     11  C   UNL     1       7.789  -3.437  23.479  0.00  0.00    +0.178 C 
ATOM     12  C   UNL     1       7.131  -4.582  24.263  0.00  0.00    +0.177 C 
ATOM     13  C   UNL     1       6.123  -4.095  25.303  0.00  0.00    +0.184 C 
ATOM     14  C   UNL     1       6.685  -2.953  26.171  0.00  0.00    +0.253 C 
ATOM     15  F   UNL     1       7.326  -3.574  27.223  0.00  0.00    -0.237 F 
ATOM     16  C   UNL     1       7.733  -2.002  25.495  0.00  0.00    +0.298 C 
ATOM     17  O   UNL     1       8.393  -2.426  24.310  0.00  0.00    -0.340 OA
BRANCH  12  18
ATOM     18  O   UNL     1       8.180  -5.305  24.920  0.00  0.00    -0.386 OA
ATOM     19  H   UNL     1       8.949  -4.712  25.015  0.00  0.00    +0.210 HD
ENDBRANCH  12  18
BRANCH  13  20
ATOM     20  O   UNL     1       4.856  -3.827  24.695  0.00  0.00    -0.386 OA
ATOM     21  H   UNL     1       4.535  -2.977  25.058  0.00  0.00    +0.210 HD
ENDBRANCH  13  20
BRANCH  11  22
ATOM     22  C   UNL     1       6.918  -2.877  22.330  0.00  0.00    +0.190 C 
BRANCH  22  23
ATOM     23  O   UNL     1       6.164  -1.747  22.782  0.00  0.00    -0.392 OA
ATOM     24  H   UNL     1       6.372  -1.003  22.185  0.00  0.00    +0.210 HD
ENDBRANCH  22  23
ENDBRANCH  11  22
ENDBRANCH  10  16
ENDBRANCH   6  10
ENDBRANCH   5   6
ENDBRANCH   1   5
BRANCH   1  25
ATOM     25  O   UNL     1       4.727   3.056  24.491  0.00  0.00    -0.284 OA
BRANCH  25  26
ATOM     26  C   UNL     1       5.744   4.060  24.497  0.00  0.00    +0.206 C 
BRANCH  26  27
ATOM     27  C   UNL     1       6.325   4.181  23.083  0.00  0.00    +0.178 C 
ATOM     28  C   UNL     1       7.477   5.180  22.985  0.00  0.00    +0.178 C 
ATOM     29  C   UNL     1       8.737   4.336  23.233  0.00  0.00    +0.195 C 
ATOM     30  C   UNL     1       8.202   2.894  23.360  0.00  0.00    +0.255 C 
ATOM     31  O   UNL     1       6.926   2.927  22.699  0.00  0.00    -0.346 OA
BRANCH  30  32
ATOM     32  N   UNL     1       9.013   1.796  22.846  0.00  0.00    -0.271 N 
ATOM     33  C   UNL     1       9.852   1.144  23.735  0.00  0.00    +0.331 A 
ATOM     34  O   UNL     1      10.074   1.521  24.887  0.00  0.00    -0.246 OA
ATOM     35  N   UNL     1      10.440  -0.007  23.275  0.00  0.00    -0.275 N 
ATOM     36  H   UNL     1      11.022  -0.505  23.921  0.00  0.00    +0.173 HD
ATOM     37  C   UNL     1      10.065  -0.688  22.146  0.00  0.00    +0.254 A 
ATOM     38  O   UNL     1      10.466  -1.818  21.893  0.00  0.00    -0.268 OA
ATOM     39  C   UNL     1       9.127   0.011  21.267  0.00  0.00    +0.088 A 
ATOM     40  C   UNL     1       8.655   1.199  21.648  0.00  0.00    +0.098 A 
ENDBRANCH  30  32
BRANCH  29  41
ATOM     41  O   UNL     1       9.376   4.753  24.443  0.00  0.00    -0.385 OA
ATOM     42  H   UNL     1       8.766   4.481  25.167  0.00  0.00    +0.210 HD
ENDBRANCH  29  41
BRANCH  28  43
ATOM     43  O   UNL     1       7.524   5.728  21.657  0.00  0.00    -0.386 OA
ATOM     44  H   UNL     1       6.992   6.544  21.650  0.00  0.00    +0.210 HD
ENDBRANCH  28  43
ENDBRANCH  26  27
ENDBRANCH  25  26
ENDBRANCH   1  25
TORSDOF 16
ENDMDL
