MODEL 1
REMARK VINA RESULT:      -5.6      0.000      0.000
REMARK  Name = 
REMARK  4 active torsions:
REMARK  status: ('A' for Active; 'I' for Inactive)
REMARK    1  A    between atoms: O_1  and  C_2
REMARK    2  A    between atoms: C_2  and  C_4
REMARK    3  A    between atoms: C_4  and  N_5
REMARK    4  A    between atoms: N_8  and  C_9
REMARK                            x       y       z     vdW  Elec       q    Type
REMARK                         _______ _______ _______ _____ _____    ______ ____
ROOT
ATOM      1  N   UNL     1       8.348  -2.900  24.675  0.00  0.00    -0.289 N 
ATOM      2  H   UNL     1       7.561  -2.294  24.851  0.00  0.00    +0.151 HD
ATOM      3  C   UNL     1       9.452  -2.366  24.074  0.00  0.00    +0.300 C 
ATOM      4  N   UNL     1       9.355  -1.014  23.963  0.00  0.00    -0.297 N 
ATOM      5  H   UNL     1       8.784  -0.578  24.671  0.00  0.00    +0.151 HD
ATOM      6  O   UNL     1      10.398  -3.060  23.721  0.00  0.00    -0.253 OA
ENDROOT
BRANCH   4   7
ATOM      7  C   UNL     1      10.385  -0.172  23.358  0.00  0.00    +0.074 C 
ATOM      8  C   UNL     1      10.725   1.043  24.231  0.00  0.00    +0.022 C 
ATOM      9  C   UNL     1       9.564   2.033  24.326  0.00  0.00    +0.002 C 
ATOM     10  C   UNL     1       9.047   2.453  22.951  0.00  0.00    +0.000 C 
ATOM     11  C   UNL     1       8.744   1.261  22.045  0.00  0.00    +0.002 C 
ATOM     12  C   UNL     1       9.920   0.286  21.970  0.00  0.00    +0.022 C 
ENDBRANCH   4   7
BRANCH   1  13
ATOM     13  C   UNL     1       8.137  -4.332  24.795  0.00  0.00    +0.226 C 
BRANCH  13  14
ATOM     14  C   UNL     1       8.842  -4.904  26.014  0.00  0.00    +0.322 C 
ATOM     15  O   UNL     1       8.350  -4.920  27.137  0.00  0.00    -0.249 OA
BRANCH  14  16
ATOM     16  O   UNL     1      10.042  -5.472  25.735  0.00  0.00    -0.480 OA
ATOM     17  H   UNL     1      10.792  -4.852  25.913  0.00  0.00    +0.295 HD
ENDBRANCH  14  16
ENDBRANCH  13  14
ENDBRANCH   1  13
TORSDOF 4
ENDMDL
MODEL 2
REMARK VINA RESULT:      -5.5      4.824      7.255
REMARK  Name = 
REMARK  4 active torsions:
REMARK  status: ('A' for Active; 'I' for Inactive)
REMARK    1  A    between atoms: O_1  and  C_2
REMARK    2  A    between atoms: C_2  and  C_4
REMARK    3  A    between atoms: C_4  and  N_5
REMARK    4  A    between atoms: N_8  and  C_9
REMARK                            x       y       z     vdW  Elec       q    Type
REMARK                         _______ _______ _______ _____ _____    ______ ____
ROOT
ATOM      1  N   UNL     1      11.635   3.686  23.459  0.00  0.00    -0.289 N 
ATOM      2  H   UNL     1      12.342   3.009  23.216  0.00  0.00    +0.151 HD
ATOM      3  C   UNL     1      10.337   3.267  23.530  0.00  0.00    +0.300 C 
ATOM      4  N   UNL     1      10.243   1.914  23.418  0.00  0.00    -0.297 N 
ATOM      5  H   UNL     1      11.057   1.412  23.738  0.00  0.00    +0.151 HD
ATOM      6  O   UNL     1       9.411   4.049  23.703  0.00  0.00    -0.253 OA
ENDROOT
BRANCH   4   7
ATOM      7  C   UNL     1       8.978   1.182  23.456  0.00  0.00    +0.074 C 
ATOM      8  C   UNL     1       9.082  -0.110  24.277  0.00  0.00    +0.022 C 
ATOM      9  C   UNL     1       9.995  -1.145  23.618  0.00  0.00    +0.002 C 
ATOM     10  C   UNL     1       9.599  -1.427  22.170  0.00  0.00    +0.000 C 
ATOM     11  C   UNL     1       9.444  -0.154  21.342  0.00  0.00    +0.002 C 
ATOM     12  C   UNL     1       8.529   0.864  22.024  0.00  0.00    +0.022 C 
ENDBRANCH   4   7
BRANCH   1  13
ATOM     13  C   UNL     1      12.003   5.090  23.416  0.00  0.00    +0.226 C 
BRANCH  13  14
ATOM     14  C   UNL     1      13.267   5.314  22.602  0.00  0.00    +0.322 C 
ATOM     15  O   UNL     1      13.269   5.777  21.466  0.00  0.00    -0.249 OA
BRANCH  14  16
ATOM     16  O   UNL     1      14.409   5.030  23.276  0.00  0.00    -0.480 OA
ATOM     17  H   UNL     1      14.824   4.190  22.958  0.00  0.00    +0.295 HD
ENDBRANCH  14  16
ENDBRANCH  13  14
ENDBRANCH   1  13
TORSDOF 4
ENDMDL
MODEL 3
REMARK VINA RESULT:      -5.2      2.111      6.056
REMARK  Name = 
REMARK  4 active torsions:
REMARK  status: ('A' for Active; 'I' for Inactive)
REMARK    1  A    between atoms: O_1  and  C_2
REMARK    2  A    between atoms: C_2  and  C_4
REMARK    3  A    between atoms: C_4  and  N_5
REMARK    4  A    between atoms: N_8  and  C_9
REMARK                            x       y       z     vdW  Elec       q    Type
REMARK                         _______ _______ _______ _____ _____    ______ ____
ROOT
ATOM      1  N   UNL     1       9.521  -0.714  23.825  0.00  0.00    -0.289 N 
ATOM      2  H   UNL     1       8.821  -0.434  24.496  0.00  0.00    +0.151 HD
ATOM      3  C   UNL     1       9.838  -2.040  23.740  0.00  0.00    +0.300 C 
ATOM      4  N   UNL     1       8.999  -2.803  24.492  0.00  0.00    -0.297 N 
ATOM      5  H   UNL     1       8.079  -2.410  24.617  0.00  0.00    +0.151 HD
ATOM      6  O   UNL     1      10.756  -2.443  23.038  0.00  0.00    -0.253 OA
ENDROOT
BRANCH   4   7
ATOM      7  C   UNL     1       9.099  -4.257  24.597  0.00  0.00    +0.074 C 
ATOM      8  C   UNL     1       7.962  -4.970  23.853  0.00  0.00    +0.022 C 
ATOM      9  C   UNL     1       6.600  -4.727  24.504  0.00  0.00    +0.002 C 
ATOM     10  C   UNL     1       6.601  -5.068  25.993  0.00  0.00    +0.000 C 
ATOM     11  C   UNL     1       7.751  -4.408  26.749  0.00  0.00    +0.002 C 
ATOM     12  C   UNL     1       9.100  -4.664  26.076  0.00  0.00    +0.022 C 
ENDBRANCH   4   7
BRANCH   1  13
ATOM     13  C   UNL     1      10.339   0.327  23.228  0.00  0.00    +0.226 C 
BRANCH  13  14
ATOM     14  C   UNL     1       9.802   0.752  21.870  0.00  0.00    +0.322 C 
ATOM     15  O   UNL     1       9.184   0.003  21.121  0.00  0.00    -0.249 OA
BRANCH  14  16
ATOM     16  O   UNL     1       9.999   2.064  21.591  0.00  0.00    -0.480 OA
ATOM     17  H   UNL     1      10.958   2.304  21.611  0.00  0.00    +0.295 HD
ENDBRANCH  14  16
ENDBRANCH  13  14
ENDBRANCH   1  13
TORSDOF 4
ENDMDL
MODEL 4
REMARK VINA RESULT:      -5.2      3.027      6.392
REMARK  Name = 
REMARK  4 active torsions:
REMARK  status: ('A' for Active; 'I' for Inactive)
REMARK    1  A    between atoms: O_1  and  C_2
REMARK    2  A    between atoms: C_2  and  C_4
REMARK    3  A    between atoms: C_4  and  N_5
REMARK    4  A    between atoms: N_8  and  C_9
REMARK                            x       y       z     vdW  Elec       q    Type
REMARK                         _______ _______ _______ _____ _____    ______ ____
ROOT
ATOM      1  N   UNL     1       8.754  -1.171  21.984  0.00  0.00    -0.289 N 
ATOM      2  H   UNL     1       7.868  -0.946  21.558  0.00  0.00    +0.151 HD
ATOM      3  C   UNL     1       8.805  -2.226  22.850  0.00  0.00    +0.300 C 
ATOM      4  N   UNL     1       7.635  -2.921  22.859  0.00  0.00    -0.297 N 
ATOM      5  H   UNL     1       7.117  -2.874  21.995  0.00  0.00    +0.151 HD
ATOM      6  O   UNL     1       9.812  -2.487  23.495  0.00  0.00    -0.253 OA
ENDROOT
BRANCH   4   7
ATOM      7  C   UNL     1       7.396  -4.097  23.692  0.00  0.00    +0.074 C 
ATOM      8  C   UNL     1       7.769  -5.400  22.972  0.00  0.00    +0.022 C 
ATOM      9  C   UNL     1       6.847  -5.693  21.788  0.00  0.00    +0.002 C 
ATOM     10  C   UNL     1       5.371  -5.669  22.182  0.00  0.00    +0.000 C 
ATOM     11  C   UNL     1       4.984  -4.402  22.942  0.00  0.00    +0.002 C 
ATOM     12  C   UNL     1       5.923  -4.131  24.118  0.00  0.00    +0.022 C 
ENDBRANCH   4   7
BRANCH   1  13
ATOM     13  C   UNL     1       9.820  -0.189  21.881  0.00  0.00    +0.226 C 
BRANCH  13  14
ATOM     14  C   UNL     1       9.277   1.200  21.589  0.00  0.00    +0.322 C 
ATOM     15  O   UNL     1       8.085   1.443  21.432  0.00  0.00    -0.249 OA
BRANCH  14  16
ATOM     16  O   UNL     1      10.224   2.170  21.596  0.00  0.00    -0.480 OA
ATOM     17  H   UNL     1      11.102   1.828  21.296  0.00  0.00    +0.295 HD
ENDBRANCH  14  16
ENDBRANCH  13  14
ENDBRANCH   1  13
TORSDOF 4
ENDMDL
MODEL 5
REMARK VINA RESULT:      -5.1      2.649      3.065
REMARK  Name = 
REMARK  4 active torsions:
REMARK  status: ('A' for Active; 'I' for Inactive)
REMARK    1  A    between atoms: O_1  and  C_2
REMARK    2  A    between atoms: C_2  and  C_4
REMARK    3  A    between atoms: C_4  and  N_5
REMARK    4  A    between atoms: N_8  and  C_9
REMARK                            x       y       z     vdW  Elec       q    Type
REMARK                         _______ _______ _______ _____ _____    ______ ____
ROOT
ATOM      1  N   UNL     1       6.766  -3.641  23.757  0.00  0.00    -0.289 N 
ATOM      2  H   UNL     1       6.192  -2.837  23.554  0.00  0.00    +0.151 HD
ATOM      3  C   UNL     1       8.118  -3.464  23.833  0.00  0.00    +0.300 C 
ATOM      4  N   UNL     1       8.453  -2.146  23.785  0.00  0.00    -0.297 N 
ATOM      5  H   UNL     1       7.743  -1.523  24.137  0.00  0.00    +0.151 HD
ATOM      6  O   UNL     1       8.890  -4.407  23.958  0.00  0.00    -0.253 OA
ENDROOT
BRANCH   4   7
ATOM      7  C   UNL     1       9.829  -1.656  23.843  0.00  0.00    +0.074 C 
ATOM      8  C   UNL     1       9.935  -0.324  24.598  0.00  0.00    +0.022 C 
ATOM      9  C   UNL     1       9.251   0.823  23.852  0.00  0.00    +0.002 C 
ATOM     10  C   UNL     1       9.741   0.950  22.410  0.00  0.00    +0.000 C 
ATOM     11  C   UNL     1       9.689  -0.373  21.650  0.00  0.00    +0.002 C 
ATOM     12  C   UNL     1      10.377  -1.503  22.418  0.00  0.00    +0.022 C 
ENDBRANCH   4   7
BRANCH   1  13
ATOM     13  C   UNL     1       6.152  -4.953  23.652  0.00  0.00    +0.226 C 
BRANCH  13  14
ATOM     14  C   UNL     1       5.954  -5.365  22.201  0.00  0.00    +0.322 C 
ATOM     15  O   UNL     1       5.735  -4.570  21.295  0.00  0.00    -0.249 OA
BRANCH  14  16
ATOM     16  O   UNL     1       6.123  -6.693  21.983  0.00  0.00    -0.480 OA
ATOM     17  H   UNL     1       7.048  -6.983  22.177  0.00  0.00    +0.295 HD
ENDBRANCH  14  16
ENDBRANCH  13  14
ENDBRANCH   1  13
TORSDOF 4
ENDMDL
MODEL 6
REMARK VINA RESULT:      -5.1      1.420      2.068
REMARK  Name = 
REMARK  4 active torsions:
REMARK  status: ('A' for Active; 'I' for Inactive)
REMARK    1  A    between atoms: O_1  and  C_2
REMARK    2  A    between atoms: C_2  and  C_4
REMARK    3  A    between atoms: C_4  and  N_5
REMARK    4  A    between atoms: N_8  and  C_9
REMARK                            x       y       z     vdW  Elec       q    Type
REMARK                         _______ _______ _______ _____ _____    ______ ____
ROOT
ATOM      1  N   UNL     1       8.907  -3.291  24.083  0.00  0.00    -0.289 N 
ATOM      2  H   UNL     1       9.871  -3.145  24.341  0.00  0.00    +0.151 HD
ATOM      3  C   UNL     1       8.103  -2.197  23.944  0.00  0.00    +0.300 C 
ATOM      4  N   UNL     1       8.816  -1.040  24.019  0.00  0.00    -0.297 N 
ATOM      5  H   UNL     1       9.777  -1.124  23.724  0.00  0.00    +0.151 HD
ATOM      6  O   UNL     1       6.898  -2.297  23.750  0.00  0.00    -0.253 OA
ENDROOT
BRANCH   4   7
ATOM      7  C   UNL     1       8.221   0.290  23.908  0.00  0.00    +0.074 C 
ATOM      8  C   UNL     1       7.930   0.672  22.450  0.00  0.00    +0.022 C 
ATOM      9  C   UNL     1       9.210   0.860  21.633  0.00  0.00    +0.002 C 
ATOM     10  C   UNL     1      10.179   1.840  22.292  0.00  0.00    +0.000 C 
ATOM     11  C   UNL     1      10.449   1.508  23.757  0.00  0.00    +0.002 C 
ATOM     12  C   UNL     1       9.154   1.323  24.551  0.00  0.00    +0.022 C 
ENDBRANCH   4   7
BRANCH   1  13
ATOM     13  C   UNL     1       8.383  -4.643  24.176  0.00  0.00    +0.226 C 
BRANCH  13  14
ATOM     14  C   UNL     1       8.909  -5.365  25.407  0.00  0.00    +0.322 C 
ATOM     15  O   UNL     1       8.195  -5.736  26.332  0.00  0.00    -0.249 OA
BRANCH  14  16
ATOM     16  O   UNL     1      10.236  -5.636  25.355  0.00  0.00    -0.480 OA
ATOM     17  H   UNL     1      10.478  -6.401  25.932  0.00  0.00    +0.295 HD
ENDBRANCH  14  16
ENDBRANCH  13  14
ENDBRANCH   1  13
TORSDOF 4
ENDMDL
MODEL 7
REMARK VINA RESULT:      -4.9      3.931      5.589
REMARK  Name = 
REMARK  4 active torsions:
REMARK  status: ('A' for Active; 'I' for Inactive)
REMARK    1  A    between atoms: O_1  and  C_2
REMARK    2  A    between atoms: C_2  and  C_4
REMARK    3  A    between atoms: C_4  and  N_5
REMARK    4  A    between atoms: N_8  and  C_9
REMARK                            x       y       z     vdW  Elec       q    Type
REMARK                         _______ _______ _______ _____ _____    ______ ____
ROOT
ATOM      1  N   UNL     1       9.249   1.838  21.556  0.00  0.00    -0.289 N 
ATOM      2  H   UNL     1      10.155   2.277  21.617  0.00  0.00    +0.151 HD
ATOM      3  C   UNL     1       8.168   2.519  22.039  0.00  0.00    +0.300 C 
ATOM      4  N   UNL     1       8.495   3.794  22.383  0.00  0.00    -0.297 N 
ATOM      5  H   UNL     1       9.268   4.181  21.863  0.00  0.00    +0.151 HD
ATOM      6  O   UNL     1       7.058   2.008  22.108  0.00  0.00    -0.253 OA
ENDROOT
BRANCH   4   7
ATOM      7  C   UNL     1       7.542   4.756  22.933  0.00  0.00    +0.074 C 
ATOM      8  C   UNL     1       7.985   6.207  22.698  0.00  0.00    +0.022 C 
ATOM      9  C   UNL     1       9.244   6.565  23.487  0.00  0.00    +0.002 C 
ATOM     10  C   UNL     1       9.103   6.252  24.976  0.00  0.00    +0.000 C 
ATOM     11  C   UNL     1       8.619   4.828  25.237  0.00  0.00    +0.002 C 
ATOM     12  C   UNL     1       7.360   4.495  24.434  0.00  0.00    +0.022 C 
ENDBRANCH   4   7
BRANCH   1  13
ATOM     13  C   UNL     1       9.206   0.420  21.243  0.00  0.00    +0.226 C 
BRANCH  13  14
ATOM     14  C   UNL     1      10.068  -0.391  22.197  0.00  0.00    +0.322 C 
ATOM     15  O   UNL     1      10.395  -0.002  23.313  0.00  0.00    -0.249 OA
BRANCH  14  16
ATOM     16  O   UNL     1      10.380  -1.627  21.735  0.00  0.00    -0.480 OA
ATOM     17  H   UNL     1       9.660  -2.000  21.169  0.00  0.00    +0.295 HD
ENDBRANCH  14  16
ENDBRANCH  13  14
ENDBRANCH   1  13
TORSDOF 4
ENDMDL
MODEL 8
REMARK VINA RESULT:      -4.9      1.693      2.095
REMARK  Name = 
REMARK  4 active torsions:
REMARK  status: ('A' for Active; 'I' for Inactive)
REMARK    1  A    between atoms: O_1  and  C_2
REMARK    2  A    between atoms: C_2  and  C_4
REMARK    3  A    between atoms: C_4  and  N_5
REMARK    4  A    between atoms: N_8  and  C_9
REMARK                            x       y       z     vdW  Elec       q    Type
REMARK                         _______ _______ _______ _____ _____    ______ ____
ROOT
ATOM      1  N   UNL     1       8.042  -2.883  24.065  0.00  0.00    -0.289 N 
ATOM      2  H   UNL     1       7.209  -2.329  23.938  0.00  0.00    +0.151 HD
ATOM      3  C   UNL     1       9.246  -2.319  23.753  0.00  0.00    +0.300 C 
ATOM      4  N   UNL     1       9.118  -0.994  23.471  0.00  0.00    -0.297 N 
ATOM      5  H   UNL     1       8.342  -0.543  23.932  0.00  0.00    +0.151 HD
ATOM      6  O   UNL     1      10.287  -2.963  23.767  0.00  0.00    -0.253 OA
ENDROOT
BRANCH   4   7
ATOM      7  C   UNL     1      10.238  -0.131  23.100  0.00  0.00    +0.074 C 
ATOM      8  C   UNL     1      10.608   0.848  24.222  0.00  0.00    +0.022 C 
ATOM      9  C   UNL     1       9.514   1.887  24.471  0.00  0.00    +0.002 C 
ATOM     10  C   UNL     1       9.109   2.620  23.193  0.00  0.00    +0.000 C 
ATOM     11  C   UNL     1       8.780   1.667  22.046  0.00  0.00    +0.002 C 
ATOM     12  C   UNL     1       9.888   0.638  21.820  0.00  0.00    +0.022 C 
ENDBRANCH   4   7
BRANCH   1  13
ATOM     13  C   UNL     1       7.876  -4.311  24.275  0.00  0.00    +0.226 C 
BRANCH  13  14
ATOM     14  C   UNL     1       7.051  -4.949  23.168  0.00  0.00    +0.322 C 
ATOM     15  O   UNL     1       7.309  -4.827  21.975  0.00  0.00    -0.249 OA
BRANCH  14  16
ATOM     16  O   UNL     1       6.045  -5.736  23.621  0.00  0.00    -0.480 OA
ATOM     17  H   UNL     1       5.430  -6.002  22.894  0.00  0.00    +0.295 HD
ENDBRANCH  14  16
ENDBRANCH  13  14
ENDBRANCH   1  13
TORSDOF 4
ENDMDL
MODEL 9
REMARK VINA RESULT:      -4.8      4.487      6.991
REMARK  Name = 
REMARK  4 active torsions:
REMARK  status: ('A' for Active; 'I' for Inactive)
REMARK    1  A    between atoms: O_1  and  C_2
REMARK    2  A    between atoms: C_2  and  C_4
REMARK    3  A    between atoms: C_4  and  N_5
REMARK    4  A    between atoms: N_8  and  C_9
REMARK                            x       y       z     vdW  Elec       q    Type
REMARK                         _______ _______ _______ _____ _____    ______ ____
ROOT
ATOM      1  N   UNL     1      10.707   3.473  23.351  0.00  0.00    -0.289 N 
ATOM      2  H   UNL     1      11.587   3.031  23.133  0.00  0.00    +0.151 HD
ATOM      3  C   UNL     1       9.558   2.772  23.121  0.00  0.00    +0.300 C 
ATOM      4  N   UNL     1       9.822   1.481  22.779  0.00  0.00    -0.297 N 
ATOM      5  H   UNL     1      10.684   1.118  23.155  0.00  0.00    +0.151 HD
ATOM      6  O   UNL     1       8.451   3.280  23.246  0.00  0.00    -0.253 OA
ENDROOT
BRANCH   4   7
ATOM      7  C   UNL     1       8.787   0.495  22.472  0.00  0.00    +0.074 C 
ATOM      8  C   UNL     1       8.167  -0.105  23.741  0.00  0.00    +0.022 C 
ATOM      9  C   UNL     1       9.161  -0.964  24.523  0.00  0.00    +0.002 C 
ATOM     10  C   UNL     1       9.811  -2.037  23.650  0.00  0.00    +0.000 C 
ATOM     11  C   UNL     1      10.396  -1.472  22.358  0.00  0.00    +0.002 C 
ATOM     12  C   UNL     1       9.383  -0.615  21.597  0.00  0.00    +0.022 C 
ENDBRANCH   4   7
BRANCH   1  13
ATOM     13  C   UNL     1      10.715   4.904  23.599  0.00  0.00    +0.226 C 
BRANCH  13  14
ATOM     14  C   UNL     1      12.098   5.502  23.392  0.00  0.00    +0.322 C 
ATOM     15  O   UNL     1      12.789   5.943  24.304  0.00  0.00    -0.249 OA
BRANCH  14  16
ATOM     16  O   UNL     1      12.537   5.432  22.111  0.00  0.00    -0.480 OA
ATOM     17  H   UNL     1      12.520   6.315  21.668  0.00  0.00    +0.295 HD
ENDBRANCH  14  16
ENDBRANCH  13  14
ENDBRANCH   1  13
TORSDOF 4
ENDMDL
