MODEL 1
REMARK VINA RESULT:      -6.8      0.000      0.000
REMARK  Name = 
REMARK  11 active torsions:
REMARK  status: ('A' for Active; 'I' for Inactive)
REMARK    1  A    between atoms: C_1  and  C_2
REMARK    2  A    between atoms: C_2  and  C_3
REMARK    3  A    between atoms: C_5  and  CA_13
REMARK    4  A    between atoms: CA_8  and  C_10
REMARK    5  A    between atoms: C_10  and  O_11
REMARK    6  A    between atoms: CA_13  and  N_15
REMARK    7  A    between atoms: CA_13  and  C_28
REMARK    8  A    between atoms: C_16  and  CA_18
REMARK    9  A    between atoms: CA_18  and  N_20
REMARK   10  A    between atoms: CA_18  and  C_21
REMARK   11  A    between atoms: C_24  and  O_25
REMARK                            x       y       z     vdW  Elec       q    Type
REMARK                         _______ _______ _______ _____ _____    ______ ____
ROOT
ATOM      1  N   UNL     1       8.559  -1.594  24.582  0.00  0.00    -0.302 N 
ATOM      2  H   UNL     1       8.625  -0.579  24.512  0.00  0.00    +0.150 HD
ATOM      3  C   UNL     1       9.570  -2.284  23.940  0.00  0.00    +0.235 C 
ATOM      4  O   UNL     1       9.825  -3.457  24.208  0.00  0.00    -0.274 OA
ENDROOT
BRANCH   1   5
ATOM      5  CA  UNL     1       7.793  -2.202  25.670  0.00  0.00    +0.163 C 
BRANCH   5  11
ATOM      6  C   UNL     1       5.149  -6.088  23.331  0.00  0.00    +0.024 C 
ATOM      7  C   UNL     1       5.086  -4.711  23.994  0.00  0.00    +0.038 C 
ATOM      8  CA  UNL     1       5.386  -3.503  23.080  0.00  0.00    +0.180 C 
ATOM      9  N   UNL     1       6.075  -2.400  23.821  0.00  0.00    -0.290 NA
ATOM     10  H   UNL     1       6.884  -2.048  23.306  0.00  0.00    +0.124 HD
ATOM     11  C   UNL     1       6.435  -2.781  25.195  0.00  0.00    +0.141 C 
ATOM     12  S   UNL     1       6.419  -4.596  25.235  0.00  0.00    -0.131 S 
ATOM     13  C   UNL     1       3.728  -4.545  24.694  0.00  0.00    +0.024 C 
BRANCH   8  14
ATOM     14  C   UNL     1       6.181  -3.867  21.818  0.00  0.00    +0.323 C 
ATOM     15  OXT UNL     1       5.675  -4.055  20.725  0.00  0.00    -0.249 OA
BRANCH  14  16
ATOM     16  O   UNL     1       7.515  -3.953  22.023  0.00  0.00    -0.479 OA
ATOM     17  H   UNL     1       7.982  -4.374  21.274  0.00  0.00    +0.295 HD
ENDBRANCH  14  16
ENDBRANCH   8  14
ENDBRANCH   5  11
BRANCH   5  18
ATOM     18  C   UNL     1       7.553  -1.169  26.764  0.00  0.00    +0.247 C 
ATOM     19  O   UNL     1       8.440  -0.528  27.321  0.00  0.00    -0.299 OA
ENDBRANCH   5  18
ENDBRANCH   1   5
BRANCH   3  20
ATOM     20  CA  UNL     1      10.339  -1.474  22.858  0.00  0.00    +0.168 C 
BRANCH  20  21
ATOM     21  C   UNL     1      10.242   0.040  22.984  0.00  0.00    -0.022 A 
ATOM     22  C   UNL     1       9.561   0.766  21.984  0.00  0.00    +0.009 A 
ATOM     23  C   UNL     1       9.407   2.151  22.071  0.00  0.00    +0.046 A 
ATOM     24  C   UNL     1       9.947   2.833  23.150  0.00  0.00    +0.117 A 
ATOM     25  C   UNL     1      10.659   2.154  24.131  0.00  0.00    +0.046 A 
ATOM     26  C   UNL     1      10.804   0.763  24.049  0.00  0.00    +0.009 A 
BRANCH  24  27
ATOM     27  O   UNL     1       9.752   4.181  23.212  0.00  0.00    -0.507 OA
ATOM     28  H   UNL     1      10.170   4.586  22.435  0.00  0.00    +0.292 HD
ENDBRANCH  24  27
ENDBRANCH  20  21
BRANCH  20  29
ATOM     29  N   UNL     1       9.882  -1.922  21.517  0.00  0.00    -0.316 NA
ATOM     30  H1  UNL     1       8.979  -1.491  21.325  0.00  0.00    +0.119 HD
ATOM     31  H2  UNL     1      10.520  -1.533  20.824  0.00  0.00    +0.119 HD
ENDBRANCH  20  29
ENDBRANCH   3  20
TORSDOF 9
ENDMDL
MODEL 2
REMARK VINA RESULT:      -6.7      2.446      6.910
REMARK  Name = 
REMARK  11 active torsions:
REMARK  status: ('A' for Active; 'I' for Inactive)
REMARK    1  A    between atoms: C_1  and  C_2
REMARK    2  A    between atoms: C_2  and  C_3
REMARK    3  A    between atoms: C_5  and  CA_13
REMARK    4  A    between atoms: CA_8  and  C_10
REMARK    5  A    between atoms: C_10  and  O_11
REMARK    6  A    between atoms: CA_13  and  N_15
REMARK    7  A    between atoms: CA_13  and  C_28
REMARK    8  A    between atoms: C_16  and  CA_18
REMARK    9  A    between atoms: CA_18  and  N_20
REMARK   10  A    between atoms: CA_18  and  C_21
REMARK   11  A    between atoms: C_24  and  O_25
REMARK                            x       y       z     vdW  Elec       q    Type
REMARK                         _______ _______ _______ _____ _____    ______ ____
ROOT
ATOM      1  N   UNL     1       8.694  -2.910  25.018  0.00  0.00    -0.302 N 
ATOM      2  H   UNL     1       7.685  -2.756  25.008  0.00  0.00    +0.150 HD
ATOM      3  C   UNL     1       9.074  -4.235  25.125  0.00  0.00    +0.235 C 
ATOM      4  O   UNL     1      10.203  -4.611  24.814  0.00  0.00    -0.274 OA
ENDROOT
BRANCH   1   5
ATOM      5  CA  UNL     1       9.591  -1.902  24.454  0.00  0.00    +0.163 C 
BRANCH   5  11
ATOM      6  C   UNL     1       7.466   2.762  23.318  0.00  0.00    +0.024 C 
ATOM      7  C   UNL     1       8.199   1.903  24.350  0.00  0.00    +0.038 C 
ATOM      8  CA  UNL     1       9.737   1.855  24.224  0.00  0.00    +0.180 C 
ATOM      9  N   UNL     1      10.290   0.525  24.631  0.00  0.00    -0.290 NA
ATOM     10  H   UNL     1      10.963   0.171  23.948  0.00  0.00    +0.124 HD
ATOM     11  C   UNL     1       9.236  -0.463  24.909  0.00  0.00    +0.141 C 
ATOM     12  S   UNL     1       7.736   0.156  24.094  0.00  0.00    -0.131 S 
ATOM     13  C   UNL     1       7.779   2.336  25.763  0.00  0.00    +0.024 C 
BRANCH   8  14
ATOM     14  C   UNL     1      10.254   2.236  22.829  0.00  0.00    +0.323 C 
ATOM     15  OXT UNL     1      10.147   1.523  21.845  0.00  0.00    -0.249 OA
BRANCH  14  16
ATOM     16  O   UNL     1      10.839   3.455  22.781  0.00  0.00    -0.479 OA
ATOM     17  H   UNL     1      10.290   4.149  23.196  0.00  0.00    +0.295 HD
ENDBRANCH  14  16
ENDBRANCH   8  14
ENDBRANCH   5  11
BRANCH   5  18
ATOM     18  C   UNL     1       9.555  -1.981  22.932  0.00  0.00    +0.247 C 
ATOM     19  O   UNL     1      10.507  -1.719  22.201  0.00  0.00    -0.299 OA
ENDBRANCH   5  18
ENDBRANCH   1   5
BRANCH   3  20
ATOM     20  CA  UNL     1       7.980  -5.193  25.674  0.00  0.00    +0.168 C 
BRANCH  20  21
ATOM     21  C   UNL     1       6.678  -5.220  24.886  0.00  0.00    -0.022 A 
ATOM     22  C   UNL     1       5.456  -5.092  25.581  0.00  0.00    +0.009 A 
ATOM     23  C   UNL     1       4.236  -5.069  24.904  0.00  0.00    +0.046 A 
ATOM     24  C   UNL     1       4.217  -5.189  23.523  0.00  0.00    +0.117 A 
ATOM     25  C   UNL     1       5.398  -5.357  22.812  0.00  0.00    +0.046 A 
ATOM     26  C   UNL     1       6.624  -5.370  23.490  0.00  0.00    +0.009 A 
BRANCH  24  27
ATOM     27  O   UNL     1       3.007  -5.135  22.897  0.00  0.00    -0.507 OA
ATOM     28  H   UNL     1       2.314  -5.082  23.575  0.00  0.00    +0.292 HD
ENDBRANCH  24  27
ENDBRANCH  20  21
BRANCH  20  29
ATOM     29  N   UNL     1       7.727  -4.856  27.100  0.00  0.00    -0.316 NA
ATOM     30  H1  UNL     1       6.867  -5.317  27.391  0.00  0.00    +0.119 HD
ATOM     31  H2  UNL     1       8.466  -5.283  27.657  0.00  0.00    +0.119 HD
ENDBRANCH  20  29
ENDBRANCH   3  20
TORSDOF 9
ENDMDL
MODEL 3
REMARK VINA RESULT:      -6.7      2.103      3.616
REMARK  Name = 
REMARK  11 active torsions:
REMARK  status: ('A' for Active; 'I' for Inactive)
REMARK    1  A    between atoms: C_1  and  C_2
REMARK    2  A    between atoms: C_2  and  C_3
REMARK    3  A    between atoms: C_5  and  CA_13
REMARK    4  A    between atoms: CA_8  and  C_10
REMARK    5  A    between atoms: C_10  and  O_11
REMARK    6  A    between atoms: CA_13  and  N_15
REMARK    7  A    between atoms: CA_13  and  C_28
REMARK    8  A    between atoms: C_16  and  CA_18
REMARK    9  A    between atoms: CA_18  and  N_20
REMARK   10  A    between atoms: CA_18  and  C_21
REMARK   11  A    between atoms: C_24  and  O_25
REMARK                            x       y       z     vdW  Elec       q    Type
REMARK                         _______ _______ _______ _____ _____    ______ ____
ROOT
ATOM      1  N   UNL     1       7.578  -3.341  23.037  0.00  0.00    -0.302 N 
ATOM      2  H   UNL     1       8.422  -3.907  22.951  0.00  0.00    +0.150 HD
ATOM      3  C   UNL     1       7.798  -1.977  23.071  0.00  0.00    +0.235 C 
ATOM      4  O   UNL     1       6.901  -1.170  22.832  0.00  0.00    -0.274 OA
ENDROOT
BRANCH   1   5
ATOM      5  CA  UNL     1       6.284  -3.895  22.639  0.00  0.00    +0.163 C 
BRANCH   5  11
ATOM      6  C   UNL     1       4.961  -3.908  27.720  0.00  0.00    +0.024 C 
ATOM      7  C   UNL     1       4.888  -4.629  26.372  0.00  0.00    +0.038 C 
ATOM      8  CA  UNL     1       6.086  -5.538  26.023  0.00  0.00    +0.180 C 
ATOM      9  N   UNL     1       6.368  -5.550  24.553  0.00  0.00    -0.290 NA
ATOM     10  H   UNL     1       7.362  -5.416  24.360  0.00  0.00    +0.124 HD
ATOM     11  C   UNL     1       5.541  -4.586  23.812  0.00  0.00    +0.141 C 
ATOM     12  S   UNL     1       4.943  -3.386  25.038  0.00  0.00    -0.131 S 
ATOM     13  C   UNL     1       3.565  -5.408  26.284  0.00  0.00    +0.024 C 
BRANCH   8  14
ATOM     14  C   UNL     1       7.365  -5.199  26.803  0.00  0.00    +0.323 C 
ATOM     15  OXT UNL     1       8.090  -4.253  26.544  0.00  0.00    -0.249 OA
BRANCH  14  16
ATOM     16  O   UNL     1       7.619  -6.047  27.826  0.00  0.00    -0.479 OA
ATOM     17  H   UNL     1       7.660  -5.590  28.689  0.00  0.00    +0.295 HD
ENDBRANCH  14  16
ENDBRANCH   8  14
ENDBRANCH   5  11
BRANCH   5  18
ATOM     18  C   UNL     1       6.483  -4.892  21.503  0.00  0.00    +0.247 C 
ATOM     19  O   UNL     1       7.183  -5.898  21.578  0.00  0.00    -0.299 OA
ENDBRANCH   5  18
ENDBRANCH   1   5
BRANCH   3  20
ATOM     20  CA  UNL     1       9.247  -1.551  23.442  0.00  0.00    +0.168 C 
BRANCH  20  21
ATOM     21  C   UNL     1       9.516  -0.053  23.409  0.00  0.00    -0.022 A 
ATOM     22  C   UNL     1       9.915   0.544  22.194  0.00  0.00    +0.009 A 
ATOM     23  C   UNL     1      10.135   1.919  22.099  0.00  0.00    +0.046 A 
ATOM     24  C   UNL     1       9.977   2.716  23.221  0.00  0.00    +0.117 A 
ATOM     25  C   UNL     1       9.625   2.156  24.443  0.00  0.00    +0.046 A 
ATOM     26  C   UNL     1       9.393   0.777  24.536  0.00  0.00    +0.009 A 
BRANCH  24  27
ATOM     27  O   UNL     1      10.175   4.057  23.081  0.00  0.00    -0.507 OA
ATOM     28  H   UNL     1      10.816   4.343  23.752  0.00  0.00    +0.292 HD
ENDBRANCH  24  27
ENDBRANCH  20  21
BRANCH  20  29
ATOM     29  N   UNL     1      10.195  -2.277  22.556  0.00  0.00    -0.316 NA
ATOM     30  H1  UNL     1      11.124  -1.883  22.691  0.00  0.00    +0.119 HD
ATOM     31  H2  UNL     1      10.256  -3.238  22.887  0.00  0.00    +0.119 HD
ENDBRANCH  20  29
ENDBRANCH   3  20
TORSDOF 9
ENDMDL
MODEL 4
REMARK VINA RESULT:      -6.6      2.490      3.974
REMARK  Name = 
REMARK  11 active torsions:
REMARK  status: ('A' for Active; 'I' for Inactive)
REMARK    1  A    between atoms: C_1  and  C_2
REMARK    2  A    between atoms: C_2  and  C_3
REMARK    3  A    between atoms: C_5  and  CA_13
REMARK    4  A    between atoms: CA_8  and  C_10
REMARK    5  A    between atoms: C_10  and  O_11
REMARK    6  A    between atoms: CA_13  and  N_15
REMARK    7  A    between atoms: CA_13  and  C_28
REMARK    8  A    between atoms: C_16  and  CA_18
REMARK    9  A    between atoms: CA_18  and  N_20
REMARK   10  A    between atoms: CA_18  and  C_21
REMARK   11  A    between atoms: C_24  and  O_25
REMARK                            x       y       z     vdW  Elec       q    Type
REMARK                         _______ _______ _______ _____ _____    ______ ____
ROOT
ATOM      1  N   UNL     1       8.366   0.447  23.264  0.00  0.00    -0.302 N 
ATOM      2  H   UNL     1       8.848   0.275  24.147  0.00  0.00    +0.150 HD
ATOM      3  C   UNL     1       8.298   1.776  22.891  0.00  0.00    +0.235 C 
ATOM      4  O   UNL     1       8.065   2.112  21.731  0.00  0.00    -0.274 OA
ENDROOT
BRANCH   1   5
ATOM      5  CA  UNL     1       8.243  -0.629  22.280  0.00  0.00    +0.163 C 
BRANCH   5  11
ATOM      6  C   UNL     1       6.668  -3.758  26.190  0.00  0.00    +0.024 C 
ATOM      7  C   UNL     1       6.541  -3.390  24.710  0.00  0.00    +0.038 C 
ATOM      8  CA  UNL     1       7.578  -4.028  23.760  0.00  0.00    +0.180 C 
ATOM      9  N   UNL     1       7.932  -3.117  22.627  0.00  0.00    -0.290 NA
ATOM     10  H   UNL     1       8.943  -3.058  22.493  0.00  0.00    +0.124 HD
ATOM     11  C   UNL     1       7.329  -1.783  22.765  0.00  0.00    +0.141 C 
ATOM     12  S   UNL     1       6.887  -1.608  24.518  0.00  0.00    -0.131 S 
ATOM     13  C   UNL     1       5.109  -3.682  24.235  0.00  0.00    +0.024 C 
BRANCH   8  14
ATOM     14  C   UNL     1       8.853  -4.506  24.471  0.00  0.00    +0.323 C 
ATOM     15  OXT UNL     1       8.945  -5.568  25.064  0.00  0.00    -0.249 OA
BRANCH  14  16
ATOM     16  O   UNL     1       9.887  -3.639  24.372  0.00  0.00    -0.479 OA
ATOM     17  H   UNL     1      10.685  -4.052  23.987  0.00  0.00    +0.295 HD
ENDBRANCH  14  16
ENDBRANCH   8  14
ENDBRANCH   5  11
BRANCH   5  18
ATOM     18  C   UNL     1       9.626  -1.178  21.948  0.00  0.00    +0.247 C 
ATOM     19  O   UNL     1      10.481  -1.457  22.784  0.00  0.00    -0.299 OA
ENDBRANCH   5  18
ENDBRANCH   1   5
BRANCH   3  20
ATOM     20  CA  UNL     1       8.522   2.797  24.042  0.00  0.00    +0.168 C 
BRANCH  20  21
ATOM     21  C   UNL     1       9.716   3.726  23.869  0.00  0.00    -0.022 A 
ATOM     22  C   UNL     1       9.566   5.095  24.179  0.00  0.00    +0.009 A 
ATOM     23  C   UNL     1      10.639   5.982  24.077  0.00  0.00    +0.046 A 
ATOM     24  C   UNL     1      11.872   5.519  23.648  0.00  0.00    +0.117 A 
ATOM     25  C   UNL     1      12.044   4.186  23.296  0.00  0.00    +0.046 A 
ATOM     26  C   UNL     1      10.970   3.292  23.408  0.00  0.00    +0.009 A 
BRANCH  24  27
ATOM     27  O   UNL     1      12.901   6.411  23.588  0.00  0.00    -0.507 OA
ATOM     28  H   UNL     1      13.167   6.632  24.495  0.00  0.00    +0.292 HD
ENDBRANCH  24  27
ENDBRANCH  20  21
BRANCH  20  29
ATOM     29  N   UNL     1       8.617   2.051  25.325  0.00  0.00    -0.316 NA
ATOM     30  H1  UNL     1       8.765   1.066  25.112  0.00  0.00    +0.119 HD
ATOM     31  H2  UNL     1       9.465   2.356  25.800  0.00  0.00    +0.119 HD
ENDBRANCH  20  29
ENDBRANCH   3  20
TORSDOF 9
ENDMDL
MODEL 5
REMARK VINA RESULT:      -6.6      2.330      3.327
REMARK  Name = 
REMARK  11 active torsions:
REMARK  status: ('A' for Active; 'I' for Inactive)
REMARK    1  A    between atoms: C_1  and  C_2
REMARK    2  A    between atoms: C_2  and  C_3
REMARK    3  A    between atoms: C_5  and  CA_13
REMARK    4  A    between atoms: CA_8  and  C_10
REMARK    5  A    between atoms: C_10  and  O_11
REMARK    6  A    between atoms: CA_13  and  N_15
REMARK    7  A    between atoms: CA_13  and  C_28
REMARK    8  A    between atoms: C_16  and  CA_18
REMARK    9  A    between atoms: CA_18  and  N_20
REMARK   10  A    between atoms: CA_18  and  C_21
REMARK   11  A    between atoms: C_24  and  O_25
REMARK                            x       y       z     vdW  Elec       q    Type
REMARK                         _______ _______ _______ _____ _____    ______ ____
ROOT
ATOM      1  N   UNL     1       8.181  -3.438  23.292  0.00  0.00    -0.302 N 
ATOM      2  H   UNL     1       9.076  -3.924  23.350  0.00  0.00    +0.150 HD
ATOM      3  C   UNL     1       8.273  -2.093  22.984  0.00  0.00    +0.235 C 
ATOM      4  O   UNL     1       7.311  -1.461  22.552  0.00  0.00    -0.274 OA
ENDROOT
BRANCH   1   5
ATOM      5  CA  UNL     1       6.954  -4.195  23.045  0.00  0.00    +0.163 C 
BRANCH   5  11
ATOM      6  C   UNL     1       5.023  -6.755  27.202  0.00  0.00    +0.024 C 
ATOM      7  C   UNL     1       4.992  -5.485  26.348  0.00  0.00    +0.038 C 
ATOM      8  CA  UNL     1       4.090  -5.532  25.096  0.00  0.00    +0.180 C 
ATOM      9  N   UNL     1       4.658  -4.725  23.970  0.00  0.00    -0.290 NA
ATOM     10  H   UNL     1       4.645  -5.245  23.090  0.00  0.00    +0.124 HD
ATOM     11  C   UNL     1       6.000  -4.205  24.268  0.00  0.00    +0.141 C 
ATOM     12  S   UNL     1       6.646  -5.225  25.624  0.00  0.00    -0.131 S 
ATOM     13  C   UNL     1       4.633  -4.284  27.237  0.00  0.00    +0.024 C 
BRANCH   8  14
ATOM     14  C   UNL     1       3.774  -6.956  24.616  0.00  0.00    +0.323 C 
ATOM     15  OXT UNL     1       2.783  -7.583  24.951  0.00  0.00    -0.249 OA
BRANCH  14  16
ATOM     16  O   UNL     1       4.698  -7.462  23.768  0.00  0.00    -0.479 OA
ATOM     17  H   UNL     1       4.635  -7.075  22.872  0.00  0.00    +0.295 HD
ENDBRANCH  14  16
ENDBRANCH   8  14
ENDBRANCH   5  11
BRANCH   5  18
ATOM     18  C   UNL     1       7.306  -5.627  22.659  0.00  0.00    +0.247 C 
ATOM     19  O   UNL     1       6.571  -6.373  22.018  0.00  0.00    -0.299 OA
ENDBRANCH   5  18
ENDBRANCH   1   5
BRANCH   3  20
ATOM     20  CA  UNL     1       9.667  -1.452  23.236  0.00  0.00    +0.168 C 
BRANCH  20  21
ATOM     21  C   UNL     1       9.682   0.068  23.317  0.00  0.00    -0.022 A 
ATOM     22  C   UNL     1      10.002   0.810  22.160  0.00  0.00    +0.009 A 
ATOM     23  C   UNL     1       9.991   2.206  22.167  0.00  0.00    +0.046 A 
ATOM     24  C   UNL     1       9.676   2.882  23.336  0.00  0.00    +0.117 A 
ATOM     25  C   UNL     1       9.396   2.182  24.503  0.00  0.00    +0.046 A 
ATOM     26  C   UNL     1       9.396   0.781  24.493  0.00  0.00    +0.009 A 
BRANCH  24  27
ATOM     27  O   UNL     1       9.650   4.244  23.295  0.00  0.00    -0.507 OA
ATOM     28  H   UNL     1       8.948   4.517  22.683  0.00  0.00    +0.292 HD
ENDBRANCH  24  27
ENDBRANCH  20  21
BRANCH  20  29
ATOM     29  N   UNL     1      10.606  -1.935  22.190  0.00  0.00    -0.316 NA
ATOM     30  H1  UNL     1      11.444  -2.288  22.650  0.00  0.00    +0.119 HD
ATOM     31  H2  UNL     1      10.181  -2.745  21.740  0.00  0.00    +0.119 HD
ENDBRANCH  20  29
ENDBRANCH   3  20
TORSDOF 9
ENDMDL
MODEL 6
REMARK VINA RESULT:      -6.5      1.555      1.827
REMARK  Name = 
REMARK  11 active torsions:
REMARK  status: ('A' for Active; 'I' for Inactive)
REMARK    1  A    between atoms: C_1  and  C_2
REMARK    2  A    between atoms: C_2  and  C_3
REMARK    3  A    between atoms: C_5  and  CA_13
REMARK    4  A    between atoms: CA_8  and  C_10
REMARK    5  A    between atoms: C_10  and  O_11
REMARK    6  A    between atoms: CA_13  and  N_15
REMARK    7  A    between atoms: CA_13  and  C_28
REMARK    8  A    between atoms: C_16  and  CA_18
REMARK    9  A    between atoms: CA_18  and  N_20
REMARK   10  A    between atoms: CA_18  and  C_21
REMARK   11  A    between atoms: C_24  and  O_25
REMARK                            x       y       z     vdW  Elec       q    Type
REMARK                         _______ _______ _______ _____ _____    ______ ____
ROOT
ATOM      1  N   UNL     1       7.387  -1.743  25.056  0.00  0.00    -0.302 N 
ATOM      2  H   UNL     1       7.630  -1.007  24.392  0.00  0.00    +0.150 HD
ATOM      3  C   UNL     1       8.469  -2.405  25.606  0.00  0.00    +0.235 C 
ATOM      4  O   UNL     1       8.369  -3.058  26.643  0.00  0.00    -0.274 OA
ENDROOT
BRANCH   1   5
ATOM      5  CA  UNL     1       6.086  -1.723  25.724  0.00  0.00    +0.163 C 
BRANCH   5  11
ATOM      6  C   UNL     1       4.726  -6.373  23.703  0.00  0.00    +0.024 C 
ATOM      7  C   UNL     1       4.331  -4.915  23.948  0.00  0.00    +0.038 C 
ATOM      8  CA  UNL     1       4.837  -3.892  22.909  0.00  0.00    +0.180 C 
ATOM      9  N   UNL     1       5.139  -2.565  23.533  0.00  0.00    -0.290 NA
ATOM     10  H   UNL     1       6.048  -2.206  23.234  0.00  0.00    +0.124 HD
ATOM     11  C   UNL     1       5.027  -2.592  24.998  0.00  0.00    +0.141 C 
ATOM     12  S   UNL     1       5.136  -4.339  25.481  0.00  0.00    -0.131 S 
ATOM     13  C   UNL     1       2.806  -4.822  24.112  0.00  0.00    +0.024 C 
BRANCH   8  14
ATOM     14  C   UNL     1       6.047  -4.381  22.100  0.00  0.00    +0.323 C 
ATOM     15  OXT UNL     1       5.962  -4.954  21.026  0.00  0.00    -0.249 OA
BRANCH  14  16
ATOM     16  O   UNL     1       7.237  -4.110  22.684  0.00  0.00    -0.479 OA
ATOM     17  H   UNL     1       7.990  -4.237  22.074  0.00  0.00    +0.295 HD
ENDBRANCH  14  16
ENDBRANCH   8  14
ENDBRANCH   5  11
BRANCH   5  18
ATOM     18  C   UNL     1       5.586  -0.286  25.824  0.00  0.00    +0.247 C 
ATOM     19  O   UNL     1       5.257   0.403  24.861  0.00  0.00    -0.299 OA
ENDBRANCH   5  18
ENDBRANCH   1   5
BRANCH   3  20
ATOM     20  CA  UNL     1       9.799  -2.269  24.813  0.00  0.00    +0.168 C 
BRANCH  20  21
ATOM     21  C   UNL     1       9.936  -1.004  23.977  0.00  0.00    -0.022 A 
ATOM     22  C   UNL     1       9.667  -1.066  22.593  0.00  0.00    +0.009 A 
ATOM     23  C   UNL     1       9.737   0.072  21.789  0.00  0.00    +0.046 A 
ATOM     24  C   UNL     1      10.094   1.287  22.352  0.00  0.00    +0.117 A 
ATOM     25  C   UNL     1      10.405   1.376  23.703  0.00  0.00    +0.046 A 
ATOM     26  C   UNL     1      10.324   0.236  24.513  0.00  0.00    +0.009 A 
BRANCH  24  27
ATOM     27  O   UNL     1      10.125   2.380  21.538  0.00  0.00    -0.507 OA
ATOM     28  H   UNL     1      11.053   2.584  21.335  0.00  0.00    +0.292 HD
ENDBRANCH  24  27
ENDBRANCH  20  21
BRANCH  20  29
ATOM     29  N   UNL     1       9.972  -3.480  23.968  0.00  0.00    -0.316 NA
ATOM     30  H1  UNL     1      10.348  -3.191  23.066  0.00  0.00    +0.119 HD
ATOM     31  H2  UNL     1      10.699  -4.055  24.393  0.00  0.00    +0.119 HD
ENDBRANCH  20  29
ENDBRANCH   3  20
TORSDOF 9
ENDMDL
MODEL 7
REMARK VINA RESULT:      -6.5      2.609      3.865
REMARK  Name = 
REMARK  11 active torsions:
REMARK  status: ('A' for Active; 'I' for Inactive)
REMARK    1  A    between atoms: C_1  and  C_2
REMARK    2  A    between atoms: C_2  and  C_3
REMARK    3  A    between atoms: C_5  and  CA_13
REMARK    4  A    between atoms: CA_8  and  C_10
REMARK    5  A    between atoms: C_10  and  O_11
REMARK    6  A    between atoms: CA_13  and  N_15
REMARK    7  A    between atoms: CA_13  and  C_28
REMARK    8  A    between atoms: C_16  and  CA_18
REMARK    9  A    between atoms: CA_18  and  N_20
REMARK   10  A    between atoms: CA_18  and  C_21
REMARK   11  A    between atoms: C_24  and  O_25
REMARK                            x       y       z     vdW  Elec       q    Type
REMARK                         _______ _______ _______ _____ _____    ______ ____
ROOT
ATOM      1  N   UNL     1       8.401  -0.240  23.121  0.00  0.00    -0.302 N 
ATOM      2  H   UNL     1       7.669  -0.010  23.794  0.00  0.00    +0.150 HD
ATOM      3  C   UNL     1       8.647   0.740  22.178  0.00  0.00    +0.235 C 
ATOM      4  O   UNL     1       9.693   0.769  21.532  0.00  0.00    -0.274 OA
ENDROOT
BRANCH   1   5
ATOM      5  CA  UNL     1       9.407  -1.247  23.454  0.00  0.00    +0.163 C 
BRANCH   5  11
ATOM      6  C   UNL     1       5.817  -4.944  24.458  0.00  0.00    +0.024 C 
ATOM      7  C   UNL     1       7.123  -4.582  23.747  0.00  0.00    +0.038 C 
ATOM      8  CA  UNL     1       8.410  -4.697  24.591  0.00  0.00    +0.180 C 
ATOM      9  N   UNL     1       9.422  -3.664  24.209  0.00  0.00    -0.290 NA
ATOM     10  H   UNL     1       9.810  -3.194  25.030  0.00  0.00    +0.124 HD
ATOM     11  C   UNL     1       8.901  -2.696  23.233  0.00  0.00    +0.141 C 
ATOM     12  S   UNL     1       7.091  -2.806  23.331  0.00  0.00    -0.131 S 
ATOM     13  C   UNL     1       7.241  -5.403  22.453  0.00  0.00    +0.024 C 
BRANCH   8  14
ATOM     14  C   UNL     1       8.159  -4.656  26.106  0.00  0.00    +0.323 C 
ATOM     15  OXT UNL     1       7.870  -3.643  26.721  0.00  0.00    -0.249 OA
BRANCH  14  16
ATOM     16  O   UNL     1       8.279  -5.860  26.710  0.00  0.00    -0.479 OA
ATOM     17  H   UNL     1       7.681  -6.532  26.325  0.00  0.00    +0.295 HD
ENDBRANCH  14  16
ENDBRANCH   8  14
ENDBRANCH   5  11
BRANCH   5  18
ATOM     18  C   UNL     1       9.842  -1.074  24.905  0.00  0.00    +0.247 C 
ATOM     19  O   UNL     1       9.071  -0.891  25.843  0.00  0.00    -0.299 OA
ENDBRANCH   5  18
ENDBRANCH   1   5
BRANCH   3  20
ATOM     20  CA  UNL     1       7.505   1.780  21.993  0.00  0.00    +0.168 C 
BRANCH  20  21
ATOM     21  C   UNL     1       7.819   3.189  22.477  0.00  0.00    -0.022 A 
ATOM     22  C   UNL     1       8.895   3.381  23.370  0.00  0.00    +0.009 A 
ATOM     23  C   UNL     1       9.252   4.656  23.812  0.00  0.00    +0.046 A 
ATOM     24  C   UNL     1       8.528   5.756  23.382  0.00  0.00    +0.117 A 
ATOM     25  C   UNL     1       7.438   5.599  22.535  0.00  0.00    +0.046 A 
ATOM     26  C   UNL     1       7.087   4.321  22.082  0.00  0.00    +0.009 A 
BRANCH  24  27
ATOM     27  O   UNL     1       8.925   6.987  23.816  0.00  0.00    -0.507 OA
ATOM     28  H   UNL     1       8.131   7.521  23.983  0.00  0.00    +0.292 HD
ENDBRANCH  24  27
ENDBRANCH  20  21
BRANCH  20  29
ATOM     29  N   UNL     1       6.278   1.258  22.651  0.00  0.00    -0.316 NA
ATOM     30  H1  UNL     1       6.261   1.596  23.611  0.00  0.00    +0.119 HD
ATOM     31  H2  UNL     1       5.474   1.689  22.196  0.00  0.00    +0.119 HD
ENDBRANCH  20  29
ENDBRANCH   3  20
TORSDOF 9
ENDMDL
MODEL 8
REMARK VINA RESULT:      -6.5      2.352      3.007
REMARK  Name = 
REMARK  11 active torsions:
REMARK  status: ('A' for Active; 'I' for Inactive)
REMARK    1  A    between atoms: C_1  and  C_2
REMARK    2  A    between atoms: C_2  and  C_3
REMARK    3  A    between atoms: C_5  and  CA_13
REMARK    4  A    between atoms: CA_8  and  C_10
REMARK    5  A    between atoms: C_10  and  O_11
REMARK    6  A    between atoms: CA_13  and  N_15
REMARK    7  A    between atoms: CA_13  and  C_28
REMARK    8  A    between atoms: C_16  and  CA_18
REMARK    9  A    between atoms: CA_18  and  N_20
REMARK   10  A    between atoms: CA_18  and  C_21
REMARK   11  A    between atoms: C_24  and  O_25
REMARK                            x       y       z     vdW  Elec       q    Type
REMARK                         _______ _______ _______ _____ _____    ______ ____
ROOT
ATOM      1  N   UNL     1       8.392  -2.179  24.441  0.00  0.00    -0.302 N 
ATOM      2  H   UNL     1       8.136  -1.220  24.205  0.00  0.00    +0.150 HD
ATOM      3  C   UNL     1       9.572  -2.619  23.871  0.00  0.00    +0.235 C 
ATOM      4  O   UNL     1      10.181  -3.592  24.312  0.00  0.00    -0.274 OA
ENDROOT
BRANCH   1   5
ATOM      5  CA  UNL     1       7.850  -2.802  25.648  0.00  0.00    +0.163 C 
BRANCH   5  11
ATOM      6  C   UNL     1       3.382  -5.200  27.010  0.00  0.00    +0.024 C 
ATOM      7  C   UNL     1       4.543  -5.116  26.016  0.00  0.00    +0.038 C 
ATOM      8  CA  UNL     1       5.823  -5.887  26.403  0.00  0.00    +0.180 C 
ATOM      9  N   UNL     1       7.059  -5.191  25.924  0.00  0.00    -0.290 NA
ATOM     10  H   UNL     1       7.764  -5.127  26.661  0.00  0.00    +0.124 HD
ATOM     11  C   UNL     1       6.774  -3.875  25.336  0.00  0.00    +0.141 C 
ATOM     12  S   UNL     1       5.135  -3.392  25.950  0.00  0.00    -0.131 S 
ATOM     13  C   UNL     1       4.050  -5.536  24.623  0.00  0.00    +0.024 C 
BRANCH   8  14
ATOM     14  C   UNL     1       5.934  -6.185  27.905  0.00  0.00    +0.323 C 
ATOM     15  OXT UNL     1       6.339  -5.383  28.730  0.00  0.00    -0.249 OA
BRANCH  14  16
ATOM     16  O   UNL     1       5.528  -7.430  28.244  0.00  0.00    -0.479 OA
ATOM     17  H   UNL     1       4.764  -7.420  28.853  0.00  0.00    +0.295 HD
ENDBRANCH  14  16
ENDBRANCH   8  14
ENDBRANCH   5  11
BRANCH   5  18
ATOM     18  C   UNL     1       7.254  -1.730  26.553  0.00  0.00    +0.247 C 
ATOM     19  O   UNL     1       7.902  -0.832  27.084  0.00  0.00    -0.299 OA
ENDBRANCH   5  18
ENDBRANCH   1   5
BRANCH   3  20
ATOM     20  CA  UNL     1      10.053  -1.804  22.637  0.00  0.00    +0.168 C 
BRANCH  20  21
ATOM     21  C   UNL     1      10.177  -0.302  22.853  0.00  0.00    -0.022 A 
ATOM     22  C   UNL     1       9.772   0.573  21.823  0.00  0.00    +0.009 A 
ATOM     23  C   UNL     1       9.825   1.958  21.984  0.00  0.00    +0.046 A 
ATOM     24  C   UNL     1      10.301   2.491  23.172  0.00  0.00    +0.117 A 
ATOM     25  C   UNL     1      10.747   1.659  24.191  0.00  0.00    +0.046 A 
ATOM     26  C   UNL     1      10.683   0.268  24.034  0.00  0.00    +0.009 A 
BRANCH  24  27
ATOM     27  O   UNL     1      10.313   3.848  23.300  0.00  0.00    -0.507 OA
ATOM     28  H   UNL     1       9.485   4.121  23.729  0.00  0.00    +0.292 HD
ENDBRANCH  24  27
ENDBRANCH  20  21
BRANCH  20  29
ATOM     29  N   UNL     1       9.151  -2.099  21.493  0.00  0.00    -0.316 NA
ATOM     30  H1  UNL     1       8.329  -2.583  21.851  0.00  0.00    +0.119 HD
ATOM     31  H2  UNL     1       8.807  -1.211  21.131  0.00  0.00    +0.119 HD
ENDBRANCH  20  29
ENDBRANCH   3  20
TORSDOF 9
ENDMDL
MODEL 9
REMARK VINA RESULT:      -6.3      2.627      6.591
REMARK  Name = 
REMARK  11 active torsions:
REMARK  status: ('A' for Active; 'I' for Inactive)
REMARK    1  A    between atoms: C_1  and  C_2
REMARK    2  A    between atoms: C_2  and  C_3
REMARK    3  A    between atoms: C_5  and  CA_13
REMARK    4  A    between atoms: CA_8  and  C_10
REMARK    5  A    between atoms: C_10  and  O_11
REMARK    6  A    between atoms: CA_13  and  N_15
REMARK    7  A    between atoms: CA_13  and  C_28
REMARK    8  A    between atoms: C_16  and  CA_18
REMARK    9  A    between atoms: CA_18  and  N_20
REMARK   10  A    between atoms: CA_18  and  C_21
REMARK   11  A    between atoms: C_24  and  O_25
REMARK                            x       y       z     vdW  Elec       q    Type
REMARK                         _______ _______ _______ _____ _____    ______ ____
ROOT
ATOM      1  N   UNL     1       9.264  -1.628  24.560  0.00  0.00    -0.302 N 
ATOM      2  H   UNL     1       9.765  -1.708  23.675  0.00  0.00    +0.150 HD
ATOM      3  C   UNL     1       8.919  -2.834  25.141  0.00  0.00    +0.235 C 
ATOM      4  O   UNL     1       8.629  -2.920  26.333  0.00  0.00    -0.274 OA
ENDROOT
BRANCH   1   5
ATOM      5  CA  UNL     1       9.377  -0.404  25.354  0.00  0.00    +0.163 C 
BRANCH   5  11
ATOM      6  C   UNL     1       6.402   2.518  22.164  0.00  0.00    +0.024 C 
ATOM      7  C   UNL     1       6.666   2.041  23.594  0.00  0.00    +0.038 C 
ATOM      8  CA  UNL     1       7.720   2.839  24.391  0.00  0.00    +0.180 C 
ATOM      9  N   UNL     1       8.485   1.965  25.335  0.00  0.00    -0.290 NA
ATOM     10  H   UNL     1       9.492   2.128  25.268  0.00  0.00    +0.124 HD
ATOM     11  C   UNL     1       8.160   0.540  25.174  0.00  0.00    +0.141 C 
ATOM     12  S   UNL     1       7.409   0.376  23.529  0.00  0.00    -0.131 S 
ATOM     13  C   UNL     1       5.336   1.973  24.360  0.00  0.00    +0.024 C 
BRANCH   8  14
ATOM     14  C   UNL     1       8.690   3.635  23.506  0.00  0.00    +0.323 C 
ATOM     15  OXT UNL     1       8.684   4.851  23.411  0.00  0.00    -0.249 OA
BRANCH  14  16
ATOM     16  O   UNL     1       9.575   2.861  22.836  0.00  0.00    -0.479 OA
ATOM     17  H   UNL     1       9.137   2.243  22.219  0.00  0.00    +0.295 HD
ENDBRANCH  14  16
ENDBRANCH   8  14
ENDBRANCH   5  11
BRANCH   5  18
ATOM     18  C   UNL     1      10.656   0.333  24.976  0.00  0.00    +0.247 C 
ATOM     19  O   UNL     1      10.933   0.703  23.838  0.00  0.00    -0.299 OA
ENDBRANCH   5  18
ENDBRANCH   1   5
BRANCH   3  20
ATOM     20  CA  UNL     1       8.915  -4.054  24.176  0.00  0.00    +0.168 C 
BRANCH  20  21
ATOM     21  C   UNL     1       7.540  -4.537  23.738  0.00  0.00    -0.022 A 
ATOM     22  C   UNL     1       7.451  -5.530  22.739  0.00  0.00    +0.009 A 
ATOM     23  C   UNL     1       6.217  -6.038  22.329  0.00  0.00    +0.046 A 
ATOM     24  C   UNL     1       5.052  -5.550  22.900  0.00  0.00    +0.117 A 
ATOM     25  C   UNL     1       5.102  -4.543  23.857  0.00  0.00    +0.046 A 
ATOM     26  C   UNL     1       6.341  -4.041  24.276  0.00  0.00    +0.009 A 
BRANCH  24  27
ATOM     27  O   UNL     1       3.869  -6.090  22.492  0.00  0.00    -0.507 OA
ATOM     28  H   UNL     1       4.062  -6.875  21.953  0.00  0.00    +0.292 HD
ENDBRANCH  24  27
ENDBRANCH  20  21
BRANCH  20  29
ATOM     29  N   UNL     1       9.686  -5.158  24.807  0.00  0.00    -0.316 NA
ATOM     30  H1  UNL     1       9.138  -6.013  24.735  0.00  0.00    +0.119 HD
ATOM     31  H2  UNL     1      10.518  -5.320  24.240  0.00  0.00    +0.119 HD
ENDBRANCH  20  29
ENDBRANCH   3  20
TORSDOF 9
ENDMDL
