MODEL 1
REMARK VINA RESULT:      -7.2      0.000      0.000
REMARK  Name = 
REMARK  14 active torsions:
REMARK  status: ('A' for Active; 'I' for Inactive)
REMARK    1  A    between atoms: C_1  and  O_2
REMARK    2  A    between atoms: O_2  and  C_3
REMARK    3  A    between atoms: C_3  and  N_4
REMARK    4  A    between atoms: C_5  and  C_7
REMARK    5  A    between atoms: C_7  and  C_9
REMARK    6  A    between atoms: C_7  and  C_12
REMARK    7  A    between atoms: C_9  and  O_10
REMARK    8  A    between atoms: C_15  and  O_16
REMARK    9  A    between atoms: C_23  and  C_24
REMARK   10  A    between atoms: C_24  and  S_25
REMARK   11  A    between atoms: S_25  and  C_26
REMARK   12  A    between atoms: N_30  and  C_31
REMARK   13  A    between atoms: C_32  and  C_36
REMARK   14  A    between atoms: C_36  and  O_37
REMARK                            x       y       z     vdW  Elec       q    Type
REMARK                         _______ _______ _______ _____ _____    ______ ____
ROOT
ATOM      1  C   UNL     1       8.880  -3.634  24.558  0.00  0.00    +0.258 C 
ATOM      2  C   UNL     1       7.851  -4.181  23.456  0.00  0.00    +0.277 C 
ATOM      3  O   UNL     1       7.713  -4.207  22.252  0.00  0.00    -0.270 OA
ATOM      4  N   UNL     1       6.938  -4.495  24.409  0.00  0.00    -0.230 N 
ATOM      5  C   UNL     1       5.562  -4.402  24.402  0.00  0.00    +0.125 C 
ATOM      6  C   UNL     1       4.927  -3.851  25.478  0.00  0.00    -0.006 C 
ATOM      7  C   UNL     1       5.725  -3.291  26.649  0.00  0.00    +0.196 C 
ATOM      8  O   UNL     1       7.060  -2.960  26.273  0.00  0.00    -0.349 OA
ATOM      9  C   UNL     1       7.701  -4.016  25.544  0.00  0.00    +0.273 C 
ENDROOT
BRANCH   1  10
ATOM     10  N   UNL     1       9.108  -2.160  24.461  0.00  0.00    -0.276 N 
ATOM     11  H   UNL     1       8.636  -1.546  25.119  0.00  0.00    +0.152 HD
ATOM     12  C   UNL     1       9.874  -1.607  23.465  0.00  0.00    +0.234 C 
ATOM     13  O   UNL     1      10.460  -2.292  22.627  0.00  0.00    -0.274 OA
BRANCH  12  14
ATOM     14  C   UNL     1       9.965  -0.090  23.404  0.00  0.00    +0.213 C 
BRANCH  14  15
ATOM     15  C   UNL     1       8.627   0.583  23.111  0.00  0.00    -0.025 A 
ATOM     16  C   UNL     1       7.468   0.323  23.859  0.00  0.00    +0.008 A 
ATOM     17  C   UNL     1       6.288   1.034  23.613  0.00  0.00    +0.046 A 
ATOM     18  C   UNL     1       6.255   2.000  22.618  0.00  0.00    +0.117 A 
ATOM     19  C   UNL     1       7.374   2.239  21.829  0.00  0.00    +0.046 A 
ATOM     20  C   UNL     1       8.551   1.527  22.069  0.00  0.00    +0.008 A 
BRANCH  18  21
ATOM     21  O   UNL     1       5.101   2.708  22.453  0.00  0.00    -0.507 OA
ATOM     22  H   UNL     1       4.350   2.096  22.522  0.00  0.00    +0.292 HD
ENDBRANCH  18  21
ENDBRANCH  14  15
BRANCH  14  23
ATOM     23  C   UNL     1      10.699   0.491  24.592  0.00  0.00    +0.321 C 
ATOM     24  O   UNL     1      11.763   1.089  24.515  0.00  0.00    -0.250 OA
BRANCH  23  25
ATOM     25  O   UNL     1      10.112   0.235  25.787  0.00  0.00    -0.480 OA
ATOM     26  H   UNL     1       9.173   0.504  25.857  0.00  0.00    +0.295 HD
ENDBRANCH  23  25
ENDBRANCH  14  23
ENDBRANCH  12  14
ENDBRANCH   1  10
BRANCH   1  28
ATOM     27  C   UNL     1      10.106  -5.418  25.705  0.00  0.00    +0.197 C 
ATOM     28  O   UNL     1      10.086  -4.437  24.678  0.00  0.00    -0.348 OA
ENDBRANCH   1  28
BRANCH   5  29
ATOM     29  C   UNL     1       4.784  -5.031  23.264  0.00  0.00    +0.351 C 
ATOM     30  O   UNL     1       4.039  -4.395  22.537  0.00  0.00    -0.244 OA
BRANCH  29  31
ATOM     31  O   UNL     1       4.901  -6.362  23.099  0.00  0.00    -0.476 OA
ATOM     32  H   UNL     1       4.076  -6.893  23.022  0.00  0.00    +0.295 HD
ENDBRANCH  29  31
ENDBRANCH   5  29
BRANCH   6  33
ATOM     33  C   UNL     1       3.424  -3.762  25.693  0.00  0.00    +0.112 C 
BRANCH  33  34
ATOM     34  S   UNL     1       2.834  -5.056  26.838  0.00  0.00    -0.080 S 
BRANCH  34  35
ATOM     35  C   UNL     1       2.802  -6.422  25.780  0.00  0.00    +0.209 A 
ATOM     36  N   UNL     1       1.851  -6.628  24.825  0.00  0.00    -0.223 N 
ATOM     37  C   UNL     1       0.682  -5.859  24.506  0.00  0.00    +0.177 C 
ATOM     38  N   UNL     1       2.122  -7.766  24.160  0.00  0.00    -0.043 NA
ATOM     39  N   UNL     1       3.232  -8.235  24.715  0.00  0.00    -0.022 NA
ATOM     40  N   UNL     1       3.660  -7.416  25.734  0.00  0.00    -0.102 NA
ENDBRANCH  34  35
ENDBRANCH  33  34
ENDBRANCH   6  33
TORSDOF 12
ENDMDL
MODEL 2
REMARK VINA RESULT:      -7.2      2.299      3.442
REMARK  Name = 
REMARK  14 active torsions:
REMARK  status: ('A' for Active; 'I' for Inactive)
REMARK    1  A    between atoms: C_1  and  O_2
REMARK    2  A    between atoms: O_2  and  C_3
REMARK    3  A    between atoms: C_3  and  N_4
REMARK    4  A    between atoms: C_5  and  C_7
REMARK    5  A    between atoms: C_7  and  C_9
REMARK    6  A    between atoms: C_7  and  C_12
REMARK    7  A    between atoms: C_9  and  O_10
REMARK    8  A    between atoms: C_15  and  O_16
REMARK    9  A    between atoms: C_23  and  C_24
REMARK   10  A    between atoms: C_24  and  S_25
REMARK   11  A    between atoms: S_25  and  C_26
REMARK   12  A    between atoms: N_30  and  C_31
REMARK   13  A    between atoms: C_32  and  C_36
REMARK   14  A    between atoms: C_36  and  O_37
REMARK                            x       y       z     vdW  Elec       q    Type
REMARK                         _______ _______ _______ _____ _____    ______ ____
ROOT
ATOM      1  C   UNL     1       7.902  -4.362  25.162  0.00  0.00    +0.258 C 
ATOM      2  C   UNL     1       6.630  -4.930  24.368  0.00  0.00    +0.277 C 
ATOM      3  O   UNL     1       6.007  -4.720  23.349  0.00  0.00    -0.270 OA
ATOM      4  N   UNL     1       6.279  -5.717  25.416  0.00  0.00    -0.230 N 
ATOM      5  C   UNL     1       5.037  -6.050  25.915  0.00  0.00    +0.125 C 
ATOM      6  C   UNL     1       4.822  -5.980  27.261  0.00  0.00    -0.006 C 
ATOM      7  C   UNL     1       5.916  -5.487  28.200  0.00  0.00    +0.196 C 
ATOM      8  O   UNL     1       6.879  -4.687  27.519  0.00  0.00    -0.349 OA
ATOM      9  C   UNL     1       7.342  -5.301  26.308  0.00  0.00    +0.273 C 
ENDROOT
BRANCH   1  10
ATOM     10  N   UNL     1       7.785  -2.908  25.486  0.00  0.00    -0.276 N 
ATOM     11  H   UNL     1       7.569  -2.634  26.441  0.00  0.00    +0.152 HD
ATOM     12  C   UNL     1       7.886  -1.937  24.520  0.00  0.00    +0.234 C 
ATOM     13  O   UNL     1       8.131  -2.201  23.344  0.00  0.00    -0.274 OA
BRANCH  12  14
ATOM     14  C   UNL     1       7.658  -0.494  24.944  0.00  0.00    +0.213 C 
BRANCH  14  15
ATOM     15  C   UNL     1       8.564   0.497  24.220  0.00  0.00    -0.025 A 
ATOM     16  C   UNL     1       8.121   1.282  23.143  0.00  0.00    +0.008 A 
ATOM     17  C   UNL     1       8.960   2.245  22.571  0.00  0.00    +0.046 A 
ATOM     18  C   UNL     1      10.245   2.425  23.063  0.00  0.00    +0.117 A 
ATOM     19  C   UNL     1      10.725   1.625  24.093  0.00  0.00    +0.046 A 
ATOM     20  C   UNL     1       9.891   0.659  24.662  0.00  0.00    +0.008 A 
BRANCH  18  21
ATOM     21  O   UNL     1      11.007   3.413  22.513  0.00  0.00    -0.507 OA
ATOM     22  H   UNL     1      10.558   4.263  22.655  0.00  0.00    +0.292 HD
ENDBRANCH  18  21
ENDBRANCH  14  15
BRANCH  14  23
ATOM     23  C   UNL     1       6.195  -0.114  24.930  0.00  0.00    +0.321 C 
ATOM     24  O   UNL     1       5.746   0.905  25.435  0.00  0.00    -0.250 OA
BRANCH  23  25
ATOM     25  O   UNL     1       5.385  -1.042  24.362  0.00  0.00    -0.480 OA
ATOM     26  H   UNL     1       5.795  -1.576  23.653  0.00  0.00    +0.295 HD
ENDBRANCH  23  25
ENDBRANCH  14  23
ENDBRANCH  12  14
ENDBRANCH   1  10
BRANCH   1  28
ATOM     27  C   UNL     1      10.193  -5.167  25.490  0.00  0.00    +0.197 C 
ATOM     28  O   UNL     1       9.175  -4.764  24.586  0.00  0.00    -0.348 OA
ENDBRANCH   1  28
BRANCH   5  29
ATOM     29  C   UNL     1       3.988  -6.609  24.975  0.00  0.00    +0.351 C 
ATOM     30  O   UNL     1       3.841  -7.805  24.780  0.00  0.00    -0.244 OA
BRANCH  29  31
ATOM     31  O   UNL     1       3.227  -5.725  24.303  0.00  0.00    -0.476 OA
ATOM     32  H   UNL     1       2.558  -5.211  24.810  0.00  0.00    +0.295 HD
ENDBRANCH  29  31
ENDBRANCH   5  29
BRANCH   6  33
ATOM     33  C   UNL     1       3.560  -6.407  27.998  0.00  0.00    +0.112 C 
BRANCH  33  34
ATOM     34  S   UNL     1       2.681  -4.972  28.706  0.00  0.00    -0.080 S 
BRANCH  34  35
ATOM     35  C   UNL     1       2.571  -3.952  27.314  0.00  0.00    +0.209 A 
ATOM     36  N   UNL     1       3.333  -2.838  27.121  0.00  0.00    -0.223 N 
ATOM     37  C   UNL     1       4.311  -2.229  27.976  0.00  0.00    +0.177 C 
ATOM     38  N   UNL     1       3.022  -2.282  25.936  0.00  0.00    -0.043 NA
ATOM     39  N   UNL     1       2.079  -3.064  25.424  0.00  0.00    -0.022 NA
ATOM     40  N   UNL     1       1.779  -4.101  26.277  0.00  0.00    -0.102 NA
ENDBRANCH  34  35
ENDBRANCH  33  34
ENDBRANCH   6  33
TORSDOF 12
ENDMDL
MODEL 3
REMARK VINA RESULT:      -7.2      2.705      3.995
REMARK  Name = 
REMARK  14 active torsions:
REMARK  status: ('A' for Active; 'I' for Inactive)
REMARK    1  A    between atoms: C_1  and  O_2
REMARK    2  A    between atoms: O_2  and  C_3
REMARK    3  A    between atoms: C_3  and  N_4
REMARK    4  A    between atoms: C_5  and  C_7
REMARK    5  A    between atoms: C_7  and  C_9
REMARK    6  A    between atoms: C_7  and  C_12
REMARK    7  A    between atoms: C_9  and  O_10
REMARK    8  A    between atoms: C_15  and  O_16
REMARK    9  A    between atoms: C_23  and  C_24
REMARK   10  A    between atoms: C_24  and  S_25
REMARK   11  A    between atoms: S_25  and  C_26
REMARK   12  A    between atoms: N_30  and  C_31
REMARK   13  A    between atoms: C_32  and  C_36
REMARK   14  A    between atoms: C_36  and  O_37
REMARK                            x       y       z     vdW  Elec       q    Type
REMARK                         _______ _______ _______ _____ _____    ______ ____
ROOT
ATOM      1  C   UNL     1       7.533  -0.690  26.225  0.00  0.00    +0.258 C 
ATOM      2  C   UNL     1       8.160  -2.156  26.049  0.00  0.00    +0.277 C 
ATOM      3  O   UNL     1       9.165  -2.687  25.629  0.00  0.00    -0.270 OA
ATOM      4  N   UNL     1       6.983  -2.741  26.385  0.00  0.00    -0.230 N 
ATOM      5  C   UNL     1       6.374  -3.880  25.901  0.00  0.00    +0.125 C 
ATOM      6  C   UNL     1       5.047  -3.840  25.583  0.00  0.00    -0.006 C 
ATOM      7  C   UNL     1       4.256  -2.542  25.704  0.00  0.00    +0.196 C 
ATOM      8  O   UNL     1       5.105  -1.398  25.668  0.00  0.00    -0.349 OA
ATOM      9  C   UNL     1       6.225  -1.519  26.556  0.00  0.00    +0.273 C 
ENDROOT
BRANCH   1  10
ATOM     10  N   UNL     1       7.440   0.062  24.937  0.00  0.00    -0.276 N 
ATOM     11  H   UNL     1       6.536   0.140  24.478  0.00  0.00    +0.152 HD
ATOM     12  C   UNL     1       8.549   0.586  24.319  0.00  0.00    +0.234 C 
ATOM     13  O   UNL     1       9.674   0.514  24.812  0.00  0.00    -0.274 OA
BRANCH  12  14
ATOM     14  C   UNL     1       8.353   1.252  22.966  0.00  0.00    +0.213 C 
BRANCH  14  15
ATOM     15  C   UNL     1       8.171   2.764  23.058  0.00  0.00    -0.025 A 
ATOM     16  C   UNL     1       8.959   3.573  23.892  0.00  0.00    +0.008 A 
ATOM     17  C   UNL     1       8.818   4.965  23.873  0.00  0.00    +0.046 A 
ATOM     18  C   UNL     1       7.887   5.556  23.031  0.00  0.00    +0.117 A 
ATOM     19  C   UNL     1       7.059   4.774  22.235  0.00  0.00    +0.046 A 
ATOM     20  C   UNL     1       7.194   3.384  22.256  0.00  0.00    +0.008 A 
BRANCH  18  21
ATOM     21  O   UNL     1       7.825   6.918  23.004  0.00  0.00    -0.507 OA
ATOM     22  H   UNL     1       7.009   7.199  23.450  0.00  0.00    +0.292 HD
ENDBRANCH  18  21
ENDBRANCH  14  15
BRANCH  14  23
ATOM     23  C   UNL     1       9.392   0.818  21.955  0.00  0.00    +0.321 C 
ATOM     24  O   UNL     1       9.580  -0.343  21.621  0.00  0.00    -0.250 OA
BRANCH  23  25
ATOM     25  O   UNL     1      10.166   1.828  21.485  0.00  0.00    -0.480 OA
ATOM     26  H   UNL     1       9.771   2.720  21.549  0.00  0.00    +0.295 HD
ENDBRANCH  23  25
ENDBRANCH  14  23
ENDBRANCH  12  14
ENDBRANCH   1  10
BRANCH   1  28
ATOM     27  C   UNL     1       7.193   0.734  28.190  0.00  0.00    +0.197 C 
ATOM     28  O   UNL     1       8.103   0.057  27.335  0.00  0.00    -0.348 OA
ENDBRANCH   1  28
BRANCH   5  29
ATOM     29  C   UNL     1       7.157  -5.177  25.859  0.00  0.00    +0.351 C 
ATOM     30  O   UNL     1       7.097  -6.017  26.742  0.00  0.00    -0.244 OA
BRANCH  29  31
ATOM     31  O   UNL     1       7.982  -5.366  24.813  0.00  0.00    -0.476 OA
ATOM     32  H   UNL     1       7.808  -6.130  24.218  0.00  0.00    +0.295 HD
ENDBRANCH  29  31
ENDBRANCH   5  29
BRANCH   6  33
ATOM     33  C   UNL     1       4.188  -5.015  25.141  0.00  0.00    +0.112 C 
BRANCH  33  34
ATOM     34  S   UNL     1       3.793  -4.922  23.360  0.00  0.00    -0.080 S 
BRANCH  34  35
ATOM     35  C   UNL     1       5.359  -5.179  22.677  0.00  0.00    +0.209 A 
ATOM     36  N   UNL     1       6.187  -4.177  22.265  0.00  0.00    -0.223 N 
ATOM     37  C   UNL     1       5.975  -2.758  22.235  0.00  0.00    +0.177 C 
ATOM     38  N   UNL     1       7.335  -4.705  21.803  0.00  0.00    -0.043 NA
ATOM     39  N   UNL     1       7.193  -6.017  21.943  0.00  0.00    -0.022 NA
ATOM     40  N   UNL     1       5.962  -6.328  22.473  0.00  0.00    -0.102 NA
ENDBRANCH  34  35
ENDBRANCH  33  34
ENDBRANCH   6  33
TORSDOF 12
ENDMDL
MODEL 4
REMARK VINA RESULT:      -7.2      3.175      8.104
REMARK  Name = 
REMARK  14 active torsions:
REMARK  status: ('A' for Active; 'I' for Inactive)
REMARK    1  A    between atoms: C_1  and  O_2
REMARK    2  A    between atoms: O_2  and  C_3
REMARK    3  A    between atoms: C_3  and  N_4
REMARK    4  A    between atoms: C_5  and  C_7
REMARK    5  A    between atoms: C_7  and  C_9
REMARK    6  A    between atoms: C_7  and  C_12
REMARK    7  A    between atoms: C_9  and  O_10
REMARK    8  A    between atoms: C_15  and  O_16
REMARK    9  A    between atoms: C_23  and  C_24
REMARK   10  A    between atoms: C_24  and  S_25
REMARK   11  A    between atoms: S_25  and  C_26
REMARK   12  A    between atoms: N_30  and  C_31
REMARK   13  A    between atoms: C_32  and  C_36
REMARK   14  A    between atoms: C_36  and  O_37
REMARK                            x       y       z     vdW  Elec       q    Type
REMARK                         _______ _______ _______ _____ _____    ______ ____
ROOT
ATOM      1  C   UNL     1       8.341  -3.713  24.165  0.00  0.00    +0.258 C 
ATOM      2  C   UNL     1       8.898  -2.551  25.121  0.00  0.00    +0.277 C 
ATOM      3  O   UNL     1       8.760  -2.139  26.252  0.00  0.00    -0.270 OA
ATOM      4  N   UNL     1       9.532  -1.949  24.083  0.00  0.00    -0.230 N 
ATOM      5  C   UNL     1       9.711  -0.613  23.792  0.00  0.00    +0.125 C 
ATOM      6  C   UNL     1       9.472  -0.172  22.522  0.00  0.00    -0.006 C 
ATOM      7  C   UNL     1       8.958  -1.126  21.451  0.00  0.00    +0.196 C 
ATOM      8  O   UNL     1       8.317  -2.266  22.018  0.00  0.00    -0.349 OA
ATOM      9  C   UNL     1       9.098  -2.873  23.056  0.00  0.00    +0.273 C 
ENDROOT
BRANCH   1  10
ATOM     10  N   UNL     1       6.855  -3.679  24.013  0.00  0.00    -0.276 N 
ATOM     11  H   UNL     1       6.459  -3.387  23.124  0.00  0.00    +0.152 HD
ATOM     12  C   UNL     1       6.011  -3.958  25.059  0.00  0.00    +0.234 C 
ATOM     13  O   UNL     1       6.424  -4.303  26.166  0.00  0.00    -0.274 OA
BRANCH  12  14
ATOM     14  C   UNL     1       4.517  -3.804  24.820  0.00  0.00    +0.213 C 
BRANCH  14  15
ATOM     15  C   UNL     1       3.843  -5.093  24.359  0.00  0.00    -0.025 A 
ATOM     16  C   UNL     1       4.179  -6.352  24.881  0.00  0.00    +0.008 A 
ATOM     17  C   UNL     1       3.469  -7.495  24.494  0.00  0.00    +0.046 A 
ATOM     18  C   UNL     1       2.429  -7.390  23.582  0.00  0.00    +0.117 A 
ATOM     19  C   UNL     1       2.112  -6.163  23.012  0.00  0.00    +0.046 A 
ATOM     20  C   UNL     1       2.822  -5.022  23.392  0.00  0.00    +0.008 A 
BRANCH  18  21
ATOM     21  O   UNL     1       1.728  -8.520  23.280  0.00  0.00    -0.507 OA
ATOM     22  H   UNL     1       1.984  -9.218  23.905  0.00  0.00    +0.292 HD
ENDBRANCH  18  21
ENDBRANCH  14  15
BRANCH  14  23
ATOM     23  C   UNL     1       3.816  -3.123  25.975  0.00  0.00    +0.321 C 
ATOM     24  O   UNL     1       3.258  -2.038  25.895  0.00  0.00    -0.250 OA
BRANCH  23  25
ATOM     25  O   UNL     1       3.914  -3.787  27.154  0.00  0.00    -0.480 OA
ATOM     26  H   UNL     1       4.636  -4.445  27.204  0.00  0.00    +0.295 HD
ENDBRANCH  23  25
ENDBRANCH  14  23
ENDBRANCH  12  14
ENDBRANCH   1  10
BRANCH   1  28
ATOM     27  C   UNL     1       9.840  -5.102  25.517  0.00  0.00    +0.197 C 
ATOM     28  O   UNL     1       8.902  -5.023  24.454  0.00  0.00    -0.348 OA
ENDBRANCH   1  28
BRANCH   5  29
ATOM     29  C   UNL     1      10.293   0.303  24.850  0.00  0.00    +0.351 C 
ATOM     30  O   UNL     1      11.461   0.657  24.852  0.00  0.00    -0.244 OA
BRANCH  29  31
ATOM     31  O   UNL     1       9.475   0.694  25.845  0.00  0.00    -0.476 OA
ATOM     32  H   UNL     1       9.405   1.657  26.035  0.00  0.00    +0.295 HD
ENDBRANCH  29  31
ENDBRANCH   5  29
BRANCH   6  33
ATOM     33  C   UNL     1       9.715   1.234  21.993  0.00  0.00    +0.112 C 
BRANCH  33  34
ATOM     34  S   UNL     1       8.159   2.182  21.872  0.00  0.00    -0.080 S 
BRANCH  34  35
ATOM     35  C   UNL     1       7.868   2.524  23.541  0.00  0.00    +0.209 A 
ATOM     36  N   UNL     1       8.518   3.493  24.248  0.00  0.00    -0.223 N 
ATOM     37  C   UNL     1       9.572   4.379  23.845  0.00  0.00    +0.177 C 
ATOM     38  N   UNL     1       8.049   3.519  25.509  0.00  0.00    -0.043 NA
ATOM     39  N   UNL     1       7.123   2.570  25.553  0.00  0.00    -0.022 NA
ATOM     40  N   UNL     1       7.008   1.933  24.338  0.00  0.00    -0.102 NA
ENDBRANCH  34  35
ENDBRANCH  33  34
ENDBRANCH   6  33
TORSDOF 12
ENDMDL
MODEL 5
REMARK VINA RESULT:      -7.1      2.634      3.764
REMARK  Name = 
REMARK  14 active torsions:
REMARK  status: ('A' for Active; 'I' for Inactive)
REMARK    1  A    between atoms: C_1  and  O_2
REMARK    2  A    between atoms: O_2  and  C_3
REMARK    3  A    between atoms: C_3  and  N_4
REMARK    4  A    between atoms: C_5  and  C_7
REMARK    5  A    between atoms: C_7  and  C_9
REMARK    6  A    between atoms: C_7  and  C_12
REMARK    7  A    between atoms: C_9  and  O_10
REMARK    8  A    between atoms: C_15  and  O_16
REMARK    9  A    between atoms: C_23  and  C_24
REMARK   10  A    between atoms: C_24  and  S_25
REMARK   11  A    between atoms: S_25  and  C_26
REMARK   12  A    between atoms: N_30  and  C_31
REMARK   13  A    between atoms: C_32  and  C_36
REMARK   14  A    between atoms: C_36  and  O_37
REMARK                            x       y       z     vdW  Elec       q    Type
REMARK                         _______ _______ _______ _____ _____    ______ ____
ROOT
ATOM      1  C   UNL     1       8.463  -2.511  23.661  0.00  0.00    +0.258 C 
ATOM      2  C   UNL     1       7.600  -3.407  22.649  0.00  0.00    +0.277 C 
ATOM      3  O   UNL     1       7.056  -3.319  21.570  0.00  0.00    -0.270 OA
ATOM      4  N   UNL     1       7.472  -4.394  23.572  0.00  0.00    -0.230 N 
ATOM      5  C   UNL     1       6.409  -5.225  23.858  0.00  0.00    +0.125 C 
ATOM      6  C   UNL     1       6.042  -5.410  25.160  0.00  0.00    -0.006 C 
ATOM      7  C   UNL     1       6.755  -4.667  26.283  0.00  0.00    +0.196 C 
ATOM      8  O   UNL     1       7.402  -3.487  25.812  0.00  0.00    -0.349 OA
ATOM      9  C   UNL     1       8.191  -3.727  24.638  0.00  0.00    +0.273 C 
ENDROOT
BRANCH   1  10
ATOM     10  N   UNL     1       7.761  -1.259  24.074  0.00  0.00    -0.276 N 
ATOM     11  H   UNL     1       6.906  -0.993  23.591  0.00  0.00    +0.152 HD
ATOM     12  C   UNL     1       8.273  -0.420  25.032  0.00  0.00    +0.234 C 
ATOM     13  O   UNL     1       9.311  -0.674  25.644  0.00  0.00    -0.274 OA
BRANCH  12  14
ATOM     14  C   UNL     1       7.525   0.875  25.310  0.00  0.00    +0.213 C 
BRANCH  14  15
ATOM     15  C   UNL     1       8.289   2.120  24.871  0.00  0.00    -0.025 A 
ATOM     16  C   UNL     1       9.319   2.080  23.917  0.00  0.00    +0.008 A 
ATOM     17  C   UNL     1       9.927   3.261  23.477  0.00  0.00    +0.046 A 
ATOM     18  C   UNL     1       9.518   4.484  23.989  0.00  0.00    +0.117 A 
ATOM     19  C   UNL     1       8.537   4.546  24.971  0.00  0.00    +0.046 A 
ATOM     20  C   UNL     1       7.933   3.368  25.416  0.00  0.00    +0.008 A 
BRANCH  18  21
ATOM     21  O   UNL     1      10.098   5.612  23.488  0.00  0.00    -0.507 OA
ATOM     22  H   UNL     1      10.289   5.469  22.546  0.00  0.00    +0.292 HD
ENDBRANCH  18  21
ENDBRANCH  14  15
BRANCH  14  23
ATOM     23  C   UNL     1       6.093   0.827  24.825  0.00  0.00    +0.321 C 
ATOM     24  O   UNL     1       5.158   0.401  25.488  0.00  0.00    -0.250 OA
BRANCH  23  25
ATOM     25  O   UNL     1       5.927   1.239  23.543  0.00  0.00    -0.480 OA
ATOM     26  H   UNL     1       5.665   0.540  22.911  0.00  0.00    +0.295 HD
ENDBRANCH  23  25
ENDBRANCH  14  23
ENDBRANCH  12  14
ENDBRANCH   1  10
BRANCH   1  28
ATOM     27  C   UNL     1      10.091  -1.406  22.201  0.00  0.00    +0.197 C 
ATOM     28  O   UNL     1       9.846  -2.334  23.247  0.00  0.00    -0.348 OA
ENDBRANCH   1  28
BRANCH   5  29
ATOM     29  C   UNL     1       5.762  -6.012  22.736  0.00  0.00    +0.351 C 
ATOM     30  O   UNL     1       4.645  -5.766  22.310  0.00  0.00    -0.244 OA
BRANCH  29  31
ATOM     31  O   UNL     1       6.453  -7.052  22.234  0.00  0.00    -0.476 OA
ATOM     32  H   UNL     1       6.876  -7.675  22.868  0.00  0.00    +0.295 HD
ENDBRANCH  29  31
ENDBRANCH   5  29
BRANCH   6  33
ATOM     33  C   UNL     1       4.973  -6.365  25.670  0.00  0.00    +0.112 C 
BRANCH  33  34
ATOM     34  S   UNL     1       4.092  -5.674  27.113  0.00  0.00    -0.080 S 
BRANCH  34  35
ATOM     35  C   UNL     1       5.121  -6.206  28.395  0.00  0.00    +0.209 A 
ATOM     36  N   UNL     1       5.261  -5.553  29.584  0.00  0.00    -0.223 N 
ATOM     37  C   UNL     1       4.684  -4.319  30.032  0.00  0.00    +0.177 C 
ATOM     38  N   UNL     1       6.114  -6.233  30.371  0.00  0.00    -0.043 NA
ATOM     39  N   UNL     1       6.480  -7.288  29.654  0.00  0.00    -0.022 NA
ATOM     40  N   UNL     1       5.879  -7.278  28.416  0.00  0.00    -0.102 NA
ENDBRANCH  34  35
ENDBRANCH  33  34
ENDBRANCH   6  33
TORSDOF 12
ENDMDL
MODEL 6
REMARK VINA RESULT:      -7.1      3.182      7.921
REMARK  Name = 
REMARK  14 active torsions:
REMARK  status: ('A' for Active; 'I' for Inactive)
REMARK    1  A    between atoms: C_1  and  O_2
REMARK    2  A    between atoms: O_2  and  C_3
REMARK    3  A    between atoms: C_3  and  N_4
REMARK    4  A    between atoms: C_5  and  C_7
REMARK    5  A    between atoms: C_7  and  C_9
REMARK    6  A    between atoms: C_7  and  C_12
REMARK    7  A    between atoms: C_9  and  O_10
REMARK    8  A    between atoms: C_15  and  O_16
REMARK    9  A    between atoms: C_23  and  C_24
REMARK   10  A    between atoms: C_24  and  S_25
REMARK   11  A    between atoms: S_25  and  C_26
REMARK   12  A    between atoms: N_30  and  C_31
REMARK   13  A    between atoms: C_32  and  C_36
REMARK   14  A    between atoms: C_36  and  O_37
REMARK                            x       y       z     vdW  Elec       q    Type
REMARK                         _______ _______ _______ _____ _____    ______ ____
ROOT
ATOM      1  C   UNL     1       9.136  -3.358  24.376  0.00  0.00    +0.258 C 
ATOM      2  C   UNL     1       9.292  -2.001  25.217  0.00  0.00    +0.277 C 
ATOM      3  O   UNL     1       9.012  -1.552  26.307  0.00  0.00    -0.270 OA
ATOM      4  N   UNL     1       9.730  -1.329  24.122  0.00  0.00    -0.230 N 
ATOM      5  C   UNL     1       9.494  -0.034  23.709  0.00  0.00    +0.125 C 
ATOM      6  C   UNL     1       9.156   0.196  22.407  0.00  0.00    -0.006 C 
ATOM      7  C   UNL     1       8.980  -0.961  21.432  0.00  0.00    +0.196 C 
ATOM      8  O   UNL     1       8.709  -2.188  22.106  0.00  0.00    -0.349 OA
ATOM      9  C   UNL     1       9.620  -2.430  23.188  0.00  0.00    +0.273 C 
ENDROOT
BRANCH   1  10
ATOM     10  N   UNL     1       7.715  -3.797  24.236  0.00  0.00    -0.276 N 
ATOM     11  H   UNL     1       6.988  -3.265  24.708  0.00  0.00    +0.152 HD
ATOM     12  C   UNL     1       7.370  -4.937  23.553  0.00  0.00    +0.234 C 
ATOM     13  O   UNL     1       8.201  -5.635  22.973  0.00  0.00    -0.274 OA
BRANCH  12  14
ATOM     14  C   UNL     1       5.903  -5.341  23.551  0.00  0.00    +0.213 C 
BRANCH  14  15
ATOM     15  C   UNL     1       5.415  -5.848  24.904  0.00  0.00    -0.025 A 
ATOM     16  C   UNL     1       4.333  -6.734  25.036  0.00  0.00    +0.008 A 
ATOM     17  C   UNL     1       3.981  -7.245  26.290  0.00  0.00    +0.046 A 
ATOM     18  C   UNL     1       4.698  -6.871  27.418  0.00  0.00    +0.117 A 
ATOM     19  C   UNL     1       5.739  -5.956  27.320  0.00  0.00    +0.046 A 
ATOM     20  C   UNL     1       6.089  -5.440  26.071  0.00  0.00    +0.008 A 
BRANCH  18  21
ATOM     21  O   UNL     1       4.356  -7.439  28.610  0.00  0.00    -0.507 OA
ATOM     22  H   UNL     1       3.904  -8.280  28.432  0.00  0.00    +0.292 HD
ENDBRANCH  18  21
ENDBRANCH  14  15
BRANCH  14  23
ATOM     23  C   UNL     1       5.016  -4.284  22.932  0.00  0.00    +0.321 C 
ATOM     24  O   UNL     1       3.795  -4.348  22.898  0.00  0.00    -0.250 OA
BRANCH  23  25
ATOM     25  O   UNL     1       5.692  -3.266  22.343  0.00  0.00    -0.480 OA
ATOM     26  H   UNL     1       6.462  -2.932  22.844  0.00  0.00    +0.295 HD
ENDBRANCH  23  25
ENDBRANCH  14  23
ENDBRANCH  12  14
ENDBRANCH   1  10
BRANCH   1  28
ATOM     27  C   UNL     1       9.843  -5.012  26.041  0.00  0.00    +0.197 C 
ATOM     28  O   UNL     1      10.066  -4.402  24.778  0.00  0.00    -0.348 OA
ENDBRANCH   1  28
BRANCH   5  29
ATOM     29  C   UNL     1       9.747   1.108  24.673  0.00  0.00    +0.351 C 
ATOM     30  O   UNL     1      10.707   1.855  24.580  0.00  0.00    -0.244 OA
BRANCH  29  31
ATOM     31  O   UNL     1       8.884   1.254  25.695  0.00  0.00    -0.476 OA
ATOM     32  H   UNL     1       8.369   2.092  25.750  0.00  0.00    +0.295 HD
ENDBRANCH  29  31
ENDBRANCH   5  29
BRANCH   6  33
ATOM     33  C   UNL     1       8.965   1.555  21.749  0.00  0.00    +0.112 C 
BRANCH  33  34
ATOM     34  S   UNL     1       7.197   1.987  21.605  0.00  0.00    -0.080 S 
BRANCH  34  35
ATOM     35  C   UNL     1       6.827   2.352  23.253  0.00  0.00    +0.209 A 
ATOM     36  N   UNL     1       7.147   3.528  23.866  0.00  0.00    -0.223 N 
ATOM     37  C   UNL     1       7.870   4.662  23.367  0.00  0.00    +0.177 C 
ATOM     38  N   UNL     1       6.703   3.506  25.136  0.00  0.00    -0.043 NA
ATOM     39  N   UNL     1       6.118   2.324  25.278  0.00  0.00    -0.022 NA
ATOM     40  N   UNL     1       6.199   1.589  24.117  0.00  0.00    -0.102 NA
ENDBRANCH  34  35
ENDBRANCH  33  34
ENDBRANCH   6  33
TORSDOF 12
ENDMDL
MODEL 7
REMARK VINA RESULT:      -7.1      2.626      3.861
REMARK  Name = 
REMARK  14 active torsions:
REMARK  status: ('A' for Active; 'I' for Inactive)
REMARK    1  A    between atoms: C_1  and  O_2
REMARK    2  A    between atoms: O_2  and  C_3
REMARK    3  A    between atoms: C_3  and  N_4
REMARK    4  A    between atoms: C_5  and  C_7
REMARK    5  A    between atoms: C_7  and  C_9
REMARK    6  A    between atoms: C_7  and  C_12
REMARK    7  A    between atoms: C_9  and  O_10
REMARK    8  A    between atoms: C_15  and  O_16
REMARK    9  A    between atoms: C_23  and  C_24
REMARK   10  A    between atoms: C_24  and  S_25
REMARK   11  A    between atoms: S_25  and  C_26
REMARK   12  A    between atoms: N_30  and  C_31
REMARK   13  A    between atoms: C_32  and  C_36
REMARK   14  A    between atoms: C_36  and  O_37
REMARK                            x       y       z     vdW  Elec       q    Type
REMARK                         _______ _______ _______ _____ _____    ______ ____
ROOT
ATOM      1  C   UNL     1       8.645  -1.250  23.886  0.00  0.00    +0.258 C 
ATOM      2  C   UNL     1       7.786  -2.353  23.100  0.00  0.00    +0.277 C 
ATOM      3  O   UNL     1       7.558  -2.711  21.965  0.00  0.00    -0.270 OA
ATOM      4  N   UNL     1       7.137  -2.713  24.236  0.00  0.00    -0.230 N 
ATOM      5  C   UNL     1       5.824  -3.082  24.443  0.00  0.00    +0.125 C 
ATOM      6  C   UNL     1       5.134  -2.530  25.483  0.00  0.00    -0.006 C 
ATOM      7  C   UNL     1       5.780  -1.475  26.373  0.00  0.00    +0.196 C 
ATOM      8  O   UNL     1       6.867  -0.823  25.720  0.00  0.00    -0.349 OA
ATOM      9  C   UNL     1       7.776  -1.752  25.112  0.00  0.00    +0.273 C 
ENDROOT
BRANCH   1  10
ATOM     10  N   UNL     1       8.319   0.147  23.469  0.00  0.00    -0.276 N 
ATOM     11  H   UNL     1       7.760   0.292  22.633  0.00  0.00    +0.152 HD
ATOM     12  C   UNL     1       8.815   1.239  24.138  0.00  0.00    +0.234 C 
ATOM     13  O   UNL     1       9.510   1.135  25.148  0.00  0.00    -0.274 OA
BRANCH  12  14
ATOM     14  C   UNL     1       8.496   2.616  23.574  0.00  0.00    +0.213 C 
BRANCH  14  15
ATOM     15  C   UNL     1       9.663   3.594  23.675  0.00  0.00    -0.025 A 
ATOM     16  C   UNL     1      10.980   3.239  23.342  0.00  0.00    +0.008 A 
ATOM     17  C   UNL     1      12.002   4.195  23.361  0.00  0.00    +0.046 A 
ATOM     18  C   UNL     1      11.717   5.506  23.717  0.00  0.00    +0.117 A 
ATOM     19  C   UNL     1      10.432   5.870  24.101  0.00  0.00    +0.046 A 
ATOM     20  C   UNL     1       9.413   4.916  24.089  0.00  0.00    +0.008 A 
BRANCH  18  21
ATOM     21  O   UNL     1      12.732   6.416  23.665  0.00  0.00    -0.507 OA
ATOM     22  H   UNL     1      12.686   6.880  22.813  0.00  0.00    +0.292 HD
ENDBRANCH  18  21
ENDBRANCH  14  15
BRANCH  14  23
ATOM     23  C   UNL     1       7.870   2.544  22.199  0.00  0.00    +0.321 C 
ATOM     24  O   UNL     1       6.679   2.712  21.979  0.00  0.00    -0.250 OA
BRANCH  23  25
ATOM     25  O   UNL     1       8.735   2.204  21.212  0.00  0.00    -0.480 OA
ATOM     26  H   UNL     1       9.683   2.264  21.448  0.00  0.00    +0.295 HD
ENDBRANCH  23  25
ENDBRANCH  14  23
ENDBRANCH  12  14
ENDBRANCH   1  10
BRANCH   1  28
ATOM     27  C   UNL     1      10.761  -1.659  22.721  0.00  0.00    +0.197 C 
ATOM     28  O   UNL     1      10.065  -1.558  23.954  0.00  0.00    -0.348 OA
ENDBRANCH   1  28
BRANCH   5  29
ATOM     29  C   UNL     1       5.225  -4.187  23.596  0.00  0.00    +0.351 C 
ATOM     30  O   UNL     1       5.163  -5.348  23.965  0.00  0.00    -0.244 OA
BRANCH  29  31
ATOM     31  O   UNL     1       4.790  -3.854  22.366  0.00  0.00    -0.476 OA
ATOM     32  H   UNL     1       5.389  -3.326  21.790  0.00  0.00    +0.295 HD
ENDBRANCH  29  31
ENDBRANCH   5  29
BRANCH   6  33
ATOM     33  C   UNL     1       3.725  -2.893  25.927  0.00  0.00    +0.112 C 
BRANCH  33  34
ATOM     34  S   UNL     1       3.685  -3.401  27.681  0.00  0.00    -0.080 S 
BRANCH  34  35
ATOM     35  C   UNL     1       4.728  -4.778  27.633  0.00  0.00    +0.209 A 
ATOM     36  N   UNL     1       4.343  -6.015  27.203  0.00  0.00    -0.223 N 
ATOM     37  C   UNL     1       3.059  -6.481  26.767  0.00  0.00    +0.177 C 
ATOM     38  N   UNL     1       5.390  -6.858  27.270  0.00  0.00    -0.043 NA
ATOM     39  N   UNL     1       6.394  -6.126  27.734  0.00  0.00    -0.022 NA
ATOM     40  N   UNL     1       5.994  -4.832  27.977  0.00  0.00    -0.102 NA
ENDBRANCH  34  35
ENDBRANCH  33  34
ENDBRANCH   6  33
TORSDOF 12
ENDMDL
MODEL 8
REMARK VINA RESULT:      -7.0      2.075      2.961
REMARK  Name = 
REMARK  14 active torsions:
REMARK  status: ('A' for Active; 'I' for Inactive)
REMARK    1  A    between atoms: C_1  and  O_2
REMARK    2  A    between atoms: O_2  and  C_3
REMARK    3  A    between atoms: C_3  and  N_4
REMARK    4  A    between atoms: C_5  and  C_7
REMARK    5  A    between atoms: C_7  and  C_9
REMARK    6  A    between atoms: C_7  and  C_12
REMARK    7  A    between atoms: C_9  and  O_10
REMARK    8  A    between atoms: C_15  and  O_16
REMARK    9  A    between atoms: C_23  and  C_24
REMARK   10  A    between atoms: C_24  and  S_25
REMARK   11  A    between atoms: S_25  and  C_26
REMARK   12  A    between atoms: N_30  and  C_31
REMARK   13  A    between atoms: C_32  and  C_36
REMARK   14  A    between atoms: C_36  and  O_37
REMARK                            x       y       z     vdW  Elec       q    Type
REMARK                         _______ _______ _______ _____ _____    ______ ____
ROOT
ATOM      1  C   UNL     1       8.567  -2.462  23.787  0.00  0.00    +0.258 C 
ATOM      2  C   UNL     1       7.686  -3.302  22.744  0.00  0.00    +0.277 C 
ATOM      3  O   UNL     1       7.128  -3.157  21.677  0.00  0.00    -0.270 OA
ATOM      4  N   UNL     1       7.563  -4.332  23.618  0.00  0.00    -0.230 N 
ATOM      5  C   UNL     1       6.499  -5.170  23.876  0.00  0.00    +0.125 C 
ATOM      6  C   UNL     1       6.148  -5.419  25.172  0.00  0.00    -0.006 C 
ATOM      7  C   UNL     1       6.880  -4.736  26.321  0.00  0.00    +0.196 C 
ATOM      8  O   UNL     1       7.528  -3.538  25.901  0.00  0.00    -0.349 OA
ATOM      9  C   UNL     1       8.300  -3.723  24.707  0.00  0.00    +0.273 C 
ENDROOT
BRANCH   1  10
ATOM     10  N   UNL     1       7.877  -1.228  24.271  0.00  0.00    -0.276 N 
ATOM     11  H   UNL     1       7.014  -0.938  23.819  0.00  0.00    +0.152 HD
ATOM     12  C   UNL     1       8.413  -0.434  25.255  0.00  0.00    +0.234 C 
ATOM     13  O   UNL     1       9.462  -0.717  25.833  0.00  0.00    -0.274 OA
BRANCH  12  14
ATOM     14  C   UNL     1       7.674   0.848  25.607  0.00  0.00    +0.213 C 
BRANCH  14  15
ATOM     15  C   UNL     1       8.338   2.101  25.043  0.00  0.00    -0.025 A 
ATOM     16  C   UNL     1       9.358   2.050  24.079  0.00  0.00    +0.008 A 
ATOM     17  C   UNL     1       9.871   3.227  23.523  0.00  0.00    +0.046 A 
ATOM     18  C   UNL     1       9.377   4.459  23.929  0.00  0.00    +0.117 A 
ATOM     19  C   UNL     1       8.404   4.537  24.919  0.00  0.00    +0.046 A 
ATOM     20  C   UNL     1       7.895   3.364  25.479  0.00  0.00    +0.008 A 
BRANCH  18  21
ATOM     21  O   UNL     1       9.865   5.575  23.317  0.00  0.00    -0.507 OA
ATOM     22  H   UNL     1       9.146   6.224  23.238  0.00  0.00    +0.292 HD
ENDBRANCH  18  21
ENDBRANCH  14  15
BRANCH  14  23
ATOM     23  C   UNL     1       6.192   0.756  25.323  0.00  0.00    +0.321 C 
ATOM     24  O   UNL     1       5.341   0.551  26.177  0.00  0.00    -0.250 OA
BRANCH  23  25
ATOM     25  O   UNL     1       5.872   0.850  24.008  0.00  0.00    -0.480 OA
ATOM     26  H   UNL     1       4.913   0.853  23.811  0.00  0.00    +0.295 HD
ENDBRANCH  23  25
ENDBRANCH  14  23
ENDBRANCH  12  14
ENDBRANCH   1  10
BRANCH   1  28
ATOM     27  C   UNL     1      10.168  -1.397  22.268  0.00  0.00    +0.197 C 
ATOM     28  O   UNL     1       9.946  -2.271  23.365  0.00  0.00    -0.348 OA
ENDBRANCH   1  28
BRANCH   5  29
ATOM     29  C   UNL     1       5.833  -5.897  22.725  0.00  0.00    +0.351 C 
ATOM     30  O   UNL     1       4.768  -5.545  22.244  0.00  0.00    -0.244 OA
BRANCH  29  31
ATOM     31  O   UNL     1       6.441  -7.005  22.260  0.00  0.00    -0.476 OA
ATOM     32  H   UNL     1       6.531  -7.109  21.286  0.00  0.00    +0.295 HD
ENDBRANCH  29  31
ENDBRANCH   5  29
BRANCH   6  33
ATOM     33  C   UNL     1       5.080  -6.392  25.648  0.00  0.00    +0.112 C 
BRANCH  33  34
ATOM     34  S   UNL     1       3.406  -5.679  25.490  0.00  0.00    -0.080 S 
BRANCH  34  35
ATOM     35  C   UNL     1       2.608  -6.941  24.619  0.00  0.00    +0.209 A 
ATOM     36  N   UNL     1       1.717  -6.727  23.609  0.00  0.00    -0.223 N 
ATOM     37  C   UNL     1       1.200  -5.499  23.078  0.00  0.00    +0.177 C 
ATOM     38  N   UNL     1       1.294  -7.910  23.127  0.00  0.00    -0.043 NA
ATOM     39  N   UNL     1       1.933  -8.825  23.846  0.00  0.00    -0.022 NA
ATOM     40  N   UNL     1       2.744  -8.236  24.788  0.00  0.00    -0.102 NA
ENDBRANCH  34  35
ENDBRANCH  33  34
ENDBRANCH   6  33
TORSDOF 12
ENDMDL
MODEL 9
REMARK VINA RESULT:      -6.9      2.467      3.578
REMARK  Name = 
REMARK  14 active torsions:
REMARK  status: ('A' for Active; 'I' for Inactive)
REMARK    1  A    between atoms: C_1  and  O_2
REMARK    2  A    between atoms: O_2  and  C_3
REMARK    3  A    between atoms: C_3  and  N_4
REMARK    4  A    between atoms: C_5  and  C_7
REMARK    5  A    between atoms: C_7  and  C_9
REMARK    6  A    between atoms: C_7  and  C_12
REMARK    7  A    between atoms: C_9  and  O_10
REMARK    8  A    between atoms: C_15  and  O_16
REMARK    9  A    between atoms: C_23  and  C_24
REMARK   10  A    between atoms: C_24  and  S_25
REMARK   11  A    between atoms: S_25  and  C_26
REMARK   12  A    between atoms: N_30  and  C_31
REMARK   13  A    between atoms: C_32  and  C_36
REMARK   14  A    between atoms: C_36  and  O_37
REMARK                            x       y       z     vdW  Elec       q    Type
REMARK                         _______ _______ _______ _____ _____    ______ ____
ROOT
ATOM      1  C   UNL     1       8.282  -2.341  23.311  0.00  0.00    +0.258 C 
ATOM      2  C   UNL     1       6.882  -2.909  22.774  0.00  0.00    +0.277 C 
ATOM      3  O   UNL     1       5.913  -2.538  22.147  0.00  0.00    -0.270 OA
ATOM      4  N   UNL     1       7.026  -4.051  23.492  0.00  0.00    -0.230 N 
ATOM      5  C   UNL     1       6.095  -4.812  24.167  0.00  0.00    +0.125 C 
ATOM      6  C   UNL     1       6.375  -5.233  25.436  0.00  0.00    -0.006 C 
ATOM      7  C   UNL     1       7.671  -4.822  26.124  0.00  0.00    +0.196 C 
ATOM      8  O   UNL     1       8.225  -3.640  25.551  0.00  0.00    -0.349 OA
ATOM      9  C   UNL     1       8.285  -3.703  24.119  0.00  0.00    +0.273 C 
ENDROOT
BRANCH   1  10
ATOM     10  N   UNL     1       8.125  -1.141  24.188  0.00  0.00    -0.276 N 
ATOM     11  H   UNL     1       8.260  -1.243  25.190  0.00  0.00    +0.152 HD
ATOM     12  C   UNL     1       7.732   0.077  23.690  0.00  0.00    +0.234 C 
ATOM     13  O   UNL     1       7.537   0.266  22.489  0.00  0.00    -0.274 OA
BRANCH  12  14
ATOM     14  C   UNL     1       7.513   1.208  24.682  0.00  0.00    +0.213 C 
BRANCH  14  15
ATOM     15  C   UNL     1       7.948   2.571  24.150  0.00  0.00    -0.025 A 
ATOM     16  C   UNL     1       7.035   3.520  23.663  0.00  0.00    +0.008 A 
ATOM     17  C   UNL     1       7.470   4.791  23.272  0.00  0.00    +0.046 A 
ATOM     18  C   UNL     1       8.816   5.120  23.358  0.00  0.00    +0.117 A 
ATOM     19  C   UNL     1       9.745   4.180  23.787  0.00  0.00    +0.046 A 
ATOM     20  C   UNL     1       9.314   2.909  24.172  0.00  0.00    +0.008 A 
BRANCH  18  21
ATOM     21  O   UNL     1       9.186   6.388  23.022  0.00  0.00    -0.507 OA
ATOM     22  H   UNL     1      10.078   6.358  22.638  0.00  0.00    +0.292 HD
ENDBRANCH  18  21
ENDBRANCH  14  15
BRANCH  14  23
ATOM     23  C   UNL     1       6.122   1.194  25.275  0.00  0.00    +0.321 C 
ATOM     24  O   UNL     1       5.800   1.804  26.285  0.00  0.00    -0.250 OA
BRANCH  23  25
ATOM     25  O   UNL     1       5.251   0.381  24.627  0.00  0.00    -0.480 OA
ATOM     26  H   UNL     1       4.544   0.839  24.129  0.00  0.00    +0.295 HD
ENDBRANCH  23  25
ENDBRANCH  14  23
ENDBRANCH  12  14
ENDBRANCH   1  10
BRANCH   1  28
ATOM     27  C   UNL     1      10.545  -1.662  22.663  0.00  0.00    +0.197 C 
ATOM     28  O   UNL     1       9.297  -2.220  22.277  0.00  0.00    -0.348 OA
ENDBRANCH   1  28
BRANCH   5  29
ATOM     29  C   UNL     1       4.848  -5.273  23.440  0.00  0.00    +0.351 C 
ATOM     30  O   UNL     1       4.764  -6.359  22.890  0.00  0.00    -0.244 OA
BRANCH  29  31
ATOM     31  O   UNL     1       3.819  -4.409  23.373  0.00  0.00    -0.476 OA
ATOM     32  H   UNL     1       3.860  -3.692  22.700  0.00  0.00    +0.295 HD
ENDBRANCH  29  31
ENDBRANCH   5  29
BRANCH   6  33
ATOM     33  C   UNL     1       5.523  -6.161  26.288  0.00  0.00    +0.112 C 
BRANCH  33  34
ATOM     34  S   UNL     1       4.707  -5.259  27.650  0.00  0.00    -0.080 S 
BRANCH  34  35
ATOM     35  C   UNL     1       3.858  -4.046  26.759  0.00  0.00    +0.209 A 
ATOM     36  N   UNL     1       4.297  -2.764  26.603  0.00  0.00    -0.223 N 
ATOM     37  C   UNL     1       5.457  -2.114  27.142  0.00  0.00    +0.177 C 
ATOM     38  N   UNL     1       3.423  -2.080  25.842  0.00  0.00    -0.043 NA
ATOM     39  N   UNL     1       2.469  -2.953  25.543  0.00  0.00    -0.022 NA
ATOM     40  N   UNL     1       2.719  -4.177  26.118  0.00  0.00    -0.102 NA
ENDBRANCH  34  35
ENDBRANCH  33  34
ENDBRANCH   6  33
TORSDOF 12
ENDMDL
