MODEL 1
REMARK VINA RESULT:      -7.7      0.000      0.000
REMARK  Name = 
REMARK  11 active torsions:
REMARK  status: ('A' for Active; 'I' for Inactive)
REMARK    1  A    between atoms: C_8  and  N_10
REMARK    2  A    between atoms: C_11  and  C_12
REMARK    3  A    between atoms: C_15  and  C_16
REMARK    4  A    between atoms: C_16  and  C_17
REMARK    5  A    between atoms: C_16  and  C_18
REMARK    6  A    between atoms: N_19  and  C_20
REMARK    7  A    between atoms: C_20  and  C_21
REMARK    8  A    between atoms: C_21  and  C_22
REMARK    9  A    between atoms: C_22  and  N_24
REMARK   10  A    between atoms: C_22  and  C_35
REMARK   11  A    between atoms: C_25  and  C_27
REMARK                            x       y       z     vdW  Elec       q    Type
REMARK                         _______ _______ _______ _____ _____    ______ ____
ROOT
ATOM      1  C   UNL     1       8.906  -5.274  25.420  0.00  0.00    +0.042 C 
ENDROOT
BRANCH   1   2
ATOM      2  C   UNL     1       8.010  -4.911  26.607  0.00  0.00    +0.087 C 
BRANCH   2   4
ATOM      3  C   UNL     1       5.772  -5.745  25.808  0.00  0.00    +0.059 C 
ATOM      4  N   UNL     1       6.860  -5.797  26.786  0.00  0.00    -0.296 NA
ATOM      5  C   UNL     1       6.166  -5.651  28.070  0.00  0.00    +0.059 C 
ATOM      6  C   UNL     1       5.544  -4.248  28.258  0.00  0.00    +0.044 C 
ATOM      7  C   UNL     1       5.107  -3.525  26.952  0.00  0.00    +0.093 C 
ATOM      8  C   UNL     1       5.117  -6.751  27.907  0.00  0.00    +0.020 C 
ATOM      9  C   UNL     1       5.200  -4.334  25.642  0.00  0.00    +0.044 C 
ATOM     10  C   UNL     1       4.729  -6.683  26.435  0.00  0.00    +0.020 C 
BRANCH   7  11
ATOM     11  N   UNL     1       3.887  -2.722  27.020  0.00  0.00    -0.312 N 
ATOM     12  C   UNL     1       3.810  -1.341  26.869  0.00  0.00    +0.136 A 
ATOM     13  N   UNL     1       2.543  -0.986  26.902  0.00  0.00    -0.134 NA
ATOM     14  N   UNL     1       1.783  -2.102  27.065  0.00  0.00    -0.135 NA
ATOM     15  C   UNL     1       2.580  -3.148  27.127  0.00  0.00    +0.131 A 
ATOM     16  C   UNL     1       2.076  -4.529  27.263  0.00  0.00    +0.088 C 
BRANCH  12  17
ATOM     17  C   UNL     1       4.951  -0.386  26.659  0.00  0.00    +0.051 C 
ATOM     18  C   UNL     1       5.700  -0.135  27.973  0.00  0.00    +0.015 C 
ATOM     19  C   UNL     1       4.441   0.945  26.102  0.00  0.00    +0.015 C 
ENDBRANCH  12  17
ENDBRANCH   7  11
ENDBRANCH   2   4
ENDBRANCH   1   2
BRANCH   1  20
ATOM     20  C   UNL     1       8.845  -4.281  24.237  0.00  0.00    +0.104 C 
BRANCH  20  21
ATOM     21  C   UNL     1       7.758  -4.517  23.199  0.00  0.00    -0.027 A 
ATOM     22  C   UNL     1       6.994  -3.476  22.646  0.00  0.00    +0.005 A 
ATOM     23  C   UNL     1       6.119  -3.715  21.583  0.00  0.00    +0.000 A 
ATOM     24  C   UNL     1       6.004  -4.995  21.049  0.00  0.00    +0.000 A 
ATOM     25  C   UNL     1       6.734  -6.044  21.598  0.00  0.00    +0.000 A 
ATOM     26  C   UNL     1       7.595  -5.809  22.672  0.00  0.00    +0.005 A 
ENDBRANCH  20  21
BRANCH  20  27
ATOM     27  N   UNL     1       8.808  -2.896  24.681  0.00  0.00    -0.308 N 
ATOM     28  H   UNL     1       8.047  -2.594  25.274  0.00  0.00    +0.149 HD
ATOM     29  C   UNL     1       9.682  -1.971  24.174  0.00  0.00    +0.217 C 
ATOM     30  O   UNL     1      10.495  -2.240  23.294  0.00  0.00    -0.275 OA
BRANCH  29  31
ATOM     31  C   UNL     1       9.570  -0.581  24.803  0.00  0.00    +0.075 C 
ATOM     32  C   UNL     1       8.119  -0.074  24.762  0.00  0.00    +0.018 C 
ATOM     33  C   UNL     1       7.659   0.294  23.349  0.00  0.00    +0.076 C 
ATOM     34  C   UNL     1       8.626   1.244  22.667  0.00  0.00    +0.249 C 
ATOM     35  F   UNL     1       8.552   2.458  23.276  0.00  0.00    -0.206 F 
ATOM     36  F   UNL     1       8.248   1.437  21.380  0.00  0.00    -0.206 F 
ATOM     37  C   UNL     1      10.068   0.768  22.704  0.00  0.00    +0.076 C 
ATOM     38  C   UNL     1      10.511   0.428  24.128  0.00  0.00    +0.018 C 
ENDBRANCH  29  31
ENDBRANCH  20  27
ENDBRANCH   1  20
TORSDOF 8
ENDMDL
MODEL 2
REMARK VINA RESULT:      -7.6      0.425      2.135
REMARK  Name = 
REMARK  11 active torsions:
REMARK  status: ('A' for Active; 'I' for Inactive)
REMARK    1  A    between atoms: C_8  and  N_10
REMARK    2  A    between atoms: C_11  and  C_12
REMARK    3  A    between atoms: C_15  and  C_16
REMARK    4  A    between atoms: C_16  and  C_17
REMARK    5  A    between atoms: C_16  and  C_18
REMARK    6  A    between atoms: N_19  and  C_20
REMARK    7  A    between atoms: C_20  and  C_21
REMARK    8  A    between atoms: C_21  and  C_22
REMARK    9  A    between atoms: C_22  and  N_24
REMARK   10  A    between atoms: C_22  and  C_35
REMARK   11  A    between atoms: C_25  and  C_27
REMARK                            x       y       z     vdW  Elec       q    Type
REMARK                         _______ _______ _______ _____ _____    ______ ____
ROOT
ATOM      1  C   UNL     1       8.860  -5.264  25.473  0.00  0.00    +0.042 C 
ENDROOT
BRANCH   1   2
ATOM      2  C   UNL     1       7.965  -4.888  26.657  0.00  0.00    +0.087 C 
BRANCH   2   4
ATOM      3  C   UNL     1       5.782  -5.893  25.902  0.00  0.00    +0.059 C 
ATOM      4  N   UNL     1       6.858  -5.814  26.893  0.00  0.00    -0.296 NA
ATOM      5  C   UNL     1       6.139  -5.605  28.154  0.00  0.00    +0.059 C 
ATOM      6  C   UNL     1       5.447  -4.224  28.227  0.00  0.00    +0.044 C 
ATOM      7  C   UNL     1       4.993  -3.628  26.864  0.00  0.00    +0.093 C 
ATOM      8  C   UNL     1       5.149  -6.765  28.067  0.00  0.00    +0.020 C 
ATOM      9  C   UNL     1       5.144  -4.530  25.621  0.00  0.00    +0.044 C 
ATOM     10  C   UNL     1       4.778  -6.831  26.590  0.00  0.00    +0.020 C 
BRANCH   7  11
ATOM     11  N   UNL     1       3.734  -2.884  26.856  0.00  0.00    -0.312 N 
ATOM     12  C   UNL     1       2.466  -3.425  27.047  0.00  0.00    +0.136 A 
ATOM     13  N   UNL     1       1.590  -2.442  27.063  0.00  0.00    -0.134 NA
ATOM     14  N   UNL     1       2.252  -1.267  26.894  0.00  0.00    -0.135 NA
ATOM     15  C   UNL     1       3.538  -1.521  26.778  0.00  0.00    +0.131 A 
ATOM     16  C   UNL     1       4.552  -0.459  26.621  0.00  0.00    +0.088 C 
BRANCH  12  17
ATOM     17  C   UNL     1       2.117  -4.872  27.247  0.00  0.00    +0.051 C 
ATOM     18  C   UNL     1       0.973  -5.290  26.316  0.00  0.00    +0.015 C 
ATOM     19  C   UNL     1       1.711  -5.131  28.699  0.00  0.00    +0.015 C 
ENDBRANCH  12  17
ENDBRANCH   7  11
ENDBRANCH   2   4
ENDBRANCH   1   2
BRANCH   1  20
ATOM     20  C   UNL     1       8.810  -4.275  24.286  0.00  0.00    +0.104 C 
BRANCH  20  21
ATOM     21  C   UNL     1       7.734  -4.517  23.237  0.00  0.00    -0.027 A 
ATOM     22  C   UNL     1       6.972  -3.480  22.674  0.00  0.00    +0.005 A 
ATOM     23  C   UNL     1       6.109  -3.724  21.603  0.00  0.00    +0.000 A 
ATOM     24  C   UNL     1       6.006  -5.004  21.068  0.00  0.00    +0.000 A 
ATOM     25  C   UNL     1       6.735  -6.050  21.626  0.00  0.00    +0.000 A 
ATOM     26  C   UNL     1       7.583  -5.810  22.709  0.00  0.00    +0.005 A 
ENDBRANCH  20  21
BRANCH  20  27
ATOM     27  N   UNL     1       8.765  -2.889  24.725  0.00  0.00    -0.308 N 
ATOM     28  H   UNL     1       7.998  -2.587  25.311  0.00  0.00    +0.149 HD
ATOM     29  C   UNL     1       9.640  -1.963  24.222  0.00  0.00    +0.217 C 
ATOM     30  O   UNL     1      10.461  -2.233  23.349  0.00  0.00    -0.275 OA
BRANCH  29  31
ATOM     31  C   UNL     1       9.519  -0.571  24.845  0.00  0.00    +0.075 C 
ATOM     32  C   UNL     1       8.077  -0.046  24.742  0.00  0.00    +0.018 C 
ATOM     33  C   UNL     1       7.683   0.327  23.311  0.00  0.00    +0.076 C 
ATOM     34  C   UNL     1       8.689   1.264  22.670  0.00  0.00    +0.249 C 
ATOM     35  F   UNL     1       8.605   2.479  23.275  0.00  0.00    -0.206 F 
ATOM     36  F   UNL     1       8.369   1.460  21.368  0.00  0.00    -0.206 F 
ATOM     37  C   UNL     1      10.123   0.769  22.769  0.00  0.00    +0.076 C 
ATOM     38  C   UNL     1      10.501   0.426  24.210  0.00  0.00    +0.018 C 
ENDBRANCH  29  31
ENDBRANCH  20  27
ENDBRANCH   1  20
TORSDOF 8
ENDMDL
MODEL 3
REMARK VINA RESULT:      -7.3      2.124      3.150
REMARK  Name = 
REMARK  11 active torsions:
REMARK  status: ('A' for Active; 'I' for Inactive)
REMARK    1  A    between atoms: C_8  and  N_10
REMARK    2  A    between atoms: C_11  and  C_12
REMARK    3  A    between atoms: C_15  and  C_16
REMARK    4  A    between atoms: C_16  and  C_17
REMARK    5  A    between atoms: C_16  and  C_18
REMARK    6  A    between atoms: N_19  and  C_20
REMARK    7  A    between atoms: C_20  and  C_21
REMARK    8  A    between atoms: C_21  and  C_22
REMARK    9  A    between atoms: C_22  and  N_24
REMARK   10  A    between atoms: C_22  and  C_35
REMARK   11  A    between atoms: C_25  and  C_27
REMARK                            x       y       z     vdW  Elec       q    Type
REMARK                         _______ _______ _______ _____ _____    ______ ____
ROOT
ATOM      1  C   UNL     1       8.120  -3.793  26.290  0.00  0.00    +0.042 C 
ENDROOT
BRANCH   1   2
ATOM      2  C   UNL     1       6.677  -3.716  26.794  0.00  0.00    +0.087 C 
BRANCH   2   4
ATOM      3  C   UNL     1       6.202  -6.026  27.680  0.00  0.00    +0.059 C 
ATOM      4  N   UNL     1       6.388  -4.594  27.927  0.00  0.00    -0.296 NA
ATOM      5  C   UNL     1       5.196  -4.229  28.700  0.00  0.00    +0.059 C 
ATOM      6  C   UNL     1       3.895  -4.311  27.867  0.00  0.00    +0.044 C 
ATOM      7  C   UNL     1       3.894  -5.365  26.723  0.00  0.00    +0.093 C 
ATOM      8  C   UNL     1       5.274  -5.296  29.791  0.00  0.00    +0.020 C 
ATOM      9  C   UNL     1       5.115  -6.304  26.638  0.00  0.00    +0.044 C 
ATOM     10  C   UNL     1       5.773  -6.539  29.063  0.00  0.00    +0.020 C 
BRANCH   7  11
ATOM     11  N   UNL     1       2.637  -6.070  26.477  0.00  0.00    -0.312 N 
ATOM     12  C   UNL     1       1.946  -6.108  25.270  0.00  0.00    +0.136 A 
ATOM     13  N   UNL     1       0.912  -6.910  25.405  0.00  0.00    -0.134 NA
ATOM     14  N   UNL     1       0.908  -7.406  26.671  0.00  0.00    -0.135 NA
ATOM     15  C   UNL     1       1.944  -6.915  27.318  0.00  0.00    +0.131 A 
ATOM     16  C   UNL     1       2.263  -7.282  28.712  0.00  0.00    +0.088 C 
BRANCH  12  17
ATOM     17  C   UNL     1       2.309  -5.402  23.994  0.00  0.00    +0.051 C 
ATOM     18  C   UNL     1       1.072  -5.208  23.109  0.00  0.00    +0.015 C 
ATOM     19  C   UNL     1       3.366  -6.196  23.223  0.00  0.00    +0.015 C 
ENDBRANCH  12  17
ENDBRANCH   7  11
ENDBRANCH   2   4
ENDBRANCH   1   2
BRANCH   1  20
ATOM     20  C   UNL     1       8.344  -3.203  24.879  0.00  0.00    +0.104 C 
BRANCH  20  21
ATOM     21  C   UNL     1       7.496  -3.777  23.752  0.00  0.00    -0.027 A 
ATOM     22  C   UNL     1       6.608  -2.997  22.994  0.00  0.00    +0.005 A 
ATOM     23  C   UNL     1       5.969  -3.526  21.870  0.00  0.00    +0.000 A 
ATOM     24  C   UNL     1       6.219  -4.838  21.479  0.00  0.00    +0.000 A 
ATOM     25  C   UNL     1       7.077  -5.634  22.230  0.00  0.00    +0.000 A 
ATOM     26  C   UNL     1       7.702  -5.112  23.365  0.00  0.00    +0.005 A 
ENDBRANCH  20  21
BRANCH  20  27
ATOM     27  N   UNL     1       8.257  -1.751  24.868  0.00  0.00    -0.308 N 
ATOM     28  H   UNL     1       7.368  -1.314  25.072  0.00  0.00    +0.149 HD
ATOM     29  C   UNL     1       9.303  -0.986  24.424  0.00  0.00    +0.217 C 
ATOM     30  O   UNL     1      10.333  -1.474  23.968  0.00  0.00    -0.275 OA
BRANCH  29  31
ATOM     31  C   UNL     1       9.086   0.522  24.555  0.00  0.00    +0.075 C 
ATOM     32  C   UNL     1       7.663   0.914  24.121  0.00  0.00    +0.018 C 
ATOM     33  C   UNL     1       7.452   0.799  22.610  0.00  0.00    +0.076 C 
ATOM     34  C   UNL     1       8.521   1.539  21.829  0.00  0.00    +0.249 C 
ATOM     35  F   UNL     1       8.346   2.876  22.002  0.00  0.00    -0.206 F 
ATOM     36  F   UNL     1       8.368   1.301  20.504  0.00  0.00    -0.206 F 
ATOM     37  C   UNL     1       9.935   1.175  22.247  0.00  0.00    +0.076 C 
ATOM     38  C   UNL     1      10.130   1.320  23.757  0.00  0.00    +0.018 C 
ENDBRANCH  29  31
ENDBRANCH  20  27
ENDBRANCH   1  20
TORSDOF 8
ENDMDL
MODEL 4
REMARK VINA RESULT:      -7.0      3.312      5.524
REMARK  Name = 
REMARK  11 active torsions:
REMARK  status: ('A' for Active; 'I' for Inactive)
REMARK    1  A    between atoms: C_8  and  N_10
REMARK    2  A    between atoms: C_11  and  C_12
REMARK    3  A    between atoms: C_15  and  C_16
REMARK    4  A    between atoms: C_16  and  C_17
REMARK    5  A    between atoms: C_16  and  C_18
REMARK    6  A    between atoms: N_19  and  C_20
REMARK    7  A    between atoms: C_20  and  C_21
REMARK    8  A    between atoms: C_21  and  C_22
REMARK    9  A    between atoms: C_22  and  N_24
REMARK   10  A    between atoms: C_22  and  C_35
REMARK   11  A    between atoms: C_25  and  C_27
REMARK                            x       y       z     vdW  Elec       q    Type
REMARK                         _______ _______ _______ _____ _____    ______ ____
ROOT
ATOM      1  C   UNL     1       5.788  -1.524  23.934  0.00  0.00    +0.042 C 
ENDROOT
BRANCH   1   2
ATOM      2  C   UNL     1       6.105  -0.120  24.455  0.00  0.00    +0.087 C 
BRANCH   2   4
ATOM      3  C   UNL     1       4.624   1.570  25.594  0.00  0.00    +0.059 C 
ATOM      4  N   UNL     1       5.318   0.281  25.621  0.00  0.00    -0.296 NA
ATOM      5  C   UNL     1       6.067   0.329  26.881  0.00  0.00    +0.059 C 
ATOM      6  C   UNL     1       7.203   1.378  26.863  0.00  0.00    +0.044 C 
ATOM      7  C   UNL     1       6.960   2.617  25.954  0.00  0.00    +0.093 C 
ATOM      8  C   UNL     1       4.928   0.700  27.830  0.00  0.00    +0.020 C 
ATOM      9  C   UNL     1       5.569   2.738  25.297  0.00  0.00    +0.044 C 
ATOM     10  C   UNL     1       4.072   1.670  27.024  0.00  0.00    +0.020 C 
BRANCH   7  11
ATOM     11  N   UNL     1       7.451   3.902  26.447  0.00  0.00    -0.312 N 
ATOM     12  C   UNL     1       8.205   4.820  25.722  0.00  0.00    +0.136 A 
ATOM     13  N   UNL     1       8.383   5.894  26.463  0.00  0.00    -0.134 NA
ATOM     14  N   UNL     1       7.759   5.707  27.656  0.00  0.00    -0.135 NA
ATOM     15  C   UNL     1       7.190   4.520  27.652  0.00  0.00    +0.131 A 
ATOM     16  C   UNL     1       6.391   4.014  28.786  0.00  0.00    +0.088 C 
BRANCH  12  17
ATOM     17  C   UNL     1       8.713   4.668  24.316  0.00  0.00    +0.051 C 
ATOM     18  C   UNL     1      10.046   5.403  24.137  0.00  0.00    +0.015 C 
ATOM     19  C   UNL     1       7.693   5.214  23.315  0.00  0.00    +0.015 C 
ENDBRANCH  12  17
ENDBRANCH   7  11
ENDBRANCH   2   4
ENDBRANCH   1   2
BRANCH   1  20
ATOM     20  C   UNL     1       6.953  -2.534  24.048  0.00  0.00    +0.104 C 
BRANCH  20  21
ATOM     21  C   UNL     1       6.712  -3.926  23.484  0.00  0.00    -0.027 A 
ATOM     22  C   UNL     1       5.638  -4.737  23.888  0.00  0.00    +0.005 A 
ATOM     23  C   UNL     1       5.361  -5.940  23.234  0.00  0.00    +0.000 A 
ATOM     24  C   UNL     1       6.144  -6.344  22.156  0.00  0.00    +0.000 A 
ATOM     25  C   UNL     1       7.226  -5.567  21.756  0.00  0.00    +0.000 A 
ATOM     26  C   UNL     1       7.515  -4.374  22.422  0.00  0.00    +0.005 A 
ENDBRANCH  20  21
BRANCH  20  27
ATOM     27  N   UNL     1       8.199  -1.999  23.521  0.00  0.00    -0.308 N 
ATOM     28  H   UNL     1       8.396  -2.104  22.534  0.00  0.00    +0.149 HD
ATOM     29  C   UNL     1       9.170  -1.519  24.359  0.00  0.00    +0.217 C 
ATOM     30  O   UNL     1       9.068  -1.559  25.582  0.00  0.00    -0.275 OA
BRANCH  29  31
ATOM     31  C   UNL     1      10.382  -0.916  23.647  0.00  0.00    +0.075 C 
ATOM     32  C   UNL     1      10.686   0.496  24.176  0.00  0.00    +0.018 C 
ATOM     33  C   UNL     1       9.646   1.529  23.737  0.00  0.00    +0.076 C 
ATOM     34  C   UNL     1       9.422   1.508  22.237  0.00  0.00    +0.249 C 
ATOM     35  F   UNL     1      10.531   1.994  21.620  0.00  0.00    -0.206 F 
ATOM     36  F   UNL     1       8.405   2.343  21.914  0.00  0.00    -0.206 F 
ATOM     37  C   UNL     1       9.130   0.120  21.691  0.00  0.00    +0.076 C 
ATOM     38  C   UNL     1      10.194  -0.889  22.122  0.00  0.00    +0.018 C 
ENDBRANCH  29  31
ENDBRANCH  20  27
ENDBRANCH   1  20
TORSDOF 8
ENDMDL
MODEL 5
REMARK VINA RESULT:      -7.0      2.760      6.023
REMARK  Name = 
REMARK  11 active torsions:
REMARK  status: ('A' for Active; 'I' for Inactive)
REMARK    1  A    between atoms: C_8  and  N_10
REMARK    2  A    between atoms: C_11  and  C_12
REMARK    3  A    between atoms: C_15  and  C_16
REMARK    4  A    between atoms: C_16  and  C_17
REMARK    5  A    between atoms: C_16  and  C_18
REMARK    6  A    between atoms: N_19  and  C_20
REMARK    7  A    between atoms: C_20  and  C_21
REMARK    8  A    between atoms: C_21  and  C_22
REMARK    9  A    between atoms: C_22  and  N_24
REMARK   10  A    between atoms: C_22  and  C_35
REMARK   11  A    between atoms: C_25  and  C_27
REMARK                            x       y       z     vdW  Elec       q    Type
REMARK                         _______ _______ _______ _____ _____    ______ ____
ROOT
ATOM      1  C   UNL     1       8.021  -0.193  27.343  0.00  0.00    +0.042 C 
ENDROOT
BRANCH   1   2
ATOM      2  C   UNL     1       7.506  -1.476  26.687  0.00  0.00    +0.087 C 
BRANCH   2   4
ATOM      3  C   UNL     1       7.878  -1.705  24.206  0.00  0.00    +0.059 C 
ATOM      4  N   UNL     1       8.328  -1.956  25.577  0.00  0.00    -0.296 NA
ATOM      5  C   UNL     1       8.591  -3.399  25.585  0.00  0.00    +0.059 C 
ATOM      6  C   UNL     1       7.303  -4.243  25.442  0.00  0.00    +0.044 C 
ATOM      7  C   UNL     1       6.151  -3.579  24.635  0.00  0.00    +0.093 C 
ATOM      8  C   UNL     1       9.503  -3.490  24.363  0.00  0.00    +0.020 C 
ATOM      9  C   UNL     1       6.465  -2.234  23.948  0.00  0.00    +0.044 C 
ATOM     10  C   UNL     1       8.910  -2.487  23.379  0.00  0.00    +0.020 C 
BRANCH   7  11
ATOM     11  N   UNL     1       5.348  -4.458  23.787  0.00  0.00    -0.312 N 
ATOM     12  C   UNL     1       3.981  -4.685  23.910  0.00  0.00    +0.136 A 
ATOM     13  N   UNL     1       3.594  -5.460  22.919  0.00  0.00    -0.134 NA
ATOM     14  N   UNL     1       4.673  -5.745  22.143  0.00  0.00    -0.135 NA
ATOM     15  C   UNL     1       5.727  -5.140  22.650  0.00  0.00    +0.131 A 
ATOM     16  C   UNL     1       7.064  -5.207  22.026  0.00  0.00    +0.088 C 
BRANCH  12  17
ATOM     17  C   UNL     1       3.058  -4.126  24.956  0.00  0.00    +0.051 C 
ATOM     18  C   UNL     1       3.279  -4.821  26.305  0.00  0.00    +0.015 C 
ATOM     19  C   UNL     1       1.599  -4.294  24.530  0.00  0.00    +0.015 C 
ENDBRANCH  12  17
ENDBRANCH   7  11
ENDBRANCH   2   4
ENDBRANCH   1   2
BRANCH   1  20
ATOM     20  C   UNL     1       7.173   1.067  27.053  0.00  0.00    +0.104 C 
BRANCH  20  21
ATOM     21  C   UNL     1       6.697   1.866  28.258  0.00  0.00    -0.027 A 
ATOM     22  C   UNL     1       6.841   3.260  28.352  0.00  0.00    +0.005 A 
ATOM     23  C   UNL     1       6.250   3.972  29.399  0.00  0.00    +0.000 A 
ATOM     24  C   UNL     1       5.495   3.305  30.358  0.00  0.00    +0.000 A 
ATOM     25  C   UNL     1       5.360   1.922  30.295  0.00  0.00    +0.000 A 
ATOM     26  C   UNL     1       5.966   1.207  29.260  0.00  0.00    +0.005 A 
ENDBRANCH  20  21
BRANCH  20  27
ATOM     27  N   UNL     1       7.815   1.956  26.097  0.00  0.00    -0.308 N 
ATOM     28  H   UNL     1       8.532   2.590  26.424  0.00  0.00    +0.149 HD
ATOM     29  C   UNL     1       7.349   2.064  24.813  0.00  0.00    +0.217 C 
ATOM     30  O   UNL     1       6.349   1.470  24.420  0.00  0.00    -0.275 OA
BRANCH  29  31
ATOM     31  C   UNL     1       8.182   2.975  23.910  0.00  0.00    +0.075 C 
ATOM     32  C   UNL     1       7.838   2.745  22.429  0.00  0.00    +0.018 C 
ATOM     33  C   UNL     1       8.348   1.400  21.904  0.00  0.00    +0.076 C 
ATOM     34  C   UNL     1       9.823   1.199  22.195  0.00  0.00    +0.249 C 
ATOM     35  F   UNL     1      10.544   2.056  21.424  0.00  0.00    -0.206 F 
ATOM     36  F   UNL     1      10.196  -0.051  21.831  0.00  0.00    -0.206 F 
ATOM     37  C   UNL     1      10.188   1.432  23.652  0.00  0.00    +0.076 C 
ATOM     38  C   UNL     1       9.689   2.790  24.147  0.00  0.00    +0.018 C 
ENDBRANCH  29  31
ENDBRANCH  20  27
ENDBRANCH   1  20
TORSDOF 8
ENDMDL
MODEL 6
REMARK VINA RESULT:      -6.9      1.935      3.026
REMARK  Name = 
REMARK  11 active torsions:
REMARK  status: ('A' for Active; 'I' for Inactive)
REMARK    1  A    between atoms: C_8  and  N_10
REMARK    2  A    between atoms: C_11  and  C_12
REMARK    3  A    between atoms: C_15  and  C_16
REMARK    4  A    between atoms: C_16  and  C_17
REMARK    5  A    between atoms: C_16  and  C_18
REMARK    6  A    between atoms: N_19  and  C_20
REMARK    7  A    between atoms: C_20  and  C_21
REMARK    8  A    between atoms: C_21  and  C_22
REMARK    9  A    between atoms: C_22  and  N_24
REMARK   10  A    between atoms: C_22  and  C_35
REMARK   11  A    between atoms: C_25  and  C_27
REMARK                            x       y       z     vdW  Elec       q    Type
REMARK                         _______ _______ _______ _____ _____    ______ ____
ROOT
ATOM      1  C   UNL     1       8.593  -4.206  26.340  0.00  0.00    +0.042 C 
ENDROOT
BRANCH   1   2
ATOM      2  C   UNL     1       7.486  -5.254  26.474  0.00  0.00    +0.087 C 
BRANCH   2   4
ATOM      3  C   UNL     1       5.810  -6.209  28.094  0.00  0.00    +0.059 C 
ATOM      4  N   UNL     1       6.635  -5.083  27.651  0.00  0.00    -0.296 NA
ATOM      5  C   UNL     1       5.676  -3.978  27.561  0.00  0.00    +0.059 C 
ATOM      6  C   UNL     1       4.645  -4.171  26.424  0.00  0.00    +0.044 C 
ATOM      7  C   UNL     1       4.300  -5.647  26.074  0.00  0.00    +0.093 C 
ATOM      8  C   UNL     1       5.054  -4.079  28.953  0.00  0.00    +0.020 C 
ATOM      9  C   UNL     1       4.899  -6.739  26.984  0.00  0.00    +0.044 C 
ATOM     10  C   UNL     1       4.980  -5.578  29.222  0.00  0.00    +0.020 C 
BRANCH   7  11
ATOM     11  N   UNL     1       2.913  -5.931  25.710  0.00  0.00    -0.312 N 
ATOM     12  C   UNL     1       1.827  -5.942  26.580  0.00  0.00    +0.136 A 
ATOM     13  N   UNL     1       0.731  -6.147  25.880  0.00  0.00    -0.134 NA
ATOM     14  N   UNL     1       1.069  -6.266  24.569  0.00  0.00    -0.135 NA
ATOM     15  C   UNL     1       2.374  -6.129  24.456  0.00  0.00    +0.131 A 
ATOM     16  C   UNL     1       3.071  -6.164  23.156  0.00  0.00    +0.088 C 
BRANCH  12  17
ATOM     17  C   UNL     1       1.852  -5.719  28.066  0.00  0.00    +0.051 C 
ATOM     18  C   UNL     1       1.030  -6.791  28.791  0.00  0.00    +0.015 C 
ATOM     19  C   UNL     1       1.299  -4.334  28.410  0.00  0.00    +0.015 C 
ENDBRANCH  12  17
ENDBRANCH   7  11
ENDBRANCH   2   4
ENDBRANCH   1   2
BRANCH   1  20
ATOM     20  C   UNL     1       8.673  -3.525  24.954  0.00  0.00    +0.104 C 
BRANCH  20  21
ATOM     21  C   UNL     1       7.652  -3.962  23.915  0.00  0.00    -0.027 A 
ATOM     22  C   UNL     1       6.593  -3.140  23.494  0.00  0.00    +0.005 A 
ATOM     23  C   UNL     1       5.774  -3.516  22.427  0.00  0.00    +0.000 A 
ATOM     24  C   UNL     1       6.008  -4.712  21.755  0.00  0.00    +0.000 A 
ATOM     25  C   UNL     1       7.037  -5.550  22.171  0.00  0.00    +0.000 A 
ATOM     26  C   UNL     1       7.845  -5.184  23.250  0.00  0.00    +0.005 A 
ENDBRANCH  20  21
BRANCH  20  27
ATOM     27  N   UNL     1       8.683  -2.073  25.053  0.00  0.00    -0.308 N 
ATOM     28  H   UNL     1       7.951  -1.614  25.578  0.00  0.00    +0.149 HD
ATOM     29  C   UNL     1       9.559  -1.323  24.313  0.00  0.00    +0.217 C 
ATOM     30  O   UNL     1      10.334  -1.820  23.500  0.00  0.00    -0.275 OA
BRANCH  29  31
ATOM     31  C   UNL     1       9.501   0.179  24.592  0.00  0.00    +0.075 C 
ATOM     32  C   UNL     1       8.069   0.715  24.425  0.00  0.00    +0.018 C 
ATOM     33  C   UNL     1       7.617   0.752  22.964  0.00  0.00    +0.076 C 
ATOM     34  C   UNL     1       8.614   1.477  22.079  0.00  0.00    +0.249 C 
ATOM     35  F   UNL     1       8.587   2.802  22.381  0.00  0.00    -0.206 F 
ATOM     36  F   UNL     1       8.237   1.371  20.782  0.00  0.00    -0.206 F 
ATOM     37  C   UNL     1      10.038   0.970  22.235  0.00  0.00    +0.076 C 
ATOM     38  C   UNL     1      10.475   0.964  23.700  0.00  0.00    +0.018 C 
ENDBRANCH  29  31
ENDBRANCH  20  27
ENDBRANCH   1  20
TORSDOF 8
ENDMDL
MODEL 7
REMARK VINA RESULT:      -6.9      2.300      3.595
REMARK  Name = 
REMARK  11 active torsions:
REMARK  status: ('A' for Active; 'I' for Inactive)
REMARK    1  A    between atoms: C_8  and  N_10
REMARK    2  A    between atoms: C_11  and  C_12
REMARK    3  A    between atoms: C_15  and  C_16
REMARK    4  A    between atoms: C_16  and  C_17
REMARK    5  A    between atoms: C_16  and  C_18
REMARK    6  A    between atoms: N_19  and  C_20
REMARK    7  A    between atoms: C_20  and  C_21
REMARK    8  A    between atoms: C_21  and  C_22
REMARK    9  A    between atoms: C_22  and  N_24
REMARK   10  A    between atoms: C_22  and  C_35
REMARK   11  A    between atoms: C_25  and  C_27
REMARK                            x       y       z     vdW  Elec       q    Type
REMARK                         _______ _______ _______ _____ _____    ______ ____
ROOT
ATOM      1  C   UNL     1       7.502  -2.326  25.369  0.00  0.00    +0.042 C 
ENDROOT
BRANCH   1   2
ATOM      2  C   UNL     1       6.158  -2.981  25.696  0.00  0.00    +0.087 C 
BRANCH   2   4
ATOM      3  C   UNL     1       6.169  -5.323  26.623  0.00  0.00    +0.059 C 
ATOM      4  N   UNL     1       6.190  -3.876  26.852  0.00  0.00    -0.296 NA
ATOM      5  C   UNL     1       5.105  -3.673  27.818  0.00  0.00    +0.059 C 
ATOM      6  C   UNL     1       3.708  -3.948  27.215  0.00  0.00    +0.044 C 
ATOM      7  C   UNL     1       3.663  -5.006  26.076  0.00  0.00    +0.093 C 
ATOM      8  C   UNL     1       5.515  -4.704  28.868  0.00  0.00    +0.020 C 
ATOM      9  C   UNL     1       4.972  -5.765  25.776  0.00  0.00    +0.044 C 
ATOM     10  C   UNL     1       6.054  -5.874  28.053  0.00  0.00    +0.020 C 
BRANCH   7  11
ATOM     11  N   UNL     1       2.495  -5.884  26.037  0.00  0.00    -0.312 N 
ATOM     12  C   UNL     1       1.685  -6.115  24.930  0.00  0.00    +0.136 A 
ATOM     13  N   UNL     1       0.791  -7.028  25.248  0.00  0.00    -0.134 NA
ATOM     14  N   UNL     1       0.997  -7.407  26.537  0.00  0.00    -0.135 NA
ATOM     15  C   UNL     1       2.022  -6.733  27.015  0.00  0.00    +0.131 A 
ATOM     16  C   UNL     1       2.541  -6.932  28.383  0.00  0.00    +0.088 C 
BRANCH  12  17
ATOM     17  C   UNL     1       1.802  -5.484  23.571  0.00  0.00    +0.051 C 
ATOM     18  C   UNL     1       0.460  -5.531  22.831  0.00  0.00    +0.015 C 
ATOM     19  C   UNL     1       2.867  -6.200  22.737  0.00  0.00    +0.015 C 
ENDBRANCH  12  17
ENDBRANCH   7  11
ENDBRANCH   2   4
ENDBRANCH   1   2
BRANCH   1  20
ATOM     20  C   UNL     1       7.984  -2.532  23.914  0.00  0.00    +0.104 C 
BRANCH  20  21
ATOM     21  C   UNL     1       7.341  -3.668  23.132  0.00  0.00    -0.027 A 
ATOM     22  C   UNL     1       6.380  -3.455  22.130  0.00  0.00    +0.005 A 
ATOM     23  C   UNL     1       5.933  -4.510  21.330  0.00  0.00    +0.000 A 
ATOM     24  C   UNL     1       6.450  -5.789  21.509  0.00  0.00    +0.000 A 
ATOM     25  C   UNL     1       7.385  -6.025  22.512  0.00  0.00    +0.000 A 
ATOM     26  C   UNL     1       7.818  -4.975  23.325  0.00  0.00    +0.005 A 
ENDBRANCH  20  21
BRANCH  20  27
ATOM     27  N   UNL     1       7.924  -1.304  23.135  0.00  0.00    -0.308 N 
ATOM     28  H   UNL     1       7.025  -0.869  22.979  0.00  0.00    +0.149 HD
ATOM     29  C   UNL     1       9.029  -0.833  22.477  0.00  0.00    +0.217 C 
ATOM     30  O   UNL     1      10.098  -1.437  22.463  0.00  0.00    -0.275 OA
BRANCH  29  31
ATOM     31  C   UNL     1       8.825   0.509  21.773  0.00  0.00    +0.075 C 
ATOM     32  C   UNL     1      10.045   1.425  21.969  0.00  0.00    +0.018 C 
ATOM     33  C   UNL     1      10.167   1.951  23.401  0.00  0.00    +0.076 C 
ATOM     34  C   UNL     1       8.879   2.590  23.883  0.00  0.00    +0.249 C 
ATOM     35  F   UNL     1       8.687   3.754  23.207  0.00  0.00    -0.206 F 
ATOM     36  F   UNL     1       8.994   2.922  25.192  0.00  0.00    -0.206 F 
ATOM     37  C   UNL     1       7.658   1.708  23.690  0.00  0.00    +0.076 C 
ATOM     38  C   UNL     1       7.544   1.213  22.248  0.00  0.00    +0.018 C 
ENDBRANCH  29  31
ENDBRANCH  20  27
ENDBRANCH   1  20
TORSDOF 8
ENDMDL
MODEL 8
REMARK VINA RESULT:      -6.9      4.018      7.195
REMARK  Name = 
REMARK  11 active torsions:
REMARK  status: ('A' for Active; 'I' for Inactive)
REMARK    1  A    between atoms: C_8  and  N_10
REMARK    2  A    between atoms: C_11  and  C_12
REMARK    3  A    between atoms: C_15  and  C_16
REMARK    4  A    between atoms: C_16  and  C_17
REMARK    5  A    between atoms: C_16  and  C_18
REMARK    6  A    between atoms: N_19  and  C_20
REMARK    7  A    between atoms: C_20  and  C_21
REMARK    8  A    between atoms: C_21  and  C_22
REMARK    9  A    between atoms: C_22  and  N_24
REMARK   10  A    between atoms: C_22  and  C_35
REMARK   11  A    between atoms: C_25  and  C_27
REMARK                            x       y       z     vdW  Elec       q    Type
REMARK                         _______ _______ _______ _____ _____    ______ ____
ROOT
ATOM      1  C   UNL     1       6.669  -0.833  23.011  0.00  0.00    +0.042 C 
ENDROOT
BRANCH   1   2
ATOM      2  C   UNL     1       6.442   0.654  23.297  0.00  0.00    +0.087 C 
BRANCH   2   4
ATOM      3  C   UNL     1       4.948   2.219  24.587  0.00  0.00    +0.059 C 
ATOM      4  N   UNL     1       5.619   0.922  24.475  0.00  0.00    -0.296 NA
ATOM      5  C   UNL     1       6.321   0.795  25.757  0.00  0.00    +0.059 C 
ATOM      6  C   UNL     1       7.474   1.814  25.911  0.00  0.00    +0.044 C 
ATOM      7  C   UNL     1       7.286   3.162  25.158  0.00  0.00    +0.093 C 
ATOM      8  C   UNL     1       5.153   1.069  26.704  0.00  0.00    +0.020 C 
ATOM      9  C   UNL     1       5.923   3.394  24.473  0.00  0.00    +0.044 C 
ATOM     10  C   UNL     1       4.344   2.150  25.997  0.00  0.00    +0.020 C 
BRANCH   7  11
ATOM     11  N   UNL     1       7.780   4.365  25.827  0.00  0.00    -0.312 N 
ATOM     12  C   UNL     1       8.600   5.335  25.259  0.00  0.00    +0.136 A 
ATOM     13  N   UNL     1       8.760   6.309  26.130  0.00  0.00    -0.134 NA
ATOM     14  N   UNL     1       8.061   6.006  27.255  0.00  0.00    -0.135 NA
ATOM     15  C   UNL     1       7.462   4.847  27.079  0.00  0.00    +0.131 A 
ATOM     16  C   UNL     1       6.583   4.239  28.098  0.00  0.00    +0.088 C 
BRANCH  12  17
ATOM     17  C   UNL     1       9.188   5.331  23.876  0.00  0.00    +0.051 C 
ATOM     18  C   UNL     1      10.686   5.654  23.921  0.00  0.00    +0.015 C 
ATOM     19  C   UNL     1       8.474   6.351  22.987  0.00  0.00    +0.015 C 
ENDBRANCH  12  17
ENDBRANCH   7  11
ENDBRANCH   2   4
ENDBRANCH   1   2
BRANCH   1  20
ATOM     20  C   UNL     1       8.145  -1.228  22.776  0.00  0.00    +0.104 C 
BRANCH  20  21
ATOM     21  C   UNL     1       9.191  -0.148  23.015  0.00  0.00    -0.027 A 
ATOM     22  C   UNL     1       9.345   0.963  22.169  0.00  0.00    +0.005 A 
ATOM     23  C   UNL     1      10.207   2.009  22.510  0.00  0.00    +0.000 A 
ATOM     24  C   UNL     1      10.916   1.967  23.707  0.00  0.00    +0.000 A 
ATOM     25  C   UNL     1      10.795   0.864  24.546  0.00  0.00    +0.000 A 
ATOM     26  C   UNL     1       9.948  -0.190  24.197  0.00  0.00    +0.005 A 
ENDBRANCH  20  21
BRANCH  20  27
ATOM     27  N   UNL     1       8.514  -2.437  23.497  0.00  0.00    -0.308 N 
ATOM     28  H   UNL     1       9.303  -2.406  24.130  0.00  0.00    +0.149 HD
ATOM     29  C   UNL     1       7.925  -3.638  23.205  0.00  0.00    +0.217 C 
ATOM     30  O   UNL     1       7.107  -3.771  22.300  0.00  0.00    -0.275 OA
BRANCH  29  31
ATOM     31  C   UNL     1       8.361  -4.794  24.107  0.00  0.00    +0.075 C 
ATOM     32  C   UNL     1       7.146  -5.611  24.580  0.00  0.00    +0.018 C 
ATOM     33  C   UNL     1       6.287  -4.858  25.599  0.00  0.00    +0.076 C 
ATOM     34  C   UNL     1       7.112  -4.324  26.754  0.00  0.00    +0.249 C 
ATOM     35  F   UNL     1       7.536  -5.370  27.511  0.00  0.00    -0.206 F 
ATOM     36  F   UNL     1       6.334  -3.558  27.557  0.00  0.00    -0.206 F 
ATOM     37  C   UNL     1       8.324  -3.522  26.309  0.00  0.00    +0.076 C 
ATOM     38  C   UNL     1       9.179  -4.302  25.311  0.00  0.00    +0.018 C 
ENDBRANCH  29  31
ENDBRANCH  20  27
ENDBRANCH   1  20
TORSDOF 8
ENDMDL
MODEL 9
REMARK VINA RESULT:      -6.8      4.141      7.595
REMARK  Name = 
REMARK  11 active torsions:
REMARK  status: ('A' for Active; 'I' for Inactive)
REMARK    1  A    between atoms: C_8  and  N_10
REMARK    2  A    between atoms: C_11  and  C_12
REMARK    3  A    between atoms: C_15  and  C_16
REMARK    4  A    between atoms: C_16  and  C_17
REMARK    5  A    between atoms: C_16  and  C_18
REMARK    6  A    between atoms: N_19  and  C_20
REMARK    7  A    between atoms: C_20  and  C_21
REMARK    8  A    between atoms: C_21  and  C_22
REMARK    9  A    between atoms: C_22  and  N_24
REMARK   10  A    between atoms: C_22  and  C_35
REMARK   11  A    between atoms: C_25  and  C_27
REMARK                            x       y       z     vdW  Elec       q    Type
REMARK                         _______ _______ _______ _____ _____    ______ ____
ROOT
ATOM      1  C   UNL     1       6.399  -3.522  22.066  0.00  0.00    +0.042 C 
ENDROOT
BRANCH   1   2
ATOM      2  C   UNL     1       6.774  -2.122  22.558  0.00  0.00    +0.087 C 
BRANCH   2   4
ATOM      3  C   UNL     1       8.517  -1.342  24.201  0.00  0.00    +0.059 C 
ATOM      4  N   UNL     1       8.183  -1.968  22.919  0.00  0.00    -0.296 NA
ATOM      5  C   UNL     1       8.986  -1.210  21.955  0.00  0.00    +0.059 C 
ATOM      6  C   UNL     1       8.514   0.255  21.804  0.00  0.00    +0.044 C 
ATOM      7  C   UNL     1       7.858   0.884  23.066  0.00  0.00    +0.093 C 
ATOM      8  C   UNL     1      10.353  -1.329  22.627  0.00  0.00    +0.020 C 
ATOM      9  C   UNL     1       7.884   0.043  24.359  0.00  0.00    +0.044 C 
ATOM     10  C   UNL     1      10.047  -1.233  24.117  0.00  0.00    +0.020 C 
BRANCH   7  11
ATOM     11  N   UNL     1       8.138   2.296  23.320  0.00  0.00    -0.312 N 
ATOM     12  C   UNL     1       7.194   3.315  23.394  0.00  0.00    +0.136 A 
ATOM     13  N   UNL     1       7.807   4.432  23.726  0.00  0.00    -0.134 NA
ATOM     14  N   UNL     1       9.132   4.171  23.878  0.00  0.00    -0.135 NA
ATOM     15  C   UNL     1       9.339   2.892  23.646  0.00  0.00    +0.131 A 
ATOM     16  C   UNL     1      10.669   2.263  23.765  0.00  0.00    +0.088 C 
BRANCH  12  17
ATOM     17  C   UNL     1       5.711   3.196  23.180  0.00  0.00    +0.051 C 
ATOM     18  C   UNL     1       5.103   4.554  22.811  0.00  0.00    +0.015 C 
ATOM     19  C   UNL     1       5.029   2.659  24.440  0.00  0.00    +0.015 C 
ENDBRANCH  12  17
ENDBRANCH   7  11
ENDBRANCH   2   4
ENDBRANCH   1   2
BRANCH   1  20
ATOM     20  C   UNL     1       6.026  -4.521  23.184  0.00  0.00    +0.104 C 
BRANCH  20  21
ATOM     21  C   UNL     1       7.015  -4.667  24.332  0.00  0.00    -0.027 A 
ATOM     22  C   UNL     1       8.320  -5.155  24.156  0.00  0.00    +0.005 A 
ATOM     23  C   UNL     1       9.244  -5.124  25.204  0.00  0.00    +0.000 A 
ATOM     24  C   UNL     1       8.882  -4.592  26.438  0.00  0.00    +0.000 A 
ATOM     25  C   UNL     1       7.587  -4.125  26.639  0.00  0.00    +0.000 A 
ATOM     26  C   UNL     1       6.658  -4.173  25.598  0.00  0.00    +0.005 A 
ENDBRANCH  20  21
BRANCH  20  27
ATOM     27  N   UNL     1       4.691  -4.285  23.713  0.00  0.00    -0.308 N 
ATOM     28  H   UNL     1       4.573  -3.609  24.455  0.00  0.00    +0.149 HD
ATOM     29  C   UNL     1       3.637  -5.078  23.343  0.00  0.00    +0.217 C 
ATOM     30  O   UNL     1       3.766  -6.048  22.601  0.00  0.00    -0.275 OA
BRANCH  29  31
ATOM     31  C   UNL     1       2.287  -4.649  23.919  0.00  0.00    +0.075 C 
ATOM     32  C   UNL     1       2.455  -4.049  25.326  0.00  0.00    +0.018 C 
ATOM     33  C   UNL     1       2.811  -5.101  26.379  0.00  0.00    +0.076 C 
ATOM     34  C   UNL     1       1.849  -6.274  26.359  0.00  0.00    +0.249 C 
ATOM     35  F   UNL     1       0.640  -5.859  26.822  0.00  0.00    -0.206 F 
ATOM     36  F   UNL     1       2.279  -7.234  27.214  0.00  0.00    -0.206 F 
ATOM     37  C   UNL     1       1.660  -6.876  24.977  0.00  0.00    +0.076 C 
ATOM     38  C   UNL     1       1.282  -5.811  23.947  0.00  0.00    +0.018 C 
ENDBRANCH  29  31
ENDBRANCH  20  27
ENDBRANCH   1  20
TORSDOF 8
ENDMDL
