MODEL 1
REMARK VINA RESULT:      -5.6      0.000      0.000
REMARK  Name = 
REMARK  14 active torsions:
REMARK  status: ('A' for Active; 'I' for Inactive)
REMARK    1  A    between atoms: C_2  and  O_3
REMARK    2  A    between atoms: C_5  and  C_7
REMARK    3  A    between atoms: C_7  and  O_8
REMARK    4  A    between atoms: C_9  and  O_11
REMARK    5  A    between atoms: C_12  and  O_14
REMARK    6  A    between atoms: C_15  and  O_17
REMARK    7  A    between atoms: O_17  and  C_18
REMARK    8  A    between atoms: C_18  and  C_19
REMARK    9  A    between atoms: C_19  and  C_20
REMARK   10  A    between atoms: C_20  and  C_21
REMARK   11  A    between atoms: C_21  and  C_22
REMARK   12  A    between atoms: C_22  and  C_23
REMARK   13  A    between atoms: C_23  and  C_24
REMARK   14  A    between atoms: C_24  and  C_25
REMARK                            x       y       z     vdW  Elec       q    Type
REMARK                         _______ _______ _______ _____ _____    ______ ____
ROOT
ATOM      1  C   UNL     1       7.459  -5.207  25.695  0.00  0.00    +0.279 C 
ATOM      2  C   UNL     1       8.245  -5.262  24.356  0.00  0.00    +0.205 C 
ATOM      3  C   UNL     1       7.300  -4.962  23.177  0.00  0.00    +0.179 C 
ATOM      4  C   UNL     1       5.981  -5.737  23.278  0.00  0.00    +0.177 C 
ATOM      5  C   UNL     1       5.349  -5.519  24.650  0.00  0.00    +0.178 C 
ATOM      6  O   UNL     1       6.247  -5.941  25.676  0.00  0.00    -0.341 OA
ENDROOT
BRANCH   3   7
ATOM      7  O   UNL     1       7.923  -5.300  21.923  0.00  0.00    -0.386 OA
ATOM      8  H   UNL     1       8.881  -5.364  22.096  0.00  0.00    +0.210 HD
ENDBRANCH   3   7
BRANCH   4   9
ATOM      9  O   UNL     1       5.114  -5.322  22.213  0.00  0.00    -0.386 OA
ATOM     10  H   UNL     1       4.553  -6.070  21.953  0.00  0.00    +0.210 HD
ENDBRANCH   4   9
BRANCH   1  11
ATOM     11  O   UNL     1       8.224  -5.800  26.740  0.00  0.00    -0.365 OA
ATOM     12  H   UNL     1       9.089  -6.000  26.345  0.00  0.00    +0.213 HD
ENDBRANCH   1  11
BRANCH   2  13
ATOM     13  O   UNL     1       9.314  -4.278  24.319  0.00  0.00    -0.369 OA
BRANCH  13  14
ATOM     14  C   UNL     1       8.827  -2.939  24.354  0.00  0.00    +0.160 C 
BRANCH  14  15
ATOM     15  C   UNL     1       9.709  -2.012  23.529  0.00  0.00    +0.028 C 
BRANCH  15  16
ATOM     16  C   UNL     1       8.953  -1.615  22.261  0.00  0.00    +0.002 C 
BRANCH  16  17
ATOM     17  C   UNL     1       9.668  -0.535  21.459  0.00  0.00    +0.000 C 
BRANCH  17  18
ATOM     18  C   UNL     1       9.019   0.827  21.712  0.00  0.00    -0.000 C 
BRANCH  18  19
ATOM     19  C   UNL     1      10.054   1.858  22.152  0.00  0.00    -0.000 C 
BRANCH  19  20
ATOM     20  C   UNL     1      10.427   1.676  23.622  0.00  0.00    -0.003 C 
ATOM     21  C   UNL     1       9.234   1.938  24.525  0.00  0.00    +0.004 C 
ENDBRANCH  19  20
ENDBRANCH  18  19
ENDBRANCH  17  18
ENDBRANCH  16  17
ENDBRANCH  15  16
ENDBRANCH  14  15
ENDBRANCH  13  14
ENDBRANCH   2  13
BRANCH   5  22
ATOM     22  C   UNL     1       4.066  -6.337  24.827  0.00  0.00    +0.190 C 
BRANCH  22  23
ATOM     23  O   UNL     1       4.155  -7.518  24.026  0.00  0.00    -0.392 OA
ATOM     24  H   UNL     1       3.695  -8.213  24.535  0.00  0.00    +0.210 HD
ENDBRANCH  22  23
ENDBRANCH   5  22
TORSDOF 13
ENDMDL
MODEL 2
REMARK VINA RESULT:      -5.4      1.951      2.828
REMARK  Name = 
REMARK  14 active torsions:
REMARK  status: ('A' for Active; 'I' for Inactive)
REMARK    1  A    between atoms: C_2  and  O_3
REMARK    2  A    between atoms: C_5  and  C_7
REMARK    3  A    between atoms: C_7  and  O_8
REMARK    4  A    between atoms: C_9  and  O_11
REMARK    5  A    between atoms: C_12  and  O_14
REMARK    6  A    between atoms: C_15  and  O_17
REMARK    7  A    between atoms: O_17  and  C_18
REMARK    8  A    between atoms: C_18  and  C_19
REMARK    9  A    between atoms: C_19  and  C_20
REMARK   10  A    between atoms: C_20  and  C_21
REMARK   11  A    between atoms: C_21  and  C_22
REMARK   12  A    between atoms: C_22  and  C_23
REMARK   13  A    between atoms: C_23  and  C_24
REMARK   14  A    between atoms: C_24  and  C_25
REMARK                            x       y       z     vdW  Elec       q    Type
REMARK                         _______ _______ _______ _____ _____    ______ ____
ROOT
ATOM      1  C   UNL     1       8.511  -4.161  24.406  0.00  0.00    +0.279 C 
ATOM      2  C   UNL     1       8.121  -2.684  24.119  0.00  0.00    +0.205 C 
ATOM      3  C   UNL     1       6.726  -2.625  23.467  0.00  0.00    +0.179 C 
ATOM      4  C   UNL     1       6.568  -3.651  22.338  0.00  0.00    +0.177 C 
ATOM      5  C   UNL     1       6.963  -5.040  22.834  0.00  0.00    +0.178 C 
ATOM      6  O   UNL     1       8.311  -5.028  23.304  0.00  0.00    -0.341 OA
ENDROOT
BRANCH   3   7
ATOM      7  O   UNL     1       6.472  -1.317  22.921  0.00  0.00    -0.386 OA
ATOM      8  H   UNL     1       7.313  -1.007  22.537  0.00  0.00    +0.210 HD
ENDBRANCH   3   7
BRANCH   4   9
ATOM      9  O   UNL     1       5.216  -3.613  21.860  0.00  0.00    -0.386 OA
ATOM     10  H   UNL     1       4.643  -4.063  22.500  0.00  0.00    +0.210 HD
ENDBRANCH   4   9
BRANCH   1  11
ATOM     11  O   UNL     1       9.904  -4.255  24.690  0.00  0.00    -0.365 OA
ATOM     12  H   UNL     1       9.960  -4.569  25.608  0.00  0.00    +0.213 HD
ENDBRANCH   1  11
BRANCH   2  13
ATOM     13  O   UNL     1       8.065  -1.896  25.339  0.00  0.00    -0.369 OA
BRANCH  13  14
ATOM     14  C   UNL     1       9.050  -0.866  25.370  0.00  0.00    +0.160 C 
BRANCH  14  15
ATOM     15  C   UNL     1       9.864  -0.846  24.084  0.00  0.00    +0.028 C 
BRANCH  15  16
ATOM     16  C   UNL     1      10.736   0.409  24.074  0.00  0.00    +0.002 C 
BRANCH  16  17
ATOM     17  C   UNL     1       9.988   1.646  23.596  0.00  0.00    +0.000 C 
BRANCH  17  18
ATOM     18  C   UNL     1       9.996   1.711  22.067  0.00  0.00    -0.000 C 
BRANCH  18  19
ATOM     19  C   UNL     1       8.593   1.514  21.500  0.00  0.00    -0.000 C 
BRANCH  19  20
ATOM     20  C   UNL     1       7.526   2.004  22.478  0.00  0.00    -0.003 C 
ATOM     21  C   UNL     1       7.049   3.399  22.111  0.00  0.00    +0.004 C 
ENDBRANCH  19  20
ENDBRANCH  18  19
ENDBRANCH  17  18
ENDBRANCH  16  17
ENDBRANCH  15  16
ENDBRANCH  14  15
ENDBRANCH  13  14
ENDBRANCH   2  13
BRANCH   5  22
ATOM     22  C   UNL     1       6.896  -6.087  21.718  0.00  0.00    +0.190 C 
BRANCH  22  23
ATOM     23  O   UNL     1       5.530  -6.449  21.502  0.00  0.00    -0.392 OA
ATOM     24  H   UNL     1       5.223  -6.823  22.351  0.00  0.00    +0.210 HD
ENDBRANCH  22  23
ENDBRANCH   5  22
TORSDOF 13
ENDMDL
MODEL 3
REMARK VINA RESULT:      -5.4      1.679      2.422
REMARK  Name = 
REMARK  14 active torsions:
REMARK  status: ('A' for Active; 'I' for Inactive)
REMARK    1  A    between atoms: C_2  and  O_3
REMARK    2  A    between atoms: C_5  and  C_7
REMARK    3  A    between atoms: C_7  and  O_8
REMARK    4  A    between atoms: C_9  and  O_11
REMARK    5  A    between atoms: C_12  and  O_14
REMARK    6  A    between atoms: C_15  and  O_17
REMARK    7  A    between atoms: O_17  and  C_18
REMARK    8  A    between atoms: C_18  and  C_19
REMARK    9  A    between atoms: C_19  and  C_20
REMARK   10  A    between atoms: C_20  and  C_21
REMARK   11  A    between atoms: C_21  and  C_22
REMARK   12  A    between atoms: C_22  and  C_23
REMARK   13  A    between atoms: C_23  and  C_24
REMARK   14  A    between atoms: C_24  and  C_25
REMARK                            x       y       z     vdW  Elec       q    Type
REMARK                         _______ _______ _______ _____ _____    ______ ____
ROOT
ATOM      1  C   UNL     1       8.299  -4.821  26.508  0.00  0.00    +0.279 C 
ATOM      2  C   UNL     1       7.711  -5.134  25.104  0.00  0.00    +0.205 C 
ATOM      3  C   UNL     1       6.173  -5.186  25.175  0.00  0.00    +0.179 C 
ATOM      4  C   UNL     1       5.674  -6.007  26.371  0.00  0.00    +0.177 C 
ATOM      5  C   UNL     1       6.339  -5.518  27.656  0.00  0.00    +0.178 C 
ATOM      6  O   UNL     1       7.759  -5.624  27.543  0.00  0.00    -0.341 OA
ENDROOT
BRANCH   3   7
ATOM      7  O   UNL     1       5.623  -5.764  23.976  0.00  0.00    -0.386 OA
ATOM      8  H   UNL     1       6.010  -5.272  23.228  0.00  0.00    +0.210 HD
ENDBRANCH   3   7
BRANCH   4   9
ATOM      9  O   UNL     1       4.244  -5.915  26.436  0.00  0.00    -0.386 OA
ATOM     10  H   UNL     1       3.870  -6.233  25.599  0.00  0.00    +0.210 HD
ENDBRANCH   4   9
BRANCH   1  11
ATOM     11  O   UNL     1       9.696  -5.098  26.529  0.00  0.00    -0.365 OA
ATOM     12  H   UNL     1       9.811  -5.798  27.193  0.00  0.00    +0.213 HD
ENDBRANCH   1  11
BRANCH   2  13
ATOM     13  O   UNL     1       8.067  -4.113  24.132  0.00  0.00    -0.369 OA
BRANCH  13  14
ATOM     14  C   UNL     1       7.538  -2.832  24.465  0.00  0.00    +0.160 C 
BRANCH  14  15
ATOM     15  C   UNL     1       8.243  -1.728  23.688  0.00  0.00    +0.028 C 
BRANCH  15  16
ATOM     16  C   UNL     1       9.645  -2.210  23.315  0.00  0.00    +0.002 C 
BRANCH  16  17
ATOM     17  C   UNL     1      10.423  -1.189  22.494  0.00  0.00    +0.000 C 
BRANCH  17  18
ATOM     18  C   UNL     1       9.458  -0.297  21.709  0.00  0.00    -0.000 C 
BRANCH  18  19
ATOM     19  C   UNL     1       9.779   1.180  21.918  0.00  0.00    -0.000 C 
BRANCH  19  20
ATOM     20  C   UNL     1      10.367   1.428  23.307  0.00  0.00    -0.003 C 
ATOM     21  C   UNL     1       9.302   1.922  24.270  0.00  0.00    +0.004 C 
ENDBRANCH  19  20
ENDBRANCH  18  19
ENDBRANCH  17  18
ENDBRANCH  16  17
ENDBRANCH  15  16
ENDBRANCH  14  15
ENDBRANCH  13  14
ENDBRANCH   2  13
BRANCH   5  22
ATOM     22  C   UNL     1       5.931  -6.360  28.868  0.00  0.00    +0.190 C 
BRANCH  22  23
ATOM     23  O   UNL     1       5.460  -7.631  28.413  0.00  0.00    -0.392 OA
ATOM     24  H   UNL     1       6.085  -7.906  27.715  0.00  0.00    +0.210 HD
ENDBRANCH  22  23
ENDBRANCH   5  22
TORSDOF 13
ENDMDL
MODEL 4
REMARK VINA RESULT:      -5.2      3.441      7.347
REMARK  Name = 
REMARK  14 active torsions:
REMARK  status: ('A' for Active; 'I' for Inactive)
REMARK    1  A    between atoms: C_2  and  O_3
REMARK    2  A    between atoms: C_5  and  C_7
REMARK    3  A    between atoms: C_7  and  O_8
REMARK    4  A    between atoms: C_9  and  O_11
REMARK    5  A    between atoms: C_12  and  O_14
REMARK    6  A    between atoms: C_15  and  O_17
REMARK    7  A    between atoms: O_17  and  C_18
REMARK    8  A    between atoms: C_18  and  C_19
REMARK    9  A    between atoms: C_19  and  C_20
REMARK   10  A    between atoms: C_20  and  C_21
REMARK   11  A    between atoms: C_21  and  C_22
REMARK   12  A    between atoms: C_22  and  C_23
REMARK   13  A    between atoms: C_23  and  C_24
REMARK   14  A    between atoms: C_24  and  C_25
REMARK                            x       y       z     vdW  Elec       q    Type
REMARK                         _______ _______ _______ _____ _____    ______ ____
ROOT
ATOM      1  C   UNL     1       9.655   0.105  25.001  0.00  0.00    +0.279 C 
ATOM      2  C   UNL     1       9.430  -0.695  23.688  0.00  0.00    +0.205 C 
ATOM      3  C   UNL     1      10.018   0.077  22.492  0.00  0.00    +0.179 C 
ATOM      4  C   UNL     1       9.635   1.562  22.513  0.00  0.00    +0.177 C 
ATOM      5  C   UNL     1       9.974   2.171  23.872  0.00  0.00    +0.178 C 
ATOM      6  O   UNL     1       9.285   1.470  24.908  0.00  0.00    -0.341 OA
ENDROOT
BRANCH   3   7
ATOM      7  O   UNL     1       9.564  -0.484  21.246  0.00  0.00    -0.386 OA
ATOM      8  H   UNL     1      10.363  -0.733  20.745  0.00  0.00    +0.210 HD
ENDBRANCH   3   7
BRANCH   4   9
ATOM      9  O   UNL     1      10.310   2.233  21.439  0.00  0.00    -0.386 OA
ATOM     10  H   UNL     1       9.707   2.299  20.681  0.00  0.00    +0.210 HD
ENDBRANCH   4   9
BRANCH   1  11
ATOM     11  O   UNL     1       8.839  -0.420  26.043  0.00  0.00    -0.365 OA
ATOM     12  H   UNL     1       8.268   0.316  26.320  0.00  0.00    +0.213 HD
ENDBRANCH   1  11
BRANCH   2  13
ATOM     13  O   UNL     1      10.081  -1.994  23.730  0.00  0.00    -0.369 OA
BRANCH  13  14
ATOM     14  C   UNL     1       9.153  -3.073  23.663  0.00  0.00    +0.160 C 
BRANCH  14  15
ATOM     15  C   UNL     1       9.294  -3.994  24.868  0.00  0.00    +0.028 C 
BRANCH  15  16
ATOM     16  C   UNL     1       8.030  -3.884  25.720  0.00  0.00    +0.002 C 
BRANCH  16  17
ATOM     17  C   UNL     1       6.826  -3.387  24.931  0.00  0.00    +0.000 C 
BRANCH  17  18
ATOM     18  C   UNL     1       5.660  -4.367  25.073  0.00  0.00    -0.000 C 
BRANCH  18  19
ATOM     19  C   UNL     1       5.811  -5.547  24.116  0.00  0.00    -0.000 C 
BRANCH  19  20
ATOM     20  C   UNL     1       6.065  -5.071  22.686  0.00  0.00    -0.003 C 
ATOM     21  C   UNL     1       7.177  -5.874  22.034  0.00  0.00    +0.004 C 
ENDBRANCH  19  20
ENDBRANCH  18  19
ENDBRANCH  17  18
ENDBRANCH  16  17
ENDBRANCH  15  16
ENDBRANCH  14  15
ENDBRANCH  13  14
ENDBRANCH   2  13
BRANCH   5  22
ATOM     22  C   UNL     1       9.536   3.636  23.968  0.00  0.00    +0.190 C 
BRANCH  22  23
ATOM     23  O   UNL     1      10.492   4.451  23.285  0.00  0.00    -0.392 OA
ATOM     24  H   UNL     1      11.000   4.900  23.988  0.00  0.00    +0.210 HD
ENDBRANCH  22  23
ENDBRANCH   5  22
TORSDOF 13
ENDMDL
MODEL 5
REMARK VINA RESULT:      -5.2      1.614      3.190
REMARK  Name = 
REMARK  14 active torsions:
REMARK  status: ('A' for Active; 'I' for Inactive)
REMARK    1  A    between atoms: C_2  and  O_3
REMARK    2  A    between atoms: C_5  and  C_7
REMARK    3  A    between atoms: C_7  and  O_8
REMARK    4  A    between atoms: C_9  and  O_11
REMARK    5  A    between atoms: C_12  and  O_14
REMARK    6  A    between atoms: C_15  and  O_17
REMARK    7  A    between atoms: O_17  and  C_18
REMARK    8  A    between atoms: C_18  and  C_19
REMARK    9  A    between atoms: C_19  and  C_20
REMARK   10  A    between atoms: C_20  and  C_21
REMARK   11  A    between atoms: C_21  and  C_22
REMARK   12  A    between atoms: C_22  and  C_23
REMARK   13  A    between atoms: C_23  and  C_24
REMARK   14  A    between atoms: C_24  and  C_25
REMARK                            x       y       z     vdW  Elec       q    Type
REMARK                         _______ _______ _______ _____ _____    ______ ____
ROOT
ATOM      1  C   UNL     1       6.492  -4.476  24.331  0.00  0.00    +0.279 C 
ATOM      2  C   UNL     1       7.762  -3.917  25.032  0.00  0.00    +0.205 C 
ATOM      3  C   UNL     1       8.209  -4.872  26.154  0.00  0.00    +0.179 C 
ATOM      4  C   UNL     1       7.036  -5.328  27.031  0.00  0.00    +0.177 C 
ATOM      5  C   UNL     1       5.912  -5.880  26.157  0.00  0.00    +0.178 C 
ATOM      6  O   UNL     1       5.477  -4.883  25.232  0.00  0.00    -0.341 OA
ENDROOT
BRANCH   3   7
ATOM      7  O   UNL     1       9.185  -4.242  27.005  0.00  0.00    -0.386 OA
ATOM      8  H   UNL     1       8.922  -4.440  27.923  0.00  0.00    +0.210 HD
ENDBRANCH   3   7
BRANCH   4   9
ATOM      9  O   UNL     1       7.510  -6.298  27.976  0.00  0.00    -0.386 OA
ATOM     10  H   UNL     1       8.126  -5.866  28.588  0.00  0.00    +0.210 HD
ENDBRANCH   4   9
BRANCH   1  11
ATOM     11  O   UNL     1       5.883  -3.463  23.536  0.00  0.00    -0.365 OA
ATOM     12  H   UNL     1       6.328  -3.509  22.673  0.00  0.00    +0.213 HD
ENDBRANCH   1  11
BRANCH   2  13
ATOM     13  O   UNL     1       8.874  -3.784  24.104  0.00  0.00    -0.369 OA
BRANCH  13  14
ATOM     14  C   UNL     1       9.382  -2.453  24.047  0.00  0.00    +0.160 C 
BRANCH  14  15
ATOM     15  C   UNL     1       8.533  -1.505  24.883  0.00  0.00    +0.028 C 
BRANCH  15  16
ATOM     16  C   UNL     1       9.394  -0.311  25.296  0.00  0.00    +0.002 C 
BRANCH  16  17
ATOM     17  C   UNL     1       8.781   1.025  24.898  0.00  0.00    +0.000 C 
BRANCH  17  18
ATOM     18  C   UNL     1       9.865   1.968  24.372  0.00  0.00    -0.000 C 
BRANCH  18  19
ATOM     19  C   UNL     1      10.471   1.443  23.074  0.00  0.00    -0.000 C 
BRANCH  19  20
ATOM     20  C   UNL     1       9.443   1.444  21.943  0.00  0.00    -0.003 C 
ATOM     21  C   UNL     1       9.284   0.055  21.349  0.00  0.00    +0.004 C 
ENDBRANCH  19  20
ENDBRANCH  18  19
ENDBRANCH  17  18
ENDBRANCH  16  17
ENDBRANCH  15  16
ENDBRANCH  14  15
ENDBRANCH  13  14
ENDBRANCH   2  13
BRANCH   5  22
ATOM     22  C   UNL     1       4.686  -6.276  26.984  0.00  0.00    +0.190 C 
BRANCH  22  23
ATOM     23  O   UNL     1       5.006  -7.429  27.766  0.00  0.00    -0.392 OA
ATOM     24  H   UNL     1       4.966  -7.132  28.696  0.00  0.00    +0.210 HD
ENDBRANCH  22  23
ENDBRANCH   5  22
TORSDOF 13
ENDMDL
MODEL 6
REMARK VINA RESULT:      -5.0      2.565      4.125
REMARK  Name = 
REMARK  14 active torsions:
REMARK  status: ('A' for Active; 'I' for Inactive)
REMARK    1  A    between atoms: C_2  and  O_3
REMARK    2  A    between atoms: C_5  and  C_7
REMARK    3  A    between atoms: C_7  and  O_8
REMARK    4  A    between atoms: C_9  and  O_11
REMARK    5  A    between atoms: C_12  and  O_14
REMARK    6  A    between atoms: C_15  and  O_17
REMARK    7  A    between atoms: O_17  and  C_18
REMARK    8  A    between atoms: C_18  and  C_19
REMARK    9  A    between atoms: C_19  and  C_20
REMARK   10  A    between atoms: C_20  and  C_21
REMARK   11  A    between atoms: C_21  and  C_22
REMARK   12  A    between atoms: C_22  and  C_23
REMARK   13  A    between atoms: C_23  and  C_24
REMARK   14  A    between atoms: C_24  and  C_25
REMARK                            x       y       z     vdW  Elec       q    Type
REMARK                         _______ _______ _______ _____ _____    ______ ____
ROOT
ATOM      1  C   UNL     1       8.592  -1.285  26.187  0.00  0.00    +0.279 C 
ATOM      2  C   UNL     1       9.568  -1.216  24.980  0.00  0.00    +0.205 C 
ATOM      3  C   UNL     1       9.261  -2.354  23.987  0.00  0.00    +0.179 C 
ATOM      4  C   UNL     1       9.069  -3.703  24.691  0.00  0.00    +0.177 C 
ATOM      5  C   UNL     1       8.045  -3.566  25.815  0.00  0.00    +0.178 C 
ATOM      6  O   UNL     1       8.475  -2.579  26.752  0.00  0.00    -0.341 OA
ENDROOT
BRANCH   3   7
ATOM      7  O   UNL     1      10.325  -2.497  23.027  0.00  0.00    -0.386 OA
ATOM      8  H   UNL     1      10.738  -3.365  23.197  0.00  0.00    +0.210 HD
ENDBRANCH   3   7
BRANCH   4   9
ATOM      9  O   UNL     1       8.677  -4.683  23.720  0.00  0.00    -0.386 OA
ATOM     10  H   UNL     1       7.824  -5.064  23.983  0.00  0.00    +0.210 HD
ENDBRANCH   4   9
BRANCH   1  11
ATOM     11  O   UNL     1       9.068  -0.468  27.252  0.00  0.00    -0.365 OA
ATOM     12  H   UNL     1       8.424  -0.578  27.971  0.00  0.00    +0.213 HD
ENDBRANCH   1  11
BRANCH   2  13
ATOM     13  O   UNL     1       9.442   0.039  24.256  0.00  0.00    -0.369 OA
BRANCH  13  14
ATOM     14  C   UNL     1      10.631   0.823  24.309  0.00  0.00    +0.160 C 
BRANCH  14  15
ATOM     15  C   UNL     1      10.433   2.168  23.623  0.00  0.00    +0.028 C 
BRANCH  15  16
ATOM     16  C   UNL     1      10.013   1.921  22.173  0.00  0.00    +0.002 C 
BRANCH  16  17
ATOM     17  C   UNL     1       8.556   2.277  21.911  0.00  0.00    +0.000 C 
BRANCH  17  18
ATOM     18  C   UNL     1       7.989   3.084  23.080  0.00  0.00    -0.000 C 
BRANCH  18  19
ATOM     19  C   UNL     1       7.653   4.510  22.655  0.00  0.00    -0.000 C 
BRANCH  19  20
ATOM     20  C   UNL     1       8.069   5.520  23.724  0.00  0.00    -0.003 C 
ATOM     21  C   UNL     1       9.490   6.003  23.496  0.00  0.00    +0.004 C 
ENDBRANCH  19  20
ENDBRANCH  18  19
ENDBRANCH  17  18
ENDBRANCH  16  17
ENDBRANCH  15  16
ENDBRANCH  14  15
ENDBRANCH  13  14
ENDBRANCH   2  13
BRANCH   5  22
ATOM     22  C   UNL     1       7.878  -4.872  26.599  0.00  0.00    +0.190 C 
BRANCH  22  23
ATOM     23  O   UNL     1       9.021  -5.699  26.371  0.00  0.00    -0.392 OA
ATOM     24  H   UNL     1       9.211  -5.623  25.416  0.00  0.00    +0.210 HD
ENDBRANCH  22  23
ENDBRANCH   5  22
TORSDOF 13
ENDMDL
MODEL 7
REMARK VINA RESULT:      -4.9      2.160      3.552
REMARK  Name = 
REMARK  14 active torsions:
REMARK  status: ('A' for Active; 'I' for Inactive)
REMARK    1  A    between atoms: C_2  and  O_3
REMARK    2  A    between atoms: C_5  and  C_7
REMARK    3  A    between atoms: C_7  and  O_8
REMARK    4  A    between atoms: C_9  and  O_11
REMARK    5  A    between atoms: C_12  and  O_14
REMARK    6  A    between atoms: C_15  and  O_17
REMARK    7  A    between atoms: O_17  and  C_18
REMARK    8  A    between atoms: C_18  and  C_19
REMARK    9  A    between atoms: C_19  and  C_20
REMARK   10  A    between atoms: C_20  and  C_21
REMARK   11  A    between atoms: C_21  and  C_22
REMARK   12  A    between atoms: C_22  and  C_23
REMARK   13  A    between atoms: C_23  and  C_24
REMARK   14  A    between atoms: C_24  and  C_25
REMARK                            x       y       z     vdW  Elec       q    Type
REMARK                         _______ _______ _______ _____ _____    ______ ____
ROOT
ATOM      1  C   UNL     1       6.549  -2.560  24.271  0.00  0.00    +0.279 C 
ATOM      2  C   UNL     1       7.993  -2.107  23.919  0.00  0.00    +0.205 C 
ATOM      3  C   UNL     1       8.915  -3.335  23.788  0.00  0.00    +0.179 C 
ATOM      4  C   UNL     1       8.725  -4.329  24.940  0.00  0.00    +0.177 C 
ATOM      5  C   UNL     1       7.246  -4.676  25.095  0.00  0.00    +0.178 C 
ATOM      6  O   UNL     1       6.488  -3.491  25.338  0.00  0.00    -0.341 OA
ENDROOT
BRANCH   3   7
ATOM      7  O   UNL     1      10.298  -2.937  23.763  0.00  0.00    -0.386 OA
ATOM      8  H   UNL     1      10.624  -3.007  24.680  0.00  0.00    +0.210 HD
ENDBRANCH   3   7
BRANCH   4   9
ATOM      9  O   UNL     1       9.529  -5.491  24.690  0.00  0.00    -0.386 OA
ATOM     10  H   UNL     1      10.161  -5.290  23.982  0.00  0.00    +0.210 HD
ENDBRANCH   4   9
BRANCH   1  11
ATOM     11  O   UNL     1       5.780  -1.448  24.718  0.00  0.00    -0.365 OA
ATOM     12  H   UNL     1       5.713  -0.855  23.951  0.00  0.00    +0.213 HD
ENDBRANCH   1  11
BRANCH   2  13
ATOM     13  O   UNL     1       8.040  -1.391  22.654  0.00  0.00    -0.369 OA
BRANCH  13  14
ATOM     14  C   UNL     1       8.468  -0.040  22.805  0.00  0.00    +0.160 C 
BRANCH  14  15
ATOM     15  C   UNL     1       9.221   0.438  21.571  0.00  0.00    +0.028 C 
BRANCH  15  16
ATOM     16  C   UNL     1      10.065   1.654  21.952  0.00  0.00    +0.002 C 
BRANCH  16  17
ATOM     17  C   UNL     1      10.103   1.900  23.455  0.00  0.00    +0.000 C 
BRANCH  17  18
ATOM     18  C   UNL     1       9.727   3.350  23.763  0.00  0.00    -0.000 C 
BRANCH  18  19
ATOM     19  C   UNL     1       8.239   3.480  24.076  0.00  0.00    -0.000 C 
BRANCH  19  20
ATOM     20  C   UNL     1       7.964   3.261  25.563  0.00  0.00    -0.003 C 
ATOM     21  C   UNL     1       7.259   1.937  25.799  0.00  0.00    +0.004 C 
ENDBRANCH  19  20
ENDBRANCH  18  19
ENDBRANCH  17  18
ENDBRANCH  16  17
ENDBRANCH  15  16
ENDBRANCH  14  15
ENDBRANCH  13  14
ENDBRANCH   2  13
BRANCH   5  22
ATOM     22  C   UNL     1       6.998  -5.606  26.286  0.00  0.00    +0.190 C 
BRANCH  22  23
ATOM     23  O   UNL     1       8.208  -5.730  27.038  0.00  0.00    -0.392 OA
ATOM     24  H   UNL     1       8.421  -6.683  27.033  0.00  0.00    +0.210 HD
ENDBRANCH  22  23
ENDBRANCH   5  22
TORSDOF 13
ENDMDL
MODEL 8
REMARK VINA RESULT:      -4.9      4.240      7.470
REMARK  Name = 
REMARK  14 active torsions:
REMARK  status: ('A' for Active; 'I' for Inactive)
REMARK    1  A    between atoms: C_2  and  O_3
REMARK    2  A    between atoms: C_5  and  C_7
REMARK    3  A    between atoms: C_7  and  O_8
REMARK    4  A    between atoms: C_9  and  O_11
REMARK    5  A    between atoms: C_12  and  O_14
REMARK    6  A    between atoms: C_15  and  O_17
REMARK    7  A    between atoms: O_17  and  C_18
REMARK    8  A    between atoms: C_18  and  C_19
REMARK    9  A    between atoms: C_19  and  C_20
REMARK   10  A    between atoms: C_20  and  C_21
REMARK   11  A    between atoms: C_21  and  C_22
REMARK   12  A    between atoms: C_22  and  C_23
REMARK   13  A    between atoms: C_23  and  C_24
REMARK   14  A    between atoms: C_24  and  C_25
REMARK                            x       y       z     vdW  Elec       q    Type
REMARK                         _______ _______ _______ _____ _____    ______ ____
ROOT
ATOM      1  C   UNL     1       8.682   1.772  21.651  0.00  0.00    +0.279 C 
ATOM      2  C   UNL     1       8.386   0.551  22.566  0.00  0.00    +0.205 C 
ATOM      3  C   UNL     1       6.891   0.520  22.937  0.00  0.00    +0.179 C 
ATOM      4  C   UNL     1       6.370   1.896  23.369  0.00  0.00    +0.177 C 
ATOM      5  C   UNL     1       6.727   2.945  22.319  0.00  0.00    +0.178 C 
ATOM      6  O   UNL     1       8.143   2.990  22.133  0.00  0.00    -0.341 OA
ENDROOT
BRANCH   3   7
ATOM      7  O   UNL     1       6.649  -0.408  24.011  0.00  0.00    -0.386 OA
ATOM      8  H   UNL     1       6.907   0.047  24.835  0.00  0.00    +0.210 HD
ENDBRANCH   3   7
BRANCH   4   9
ATOM      9  O   UNL     1       4.955   1.811  23.587  0.00  0.00    -0.386 OA
ATOM     10  H   UNL     1       4.573   2.701  23.524  0.00  0.00    +0.210 HD
ENDBRANCH   4   9
BRANCH   1  11
ATOM     11  O   UNL     1      10.086   2.003  21.578  0.00  0.00    -0.365 OA
ATOM     12  H   UNL     1      10.184   2.963  21.469  0.00  0.00    +0.213 HD
ENDBRANCH   1  11
BRANCH   2  13
ATOM     13  O   UNL     1       8.697  -0.705  21.905  0.00  0.00    -0.369 OA
BRANCH  13  14
ATOM     14  C   UNL     1       9.925  -1.271  22.356  0.00  0.00    +0.160 C 
BRANCH  14  15
ATOM     15  C   UNL     1       9.899  -1.512  23.859  0.00  0.00    +0.028 C 
BRANCH  15  16
ATOM     16  C   UNL     1       9.666  -3.001  24.113  0.00  0.00    +0.002 C 
BRANCH  16  17
ATOM     17  C   UNL     1       8.356  -3.280  24.839  0.00  0.00    +0.000 C 
BRANCH  17  18
ATOM     18  C   UNL     1       7.596  -4.411  24.142  0.00  0.00    -0.000 C 
BRANCH  18  19
ATOM     19  C   UNL     1       7.406  -4.115  22.657  0.00  0.00    -0.000 C 
BRANCH  19  20
ATOM     20  C   UNL     1       7.190  -5.400  21.859  0.00  0.00    -0.003 C 
ATOM     21  C   UNL     1       5.796  -5.958  22.091  0.00  0.00    +0.004 C 
ENDBRANCH  19  20
ENDBRANCH  18  19
ENDBRANCH  17  18
ENDBRANCH  16  17
ENDBRANCH  15  16
ENDBRANCH  14  15
ENDBRANCH  13  14
ENDBRANCH   2  13
BRANCH   5  22
ATOM     22  C   UNL     1       6.296   4.351  22.745  0.00  0.00    +0.190 C 
BRANCH  22  23
ATOM     23  O   UNL     1       6.685   5.283  21.732  0.00  0.00    -0.392 OA
ATOM     24  H   UNL     1       7.204   4.764  21.088  0.00  0.00    +0.210 HD
ENDBRANCH  22  23
ENDBRANCH   5  22
TORSDOF 13
ENDMDL
MODEL 9
REMARK VINA RESULT:      -4.8      2.047      3.280
REMARK  Name = 
REMARK  14 active torsions:
REMARK  status: ('A' for Active; 'I' for Inactive)
REMARK    1  A    between atoms: C_2  and  O_3
REMARK    2  A    between atoms: C_5  and  C_7
REMARK    3  A    between atoms: C_7  and  O_8
REMARK    4  A    between atoms: C_9  and  O_11
REMARK    5  A    between atoms: C_12  and  O_14
REMARK    6  A    between atoms: C_15  and  O_17
REMARK    7  A    between atoms: O_17  and  C_18
REMARK    8  A    between atoms: C_18  and  C_19
REMARK    9  A    between atoms: C_19  and  C_20
REMARK   10  A    between atoms: C_20  and  C_21
REMARK   11  A    between atoms: C_21  and  C_22
REMARK   12  A    between atoms: C_22  and  C_23
REMARK   13  A    between atoms: C_23  and  C_24
REMARK   14  A    between atoms: C_24  and  C_25
REMARK                            x       y       z     vdW  Elec       q    Type
REMARK                         _______ _______ _______ _____ _____    ______ ____
ROOT
ATOM      1  C   UNL     1       6.334  -1.978  23.411  0.00  0.00    +0.279 C 
ATOM      2  C   UNL     1       7.734  -2.152  24.063  0.00  0.00    +0.205 C 
ATOM      3  C   UNL     1       8.420  -3.416  23.512  0.00  0.00    +0.179 C 
ATOM      4  C   UNL     1       7.477  -4.624  23.484  0.00  0.00    +0.177 C 
ATOM      5  C   UNL     1       6.179  -4.259  22.767  0.00  0.00    +0.178 C 
ATOM      6  O   UNL     1       5.550  -3.158  23.423  0.00  0.00    -0.341 OA
ENDROOT
BRANCH   3   7
ATOM      7  O   UNL     1       9.569  -3.763  24.307  0.00  0.00    -0.386 OA
ATOM      8  H   UNL     1       9.307  -3.651  25.240  0.00  0.00    +0.210 HD
ENDBRANCH   3   7
BRANCH   4   9
ATOM      9  O   UNL     1       8.148  -5.726  22.856  0.00  0.00    -0.386 OA
ATOM     10  H   UNL     1       9.104  -5.634  22.997  0.00  0.00    +0.210 HD
ENDBRANCH   4   9
BRANCH   1  11
ATOM     11  O   UNL     1       5.566  -1.027  24.142  0.00  0.00    -0.365 OA
ATOM     12  H   UNL     1       6.214  -0.439  24.563  0.00  0.00    +0.213 HD
ENDBRANCH   1  11
BRANCH   2  13
ATOM     13  O   UNL     1       8.605  -1.023  23.777  0.00  0.00    -0.369 OA
BRANCH  13  14
ATOM     14  C   UNL     1       8.484  -0.567  22.432  0.00  0.00    +0.160 C 
BRANCH  14  15
ATOM     15  C   UNL     1       9.825  -0.086  21.893  0.00  0.00    +0.028 C 
BRANCH  15  16
ATOM     16  C   UNL     1       9.866   1.440  21.972  0.00  0.00    +0.002 C 
BRANCH  16  17
ATOM     17  C   UNL     1      10.474   1.950  23.272  0.00  0.00    +0.000 C 
BRANCH  17  18
ATOM     18  C   UNL     1       9.478   2.851  24.005  0.00  0.00    -0.000 C 
BRANCH  18  19
ATOM     19  C   UNL     1       8.383   3.342  23.063  0.00  0.00    -0.000 C 
BRANCH  19  20
ATOM     20  C   UNL     1       6.994   3.090  23.649  0.00  0.00    -0.003 C 
ATOM     21  C   UNL     1       6.131   2.294  22.685  0.00  0.00    +0.004 C 
ENDBRANCH  19  20
ENDBRANCH  18  19
ENDBRANCH  17  18
ENDBRANCH  16  17
ENDBRANCH  15  16
ENDBRANCH  14  15
ENDBRANCH  13  14
ENDBRANCH   2  13
BRANCH   5  22
ATOM     22  C   UNL     1       5.172  -5.413  22.784  0.00  0.00    +0.190 C 
BRANCH  22  23
ATOM     23  O   UNL     1       5.470  -6.305  21.706  0.00  0.00    -0.392 OA
ATOM     24  H   UNL     1       6.293  -5.964  21.307  0.00  0.00    +0.210 HD
ENDBRANCH  22  23
ENDBRANCH   5  22
TORSDOF 13
ENDMDL
