MODEL 1
REMARK VINA RESULT:      -7.4      0.000      0.000
REMARK  Name = 
REMARK  5 active torsions:
REMARK  status: ('A' for Active; 'I' for Inactive)
REMARK    1  A    between atoms: C_2  and  C_11
REMARK    2  A    between atoms: N_3  and  C_4
REMARK    3  A    between atoms: C_4  and  C_5
REMARK    4  A    between atoms: C_14  and  O_15
REMARK    5  A    between atoms: O_15  and  C_16
REMARK                            x       y       z     vdW  Elec       q    Type
REMARK                         _______ _______ _______ _____ _____    ______ ____
ROOT
ATOM      1  C   UNL     1       9.805  -0.182  23.432  0.00  0.00    +0.037 A 
ATOM      2  C   UNL     1       9.857   0.475  22.194  0.00  0.00    +0.016 A 
ATOM      3  C   UNL     1       9.691   1.864  22.119  0.00  0.00    +0.047 A 
ATOM      4  C   UNL     1       9.497   2.606  23.286  0.00  0.00    +0.128 A 
ATOM      5  C   UNL     1       9.397   1.943  24.515  0.00  0.00    +0.047 A 
ATOM      6  C   UNL     1       9.552   0.556  24.593  0.00  0.00    +0.016 A 
ENDROOT
BRANCH   1   8
ATOM      7  O   UNL     1      10.650  -2.233  22.640  0.00  0.00    -0.270 OA
ATOM      8  C   UNL     1       9.949  -1.663  23.468  0.00  0.00    +0.244 C 
ATOM      9  N   UNL     1       9.287  -2.326  24.478  0.00  0.00    -0.306 N 
ATOM     10  H   UNL     1       8.937  -1.830  25.290  0.00  0.00    +0.149 HD
BRANCH   9  11
ATOM     11  C   UNL     1       9.438  -3.758  24.627  0.00  0.00    +0.160 C 
BRANCH  11  12
ATOM     12  C   UNL     1       8.140  -4.517  24.463  0.00  0.00    +0.058 A 
ATOM     13  C   UNL     1       7.393  -4.850  25.592  0.00  0.00    +0.025 A 
ATOM     14  C   UNL     1       6.149  -5.454  25.428  0.00  0.00    +0.003 A 
ATOM     15  C   UNL     1       5.679  -5.700  24.145  0.00  0.00    +0.020 A 
ATOM     16  C   UNL     1       6.483  -5.348  23.073  0.00  0.00    +0.111 A 
ATOM     17  N   UNL     1       7.700  -4.766  23.199  0.00  0.00    -0.258 NA
ENDBRANCH  11  12
ENDBRANCH   9  11
ENDBRANCH   1   8
BRANCH   4  18
ATOM     18  O   UNL     1       9.284   3.963  23.335  0.00  0.00    -0.456 OA
BRANCH  18  19
ATOM     19  C   UNL     1      10.274   4.829  23.740  0.00  0.00    +0.128 A 
ATOM     20  C   UNL     1      11.620   4.729  23.388  0.00  0.00    +0.046 A 
ATOM     21  C   UNL     1      12.542   5.659  23.878  0.00  0.00    +0.004 A 
ATOM     22  C   UNL     1      12.128   6.660  24.756  0.00  0.00    +0.000 A 
ATOM     23  C   UNL     1      10.795   6.729  25.155  0.00  0.00    +0.004 A 
ATOM     24  C   UNL     1       9.872   5.813  24.648  0.00  0.00    +0.046 A 
ENDBRANCH  18  19
ENDBRANCH   4  18
TORSDOF 5
ENDMDL
MODEL 2
REMARK VINA RESULT:      -7.3      1.167      1.721
REMARK  Name = 
REMARK  5 active torsions:
REMARK  status: ('A' for Active; 'I' for Inactive)
REMARK    1  A    between atoms: C_2  and  C_11
REMARK    2  A    between atoms: N_3  and  C_4
REMARK    3  A    between atoms: C_4  and  C_5
REMARK    4  A    between atoms: C_14  and  O_15
REMARK    5  A    between atoms: O_15  and  C_16
REMARK                            x       y       z     vdW  Elec       q    Type
REMARK                         _______ _______ _______ _____ _____    ______ ____
ROOT
ATOM      1  C   UNL     1       9.559   0.180  23.261  0.00  0.00    +0.037 A 
ATOM      2  C   UNL     1       9.381   0.871  22.054  0.00  0.00    +0.016 A 
ATOM      3  C   UNL     1       9.228   2.263  22.049  0.00  0.00    +0.047 A 
ATOM      4  C   UNL     1       9.278   2.974  23.250  0.00  0.00    +0.128 A 
ATOM      5  C   UNL     1       9.407   2.278  24.457  0.00  0.00    +0.047 A 
ATOM      6  C   UNL     1       9.550   0.887  24.468  0.00  0.00    +0.016 A 
ENDROOT
BRANCH   1   8
ATOM      7  O   UNL     1      10.592  -1.832  22.602  0.00  0.00    -0.270 OA
ATOM      8  C   UNL     1       9.683  -1.304  23.231  0.00  0.00    +0.244 C 
ATOM      9  N   UNL     1       8.754  -2.018  23.955  0.00  0.00    -0.306 N 
ATOM     10  H   UNL     1       8.184  -1.571  24.665  0.00  0.00    +0.149 HD
BRANCH   9  11
ATOM     11  C   UNL     1       8.851  -3.460  24.038  0.00  0.00    +0.160 C 
BRANCH  11  12
ATOM     12  C   UNL     1       7.851  -4.178  23.158  0.00  0.00    +0.058 A 
ATOM     13  C   UNL     1       6.876  -3.443  22.487  0.00  0.00    +0.025 A 
ATOM     14  C   UNL     1       6.027  -4.096  21.597  0.00  0.00    +0.003 A 
ATOM     15  C   UNL     1       6.180  -5.461  21.392  0.00  0.00    +0.020 A 
ATOM     16  C   UNL     1       7.167  -6.124  22.102  0.00  0.00    +0.111 A 
ATOM     17  N   UNL     1       8.004  -5.520  22.980  0.00  0.00    -0.258 NA
ENDBRANCH  11  12
ENDBRANCH   9  11
ENDBRANCH   1   8
BRANCH   4  18
ATOM     18  O   UNL     1       9.102   4.332  23.374  0.00  0.00    -0.456 OA
BRANCH  18  19
ATOM     19  C   UNL     1      10.063   5.128  23.954  0.00  0.00    +0.128 A 
ATOM     20  C   UNL     1       9.819   6.105  24.919  0.00  0.00    +0.046 A 
ATOM     21  C   UNL     1      10.875   6.869  25.423  0.00  0.00    +0.004 A 
ATOM     22  C   UNL     1      12.168   6.690  24.931  0.00  0.00    +0.000 A 
ATOM     23  C   UNL     1      12.406   5.754  23.926  0.00  0.00    +0.004 A 
ATOM     24  C   UNL     1      11.354   4.977  23.439  0.00  0.00    +0.046 A 
ENDBRANCH  18  19
ENDBRANCH   4  18
TORSDOF 5
ENDMDL
MODEL 3
REMARK VINA RESULT:      -7.0      2.310      9.059
REMARK  Name = 
REMARK  5 active torsions:
REMARK  status: ('A' for Active; 'I' for Inactive)
REMARK    1  A    between atoms: C_2  and  C_11
REMARK    2  A    between atoms: N_3  and  C_4
REMARK    3  A    between atoms: C_4  and  C_5
REMARK    4  A    between atoms: C_14  and  O_15
REMARK    5  A    between atoms: O_15  and  C_16
REMARK                            x       y       z     vdW  Elec       q    Type
REMARK                         _______ _______ _______ _____ _____    ______ ____
ROOT
ATOM      1  C   UNL     1       9.749   0.505  23.208  0.00  0.00    +0.037 A 
ATOM      2  C   UNL     1       9.972  -0.451  22.206  0.00  0.00    +0.016 A 
ATOM      3  C   UNL     1      10.051  -1.811  22.529  0.00  0.00    +0.047 A 
ATOM      4  C   UNL     1       9.881  -2.225  23.852  0.00  0.00    +0.128 A 
ATOM      5  C   UNL     1       9.706  -1.266  24.856  0.00  0.00    +0.047 A 
ATOM      6  C   UNL     1       9.637   0.094  24.540  0.00  0.00    +0.016 A 
ENDROOT
BRANCH   1   8
ATOM      7  O   UNL     1      10.105   2.305  21.730  0.00  0.00    -0.270 OA
ATOM      8  C   UNL     1       9.708   1.945  22.833  0.00  0.00    +0.244 C 
ATOM      9  N   UNL     1       9.183   2.814  23.764  0.00  0.00    -0.306 N 
ATOM     10  H   UNL     1       8.630   2.477  24.544  0.00  0.00    +0.149 HD
BRANCH   9  11
ATOM     11  C   UNL     1       9.039   4.219  23.446  0.00  0.00    +0.160 C 
BRANCH  11  12
ATOM     12  C   UNL     1      10.122   5.084  24.052  0.00  0.00    +0.058 A 
ATOM     13  C   UNL     1      11.416   5.020  23.541  0.00  0.00    +0.025 A 
ATOM     14  C   UNL     1      12.383   5.895  24.030  0.00  0.00    +0.003 A 
ATOM     15  C   UNL     1      12.031   6.817  25.007  0.00  0.00    +0.020 A 
ATOM     16  C   UNL     1      10.725   6.813  25.472  0.00  0.00    +0.111 A 
ATOM     17  N   UNL     1       9.764   5.971  25.022  0.00  0.00    -0.258 NA
ENDBRANCH  11  12
ENDBRANCH   9  11
ENDBRANCH   1   8
BRANCH   4  18
ATOM     18  O   UNL     1       9.975  -3.524  24.293  0.00  0.00    -0.456 OA
BRANCH  18  19
ATOM     19  C   UNL     1       8.883  -4.186  24.806  0.00  0.00    +0.128 A 
ATOM     20  C   UNL     1       7.687  -4.409  24.124  0.00  0.00    +0.046 A 
ATOM     21  C   UNL     1       6.636  -5.079  24.756  0.00  0.00    +0.004 A 
ATOM     22  C   UNL     1       6.762  -5.487  26.085  0.00  0.00    +0.000 A 
ATOM     23  C   UNL     1       7.935  -5.215  26.787  0.00  0.00    +0.004 A 
ATOM     24  C   UNL     1       8.991  -4.565  26.148  0.00  0.00    +0.046 A 
ENDBRANCH  18  19
ENDBRANCH   4  18
TORSDOF 5
ENDMDL
MODEL 4
REMARK VINA RESULT:      -6.9      2.064      3.242
REMARK  Name = 
REMARK  5 active torsions:
REMARK  status: ('A' for Active; 'I' for Inactive)
REMARK    1  A    between atoms: C_2  and  C_11
REMARK    2  A    between atoms: N_3  and  C_4
REMARK    3  A    between atoms: C_4  and  C_5
REMARK    4  A    between atoms: C_14  and  O_15
REMARK    5  A    between atoms: O_15  and  C_16
REMARK                            x       y       z     vdW  Elec       q    Type
REMARK                         _______ _______ _______ _____ _____    ______ ____
ROOT
ATOM      1  C   UNL     1       9.480  -2.358  23.993  0.00  0.00    +0.037 A 
ATOM      2  C   UNL     1       9.125  -2.294  22.638  0.00  0.00    +0.016 A 
ATOM      3  C   UNL     1       9.296  -1.107  21.915  0.00  0.00    +0.047 A 
ATOM      4  C   UNL     1       9.848   0.015  22.537  0.00  0.00    +0.128 A 
ATOM      5  C   UNL     1      10.157  -0.037  23.901  0.00  0.00    +0.047 A 
ATOM      6  C   UNL     1       9.978  -1.217  24.629  0.00  0.00    +0.016 A 
ENDROOT
BRANCH   1   8
ATOM      7  O   UNL     1      10.057  -4.545  24.654  0.00  0.00    -0.270 OA
ATOM      8  C   UNL     1       9.250  -3.626  24.739  0.00  0.00    +0.244 C 
ATOM      9  N   UNL     1       8.122  -3.686  25.528  0.00  0.00    -0.306 N 
ATOM     10  H   UNL     1       7.618  -2.845  25.788  0.00  0.00    +0.149 HD
BRANCH   9  11
ATOM     11  C   UNL     1       7.866  -4.854  26.343  0.00  0.00    +0.160 C 
BRANCH  11  12
ATOM     12  C   UNL     1       6.543  -5.521  26.036  0.00  0.00    +0.058 A 
ATOM     13  C   UNL     1       6.047  -5.491  24.734  0.00  0.00    +0.025 A 
ATOM     14  C   UNL     1       4.884  -6.196  24.435  0.00  0.00    +0.003 A 
ATOM     15  C   UNL     1       4.254  -6.920  25.438  0.00  0.00    +0.020 A 
ATOM     16  C   UNL     1       4.804  -6.894  26.710  0.00  0.00    +0.111 A 
ATOM     17  N   UNL     1       5.929  -6.213  27.034  0.00  0.00    -0.258 NA
ENDBRANCH  11  12
ENDBRANCH   9  11
ENDBRANCH   1   8
BRANCH   4  18
ATOM     18  O   UNL     1      10.028   1.241  21.943  0.00  0.00    -0.456 OA
BRANCH  18  19
ATOM     19  C   UNL     1       9.318   2.346  22.353  0.00  0.00    +0.128 A 
ATOM     20  C   UNL     1       9.772   3.298  23.266  0.00  0.00    +0.046 A 
ATOM     21  C   UNL     1       8.952   4.372  23.623  0.00  0.00    +0.004 A 
ATOM     22  C   UNL     1       7.661   4.471  23.104  0.00  0.00    +0.000 A 
ATOM     23  C   UNL     1       7.184   3.493  22.235  0.00  0.00    +0.004 A 
ATOM     24  C   UNL     1       8.011   2.432  21.863  0.00  0.00    +0.046 A 
ENDBRANCH  18  19
ENDBRANCH   4  18
TORSDOF 5
ENDMDL
MODEL 5
REMARK VINA RESULT:      -6.9      3.137     10.295
REMARK  Name = 
REMARK  5 active torsions:
REMARK  status: ('A' for Active; 'I' for Inactive)
REMARK    1  A    between atoms: C_2  and  C_11
REMARK    2  A    between atoms: N_3  and  C_4
REMARK    3  A    between atoms: C_4  and  C_5
REMARK    4  A    between atoms: C_14  and  O_15
REMARK    5  A    between atoms: O_15  and  C_16
REMARK                            x       y       z     vdW  Elec       q    Type
REMARK                         _______ _______ _______ _____ _____    ______ ____
ROOT
ATOM      1  C   UNL     1       7.077  -4.254  23.506  0.00  0.00    +0.037 A 
ATOM      2  C   UNL     1       5.999  -3.551  24.064  0.00  0.00    +0.016 A 
ATOM      3  C   UNL     1       4.681  -3.950  23.806  0.00  0.00    +0.047 A 
ATOM      4  C   UNL     1       4.436  -5.071  23.010  0.00  0.00    +0.128 A 
ATOM      5  C   UNL     1       5.511  -5.741  22.416  0.00  0.00    +0.047 A 
ATOM      6  C   UNL     1       6.827  -5.340  22.661  0.00  0.00    +0.016 A 
ENDROOT
BRANCH   1   8
ATOM      7  O   UNL     1       9.259  -4.502  24.359  0.00  0.00    -0.270 OA
ATOM      8  C   UNL     1       8.462  -3.778  23.773  0.00  0.00    +0.244 C 
ATOM      9  N   UNL     1       8.787  -2.523  23.307  0.00  0.00    -0.306 N 
ATOM     10  H   UNL     1       8.215  -2.056  22.611  0.00  0.00    +0.149 HD
BRANCH   9  11
ATOM     11  C   UNL     1      10.135  -2.018  23.459  0.00  0.00    +0.160 C 
BRANCH  11  12
ATOM     12  C   UNL     1      10.247  -0.529  23.219  0.00  0.00    +0.058 A 
ATOM     13  C   UNL     1       9.800   0.007  22.013  0.00  0.00    +0.025 A 
ATOM     14  C   UNL     1       9.808   1.389  21.840  0.00  0.00    +0.003 A 
ATOM     15  C   UNL     1      10.250   2.199  22.878  0.00  0.00    +0.020 A 
ATOM     16  C   UNL     1      10.687   1.591  24.043  0.00  0.00    +0.111 A 
ATOM     17  N   UNL     1      10.699   0.251  24.240  0.00  0.00    -0.258 NA
ENDBRANCH  11  12
ENDBRANCH   9  11
ENDBRANCH   1   8
BRANCH   4  18
ATOM     18  O   UNL     1       3.191  -5.534  22.657  0.00  0.00    -0.456 OA
BRANCH  18  19
ATOM     19  C   UNL     1       2.624  -6.617  23.289  0.00  0.00    +0.128 A 
ATOM     20  C   UNL     1       3.076  -7.174  24.486  0.00  0.00    +0.046 A 
ATOM     21  C   UNL     1       2.431  -8.291  25.025  0.00  0.00    +0.004 A 
ATOM     22  C   UNL     1       1.363  -8.879  24.346  0.00  0.00    +0.000 A 
ATOM     23  C   UNL     1       0.946  -8.360  23.122  0.00  0.00    +0.004 A 
ATOM     24  C   UNL     1       1.577  -7.232  22.596  0.00  0.00    +0.046 A 
ENDBRANCH  18  19
ENDBRANCH   4  18
TORSDOF 5
ENDMDL
MODEL 6
REMARK VINA RESULT:      -6.9      3.554      6.362
REMARK  Name = 
REMARK  5 active torsions:
REMARK  status: ('A' for Active; 'I' for Inactive)
REMARK    1  A    between atoms: C_2  and  C_11
REMARK    2  A    between atoms: N_3  and  C_4
REMARK    3  A    between atoms: C_4  and  C_5
REMARK    4  A    between atoms: C_14  and  O_15
REMARK    5  A    between atoms: O_15  and  C_16
REMARK                            x       y       z     vdW  Elec       q    Type
REMARK                         _______ _______ _______ _____ _____    ______ ____
ROOT
ATOM      1  C   UNL     1       7.032  -5.264  25.377  0.00  0.00    +0.037 A 
ATOM      2  C   UNL     1       6.936  -4.722  24.087  0.00  0.00    +0.016 A 
ATOM      3  C   UNL     1       7.975  -3.940  23.567  0.00  0.00    +0.047 A 
ATOM      4  C   UNL     1       9.127  -3.718  24.325  0.00  0.00    +0.128 A 
ATOM      5  C   UNL     1       9.200  -4.220  25.630  0.00  0.00    +0.047 A 
ATOM      6  C   UNL     1       8.160  -4.991  26.157  0.00  0.00    +0.016 A 
ENDROOT
BRANCH   1   8
ATOM      7  O   UNL     1       5.896  -6.435  27.077  0.00  0.00    -0.270 OA
ATOM      8  C   UNL     1       5.891  -6.059  25.910  0.00  0.00    +0.244 C 
ATOM      9  N   UNL     1       4.852  -6.311  25.043  0.00  0.00    -0.306 N 
ATOM     10  H   UNL     1       4.744  -5.783  24.184  0.00  0.00    +0.149 HD
BRANCH   9  11
ATOM     11  C   UNL     1       3.673  -7.012  25.506  0.00  0.00    +0.160 C 
BRANCH  11  12
ATOM     12  C   UNL     1       2.614  -7.173  24.438  0.00  0.00    +0.058 A 
ATOM     13  C   UNL     1       2.154  -6.049  23.754  0.00  0.00    +0.025 A 
ATOM     14  C   UNL     1       1.258  -6.215  22.701  0.00  0.00    +0.003 A 
ATOM     15  C   UNL     1       0.854  -7.497  22.350  0.00  0.00    +0.020 A 
ATOM     16  C   UNL     1       1.349  -8.563  23.083  0.00  0.00    +0.111 A 
ATOM     17  N   UNL     1       2.215  -8.435  24.117  0.00  0.00    -0.258 NA
ENDBRANCH  11  12
ENDBRANCH   9  11
ENDBRANCH   1   8
BRANCH   4  18
ATOM     18  O   UNL     1      10.192  -2.940  23.938  0.00  0.00    -0.456 OA
BRANCH  18  19
ATOM     19  C   UNL     1      10.004  -1.692  23.390  0.00  0.00    +0.128 A 
ATOM     20  C   UNL     1       9.835  -1.430  22.030  0.00  0.00    +0.046 A 
ATOM     21  C   UNL     1       9.671  -0.115  21.586  0.00  0.00    +0.004 A 
ATOM     22  C   UNL     1       9.722   0.943  22.494  0.00  0.00    +0.000 A 
ATOM     23  C   UNL     1       9.946   0.690  23.846  0.00  0.00    +0.004 A 
ATOM     24  C   UNL     1      10.089  -0.625  24.291  0.00  0.00    +0.046 A 
ENDBRANCH  18  19
ENDBRANCH   4  18
TORSDOF 5
ENDMDL
MODEL 7
REMARK VINA RESULT:      -6.8      1.460      2.143
REMARK  Name = 
REMARK  5 active torsions:
REMARK  status: ('A' for Active; 'I' for Inactive)
REMARK    1  A    between atoms: C_2  and  C_11
REMARK    2  A    between atoms: N_3  and  C_4
REMARK    3  A    between atoms: C_4  and  C_5
REMARK    4  A    between atoms: C_14  and  O_15
REMARK    5  A    between atoms: O_15  and  C_16
REMARK                            x       y       z     vdW  Elec       q    Type
REMARK                         _______ _______ _______ _____ _____    ______ ____
ROOT
ATOM      1  C   UNL     1       9.942  -0.343  23.043  0.00  0.00    +0.037 A 
ATOM      2  C   UNL     1       9.817   0.460  21.900  0.00  0.00    +0.016 A 
ATOM      3  C   UNL     1      10.115   1.827  21.957  0.00  0.00    +0.047 A 
ATOM      4  C   UNL     1      10.565   2.393  23.152  0.00  0.00    +0.128 A 
ATOM      5  C   UNL     1      10.642   1.600  24.303  0.00  0.00    +0.047 A 
ATOM      6  C   UNL     1      10.336   0.237  24.253  0.00  0.00    +0.016 A 
ENDROOT
BRANCH   1   8
ATOM      7  O   UNL     1      10.458  -2.641  22.985  0.00  0.00    -0.270 OA
ATOM      8  C   UNL     1       9.582  -1.785  22.952  0.00  0.00    +0.244 C 
ATOM      9  N   UNL     1       8.240  -2.084  22.863  0.00  0.00    -0.306 N 
ATOM     10  H   UNL     1       7.532  -1.397  23.098  0.00  0.00    +0.149 HD
BRANCH   9  11
ATOM     11  C   UNL     1       7.803  -3.464  22.848  0.00  0.00    +0.160 C 
BRANCH  11  12
ATOM     12  C   UNL     1       7.535  -4.022  24.228  0.00  0.00    +0.058 A 
ATOM     13  C   UNL     1       8.469  -4.872  24.817  0.00  0.00    +0.025 A 
ATOM     14  C   UNL     1       8.268  -5.297  26.128  0.00  0.00    +0.003 A 
ATOM     15  C   UNL     1       7.147  -4.855  26.819  0.00  0.00    +0.020 A 
ATOM     16  C   UNL     1       6.260  -4.018  26.162  0.00  0.00    +0.111 A 
ATOM     17  N   UNL     1       6.423  -3.593  24.886  0.00  0.00    -0.258 NA
ENDBRANCH  11  12
ENDBRANCH   9  11
ENDBRANCH   1   8
BRANCH   4  18
ATOM     18  O   UNL     1      10.850   3.724  23.339  0.00  0.00    -0.456 OA
BRANCH  18  19
ATOM     19  C   UNL     1       9.879   4.616  23.735  0.00  0.00    +0.128 A 
ATOM     20  C   UNL     1       8.505   4.376  23.692  0.00  0.00    +0.046 A 
ATOM     21  C   UNL     1       7.609   5.367  24.103  0.00  0.00    +0.004 A 
ATOM     22  C   UNL     1       8.082   6.614  24.514  0.00  0.00    +0.000 A 
ATOM     23  C   UNL     1       9.451   6.876  24.504  0.00  0.00    +0.004 A 
ATOM     24  C   UNL     1      10.345   5.878  24.114  0.00  0.00    +0.046 A 
ENDBRANCH  18  19
ENDBRANCH   4  18
TORSDOF 5
ENDMDL
MODEL 8
REMARK VINA RESULT:      -6.7      1.874      2.590
REMARK  Name = 
REMARK  5 active torsions:
REMARK  status: ('A' for Active; 'I' for Inactive)
REMARK    1  A    between atoms: C_2  and  C_11
REMARK    2  A    between atoms: N_3  and  C_4
REMARK    3  A    between atoms: C_4  and  C_5
REMARK    4  A    between atoms: C_14  and  O_15
REMARK    5  A    between atoms: O_15  and  C_16
REMARK                            x       y       z     vdW  Elec       q    Type
REMARK                         _______ _______ _______ _____ _____    ______ ____
ROOT
ATOM      1  C   UNL     1       9.840  -0.155  23.377  0.00  0.00    +0.037 A 
ATOM      2  C   UNL     1       9.804   0.519  22.147  0.00  0.00    +0.016 A 
ATOM      3  C   UNL     1       9.785   1.918  22.105  0.00  0.00    +0.047 A 
ATOM      4  C   UNL     1       9.827   2.652  23.293  0.00  0.00    +0.128 A 
ATOM      5  C   UNL     1       9.813   1.978  24.519  0.00  0.00    +0.047 A 
ATOM      6  C   UNL     1       9.822   0.581  24.566  0.00  0.00    +0.016 A 
ENDROOT
BRANCH   1   8
ATOM      7  O   UNL     1      10.730  -2.271  22.849  0.00  0.00    -0.270 OA
ATOM      8  C   UNL     1       9.823  -1.644  23.383  0.00  0.00    +0.244 C 
ATOM      9  N   UNL     1       8.770  -2.249  24.033  0.00  0.00    -0.306 N 
ATOM     10  H   UNL     1       8.185  -1.732  24.680  0.00  0.00    +0.149 HD
BRANCH   9  11
ATOM     11  C   UNL     1       8.720  -3.691  24.149  0.00  0.00    +0.160 C 
BRANCH  11  12
ATOM     12  C   UNL     1       7.782  -4.340  23.156  0.00  0.00    +0.058 A 
ATOM     13  C   UNL     1       6.878  -3.549  22.450  0.00  0.00    +0.025 A 
ATOM     14  C   UNL     1       6.091  -4.135  21.461  0.00  0.00    +0.003 A 
ATOM     15  C   UNL     1       6.234  -5.490  21.196  0.00  0.00    +0.020 A 
ATOM     16  C   UNL     1       7.149  -6.212  21.946  0.00  0.00    +0.111 A 
ATOM     17  N   UNL     1       7.923  -5.673  22.919  0.00  0.00    -0.258 NA
ENDBRANCH  11  12
ENDBRANCH   9  11
ENDBRANCH   1   8
BRANCH   4  18
ATOM     18  O   UNL     1       9.773   4.023  23.378  0.00  0.00    -0.456 OA
BRANCH  18  19
ATOM     19  C   UNL     1       8.579   4.684  23.548  0.00  0.00    +0.128 A 
ATOM     20  C   UNL     1       7.592   4.820  22.571  0.00  0.00    +0.046 A 
ATOM     21  C   UNL     1       6.423   5.533  22.853  0.00  0.00    +0.004 A 
ATOM     22  C   UNL     1       6.258   6.148  24.094  0.00  0.00    +0.000 A 
ATOM     23  C   UNL     1       7.266   6.062  25.052  0.00  0.00    +0.004 A 
ATOM     24  C   UNL     1       8.424   5.332  24.777  0.00  0.00    +0.046 A 
ENDBRANCH  18  19
ENDBRANCH   4  18
TORSDOF 5
ENDMDL
MODEL 9
REMARK VINA RESULT:      -6.6      1.712      2.423
REMARK  Name = 
REMARK  5 active torsions:
REMARK  status: ('A' for Active; 'I' for Inactive)
REMARK    1  A    between atoms: C_2  and  C_11
REMARK    2  A    between atoms: N_3  and  C_4
REMARK    3  A    between atoms: C_4  and  C_5
REMARK    4  A    between atoms: C_14  and  O_15
REMARK    5  A    between atoms: O_15  and  C_16
REMARK                            x       y       z     vdW  Elec       q    Type
REMARK                         _______ _______ _______ _____ _____    ______ ____
ROOT
ATOM      1  C   UNL     1       8.257  -0.410  23.958  0.00  0.00    +0.037 A 
ATOM      2  C   UNL     1       9.418  -0.187  24.713  0.00  0.00    +0.016 A 
ATOM      3  C   UNL     1      10.309   0.835  24.362  0.00  0.00    +0.047 A 
ATOM      4  C   UNL     1      10.030   1.656  23.267  0.00  0.00    +0.128 A 
ATOM      5  C   UNL     1       8.897   1.402  22.487  0.00  0.00    +0.047 A 
ATOM      6  C   UNL     1       8.010   0.376  22.828  0.00  0.00    +0.016 A 
ENDROOT
BRANCH   1   8
ATOM      7  O   UNL     1       6.138  -1.400  24.236  0.00  0.00    -0.270 OA
ATOM      8  C   UNL     1       7.353  -1.528  24.340  0.00  0.00    +0.244 C 
ATOM      9  N   UNL     1       7.952  -2.689  24.777  0.00  0.00    -0.306 N 
ATOM     10  H   UNL     1       8.937  -2.867  24.611  0.00  0.00    +0.149 HD
BRANCH   9  11
ATOM     11  C   UNL     1       7.145  -3.848  25.096  0.00  0.00    +0.160 C 
BRANCH  11  12
ATOM     12  C   UNL     1       6.671  -4.601  23.873  0.00  0.00    +0.058 A 
ATOM     13  C   UNL     1       7.595  -4.982  22.901  0.00  0.00    +0.025 A 
ATOM     14  C   UNL     1       7.171  -5.766  21.832  0.00  0.00    +0.003 A 
ATOM     15  C   UNL     1       5.841  -6.160  21.766  0.00  0.00    +0.020 A 
ATOM     16  C   UNL     1       4.981  -5.735  22.765  0.00  0.00    +0.111 A 
ATOM     17  N   UNL     1       5.360  -4.965  23.814  0.00  0.00    -0.258 NA
ENDBRANCH  11  12
ENDBRANCH   9  11
ENDBRANCH   1   8
BRANCH   4  18
ATOM     18  O   UNL     1      10.845   2.662  22.805  0.00  0.00    -0.456 OA
BRANCH  18  19
ATOM     19  C   UNL     1      10.866   3.899  23.407  0.00  0.00    +0.128 A 
ATOM     20  C   UNL     1       9.759   4.538  23.966  0.00  0.00    +0.046 A 
ATOM     21  C   UNL     1       9.898   5.808  24.534  0.00  0.00    +0.004 A 
ATOM     22  C   UNL     1      11.131   6.459  24.504  0.00  0.00    +0.000 A 
ATOM     23  C   UNL     1      12.226   5.848  23.896  0.00  0.00    +0.004 A 
ATOM     24  C   UNL     1      12.091   4.571  23.348  0.00  0.00    +0.046 A 
ENDBRANCH  18  19
ENDBRANCH   4  18
TORSDOF 5
ENDMDL
