MODEL 1
REMARK VINA RESULT:      -5.7      0.000      0.000
REMARK  Name = 
REMARK  15 active torsions:
REMARK  status: ('A' for Active; 'I' for Inactive)
REMARK    1  A    between atoms: C_1  and  C_2
REMARK    2  A    between atoms: C_2  and  C_3
REMARK    3  A    between atoms: C_3  and  CA_4
REMARK    4  A    between atoms: CA_4  and  N_6
REMARK    5  A    between atoms: CA_4  and  C_22
REMARK    6  A    between atoms: N_6  and  C_7
REMARK    7  A    between atoms: C_7  and  C_8
REMARK    8  A    between atoms: C_9  and  O_10
REMARK    9  A    between atoms: C_11  and  C_12
REMARK   10  A    between atoms: C_15  and  C_16
REMARK   11  A    between atoms: C_16  and  O_17
REMARK   12  A    between atoms: O_17  and  P_18
REMARK   13  A    between atoms: P_18  and  O_19
REMARK   14  A    between atoms: P_18  and  O_20
REMARK   15  A    between atoms: C_22  and  O_23
REMARK                            x       y       z     vdW  Elec       q    Type
REMARK                         _______ _______ _______ _____ _____    ______ ____
ROOT
ATOM      1  C   UNL     1       8.757  -0.921  24.100  0.00  0.00    +0.016 A 
ATOM      2  C   UNL     1       8.661  -1.327  22.745  0.00  0.00    +0.005 A 
ATOM      3  C   UNL     1       9.208  -0.463  21.787  0.00  0.00    +0.117 A 
ATOM      4  N   UNL     1       9.849   0.699  22.050  0.00  0.00    -0.256 NA
ATOM      5  C   UNL     1      10.010   1.036  23.341  0.00  0.00    +0.080 A 
ATOM      6  C   UNL     1      10.746   2.322  23.599  0.00  0.00    +0.069 C 
ATOM      7  C   UNL     1       9.530   0.231  24.375  0.00  0.00    +0.142 A 
ENDROOT
BRANCH   7   8
ATOM      8  O   UNL     1       9.854   0.546  25.670  0.00  0.00    -0.505 OA
ATOM      9  H   UNL     1       9.096   1.067  25.999  0.00  0.00    +0.292 HD
ENDBRANCH   7   8
BRANCH   1  10
ATOM     10  C   UNL     1       8.106  -1.714  25.236  0.00  0.00    +0.121 C 
BRANCH  10  11
ATOM     11  N   UNL     1       9.050  -2.651  25.870  0.00  0.00    -0.300 NA
ATOM     12  H   UNL     1       9.822  -2.754  25.202  0.00  0.00    +0.123 HD
BRANCH  11  13
ATOM     13  CA  UNL     1       8.530  -4.008  26.198  0.00  0.00    +0.164 C 
BRANCH  13  14
ATOM     14  C   UNL     1       9.309  -5.026  25.312  0.00  0.00    +0.322 C 
ATOM     15  OXT UNL     1       8.975  -5.404  24.203  0.00  0.00    -0.249 OA
BRANCH  14  16
ATOM     16  O   UNL     1      10.456  -5.467  25.904  0.00  0.00    -0.480 OA
ATOM     17  H   UNL     1      10.510  -5.060  26.800  0.00  0.00    +0.295 HD
ENDBRANCH  14  16
ENDBRANCH  13  14
BRANCH  13  18
ATOM     18  C   UNL     1       7.009  -4.112  25.966  0.00  0.00    +0.030 C 
BRANCH  18  20
ATOM     19  C   UNL     1       5.442  -6.091  25.771  0.00  0.00    +0.004 C 
ATOM     20  C   UNL     1       6.347  -5.289  26.693  0.00  0.00    -0.001 C 
ENDBRANCH  18  20
ENDBRANCH  13  18
ENDBRANCH  11  13
ENDBRANCH  10  11
ENDBRANCH   1  10
BRANCH   2  21
ATOM     21  C   UNL     1       7.988  -2.601  22.266  0.00  0.00    +0.209 C 
BRANCH  21  22
ATOM     22  O   UNL     1       6.566  -2.472  22.323  0.00  0.00    -0.282 OA
BRANCH  22  23
ATOM     23  P   UNL     1       5.636  -3.931  22.289  0.00  0.00    +0.473 P 
ATOM     24  O   UNL     1       4.803  -5.236  22.259  0.00  0.00    -0.228 OA
BRANCH  23  25
ATOM     25  O   UNL     1       7.074  -4.704  22.413  0.00  0.00    -0.303 OA
ATOM     26  H   UNL     1       7.477  -4.845  21.540  0.00  0.00    +0.222 HD
ENDBRANCH  23  25
BRANCH  23  27
ATOM     27  O   UNL     1       5.644  -3.765  20.663  0.00  0.00    -0.303 OA
ATOM     28  H   UNL     1       5.774  -4.609  20.203  0.00  0.00    +0.222 HD
ENDBRANCH  23  27
ENDBRANCH  22  23
ENDBRANCH  21  22
ENDBRANCH   2  21
TORSDOF 13
ENDMDL
MODEL 2
REMARK VINA RESULT:      -5.7      3.396      6.359
REMARK  Name = 
REMARK  15 active torsions:
REMARK  status: ('A' for Active; 'I' for Inactive)
REMARK    1  A    between atoms: C_1  and  C_2
REMARK    2  A    between atoms: C_2  and  C_3
REMARK    3  A    between atoms: C_3  and  CA_4
REMARK    4  A    between atoms: CA_4  and  N_6
REMARK    5  A    between atoms: CA_4  and  C_22
REMARK    6  A    between atoms: N_6  and  C_7
REMARK    7  A    between atoms: C_7  and  C_8
REMARK    8  A    between atoms: C_9  and  O_10
REMARK    9  A    between atoms: C_11  and  C_12
REMARK   10  A    between atoms: C_15  and  C_16
REMARK   11  A    between atoms: C_16  and  O_17
REMARK   12  A    between atoms: O_17  and  P_18
REMARK   13  A    between atoms: P_18  and  O_19
REMARK   14  A    between atoms: P_18  and  O_20
REMARK   15  A    between atoms: C_22  and  O_23
REMARK                            x       y       z     vdW  Elec       q    Type
REMARK                         _______ _______ _______ _____ _____    ______ ____
ROOT
ATOM      1  C   UNL     1       6.711  -3.774  24.287  0.00  0.00    +0.016 A 
ATOM      2  C   UNL     1       6.135  -4.678  25.214  0.00  0.00    +0.005 A 
ATOM      3  C   UNL     1       5.553  -5.838  24.686  0.00  0.00    +0.117 A 
ATOM      4  N   UNL     1       5.531  -6.181  23.377  0.00  0.00    -0.256 NA
ATOM      5  C   UNL     1       6.152  -5.361  22.513  0.00  0.00    +0.080 A 
ATOM      6  C   UNL     1       6.128  -5.783  21.070  0.00  0.00    +0.069 C 
ATOM      7  C   UNL     1       6.789  -4.194  22.939  0.00  0.00    +0.142 A 
ENDROOT
BRANCH   7   8
ATOM      8  O   UNL     1       7.533  -3.475  22.038  0.00  0.00    -0.505 OA
ATOM      9  H   UNL     1       8.426  -3.429  22.430  0.00  0.00    +0.292 HD
ENDBRANCH   7   8
BRANCH   1  10
ATOM     10  C   UNL     1       7.280  -2.418  24.716  0.00  0.00    +0.121 C 
BRANCH  10  11
ATOM     11  N   UNL     1       8.731  -2.325  24.475  0.00  0.00    -0.300 NA
ATOM     12  H   UNL     1       9.169  -2.463  25.394  0.00  0.00    +0.123 HD
BRANCH  11  13
ATOM     13  CA  UNL     1       9.235  -1.046  23.903  0.00  0.00    +0.164 C 
BRANCH  13  14
ATOM     14  C   UNL     1      10.082  -1.406  22.645  0.00  0.00    +0.322 C 
ATOM     15  OXT UNL     1      11.016  -2.188  22.618  0.00  0.00    -0.249 OA
BRANCH  14  16
ATOM     16  O   UNL     1       9.660  -0.754  21.524  0.00  0.00    -0.480 OA
ATOM     17  H   UNL     1      10.365  -0.117  21.261  0.00  0.00    +0.295 HD
ENDBRANCH  14  16
ENDBRANCH  13  14
BRANCH  13  18
ATOM     18  C   UNL     1      10.066  -0.246  24.928  0.00  0.00    +0.030 C 
BRANCH  18  20
ATOM     19  C   UNL     1       9.701   2.122  24.111  0.00  0.00    +0.004 C 
ATOM     20  C   UNL     1      10.717   1.016  24.350  0.00  0.00    -0.001 C 
ENDBRANCH  18  20
ENDBRANCH  13  18
ENDBRANCH  11  13
ENDBRANCH  10  11
ENDBRANCH   1  10
BRANCH   2  21
ATOM     21  C   UNL     1       6.079  -4.463  26.716  0.00  0.00    +0.209 C 
BRANCH  21  22
ATOM     22  O   UNL     1       5.330  -5.504  27.347  0.00  0.00    -0.282 OA
BRANCH  22  23
ATOM     23  P   UNL     1       5.949  -6.135  28.835  0.00  0.00    +0.473 P 
ATOM     24  O   UNL     1       6.503  -6.700  30.165  0.00  0.00    -0.228 OA
BRANCH  23  25
ATOM     25  O   UNL     1       7.394  -6.194  28.064  0.00  0.00    -0.303 OA
ATOM     26  H   UNL     1       7.447  -5.526  27.360  0.00  0.00    +0.222 HD
ENDBRANCH  23  25
BRANCH  23  27
ATOM     27  O   UNL     1       5.396  -7.585  28.318  0.00  0.00    -0.303 OA
ATOM     28  H   UNL     1       4.595  -7.505  27.777  0.00  0.00    +0.222 HD
ENDBRANCH  23  27
ENDBRANCH  22  23
ENDBRANCH  21  22
ENDBRANCH   2  21
TORSDOF 13
ENDMDL
MODEL 3
REMARK VINA RESULT:      -5.7      2.695      4.177
REMARK  Name = 
REMARK  15 active torsions:
REMARK  status: ('A' for Active; 'I' for Inactive)
REMARK    1  A    between atoms: C_1  and  C_2
REMARK    2  A    between atoms: C_2  and  C_3
REMARK    3  A    between atoms: C_3  and  CA_4
REMARK    4  A    between atoms: CA_4  and  N_6
REMARK    5  A    between atoms: CA_4  and  C_22
REMARK    6  A    between atoms: N_6  and  C_7
REMARK    7  A    between atoms: C_7  and  C_8
REMARK    8  A    between atoms: C_9  and  O_10
REMARK    9  A    between atoms: C_11  and  C_12
REMARK   10  A    between atoms: C_15  and  C_16
REMARK   11  A    between atoms: C_16  and  O_17
REMARK   12  A    between atoms: O_17  and  P_18
REMARK   13  A    between atoms: P_18  and  O_19
REMARK   14  A    between atoms: P_18  and  O_20
REMARK   15  A    between atoms: C_22  and  O_23
REMARK                            x       y       z     vdW  Elec       q    Type
REMARK                         _______ _______ _______ _____ _____    ______ ____
ROOT
ATOM      1  C   UNL     1       7.397  -1.087  24.141  0.00  0.00    +0.016 A 
ATOM      2  C   UNL     1       8.580  -1.542  24.776  0.00  0.00    +0.005 A 
ATOM      3  C   UNL     1       9.796  -1.113  24.227  0.00  0.00    +0.117 A 
ATOM      4  N   UNL     1       9.931  -0.276  23.173  0.00  0.00    -0.256 NA
ATOM      5  C   UNL     1       8.806   0.218  22.629  0.00  0.00    +0.080 A 
ATOM      6  C   UNL     1       8.992   1.162  21.473  0.00  0.00    +0.069 C 
ATOM      7  C   UNL     1       7.544  -0.122  23.118  0.00  0.00    +0.142 A 
ENDROOT
BRANCH   7   8
ATOM      8  O   UNL     1       6.440   0.526  22.623  0.00  0.00    -0.505 OA
ATOM      9  H   UNL     1       5.979   0.874  23.410  0.00  0.00    +0.292 HD
ENDBRANCH   7   8
BRANCH   1  10
ATOM     10  C   UNL     1       6.007  -1.568  24.567  0.00  0.00    +0.121 C 
BRANCH  10  11
ATOM     11  N   UNL     1       5.817  -3.008  24.317  0.00  0.00    -0.300 NA
ATOM     12  H   UNL     1       6.763  -3.391  24.202  0.00  0.00    +0.123 HD
BRANCH  11  13
ATOM     13  CA  UNL     1       5.012  -3.381  23.120  0.00  0.00    +0.164 C 
BRANCH  13  14
ATOM     14  C   UNL     1       4.159  -4.626  23.510  0.00  0.00    +0.322 C 
ATOM     15  OXT UNL     1       3.434  -5.253  22.758  0.00  0.00    -0.249 OA
BRANCH  14  16
ATOM     16  O   UNL     1       4.310  -4.977  24.819  0.00  0.00    -0.480 OA
ATOM     17  H   UNL     1       5.273  -5.102  24.990  0.00  0.00    +0.295 HD
ENDBRANCH  14  16
ENDBRANCH  13  14
BRANCH  13  18
ATOM     18  C   UNL     1       5.904  -3.674  21.896  0.00  0.00    +0.030 C 
BRANCH  18  20
ATOM     19  C   UNL     1       7.111  -5.897  21.796  0.00  0.00    +0.004 C 
ATOM     20  C   UNL     1       7.188  -4.442  22.232  0.00  0.00    -0.001 C 
ENDBRANCH  18  20
ENDBRANCH  13  18
ENDBRANCH  11  13
ENDBRANCH  10  11
ENDBRANCH   1  10
BRANCH   2  21
ATOM     21  C   UNL     1       8.619  -2.474  25.974  0.00  0.00    +0.209 C 
BRANCH  21  22
ATOM     22  O   UNL     1       8.430  -3.830  25.565  0.00  0.00    -0.282 OA
BRANCH  22  23
ATOM     23  P   UNL     1       7.857  -4.946  26.756  0.00  0.00    +0.473 P 
ATOM     24  O   UNL     1       7.344  -5.944  27.823  0.00  0.00    -0.228 OA
BRANCH  23  25
ATOM     25  O   UNL     1       6.962  -5.588  25.544  0.00  0.00    -0.303 OA
ATOM     26  H   UNL     1       7.158  -6.532  25.420  0.00  0.00    +0.222 HD
ENDBRANCH  23  25
BRANCH  23  27
ATOM     27  O   UNL     1       6.797  -3.775  27.179  0.00  0.00    -0.303 OA
ATOM     28  H   UNL     1       5.912  -3.923  26.810  0.00  0.00    +0.222 HD
ENDBRANCH  23  27
ENDBRANCH  22  23
ENDBRANCH  21  22
ENDBRANCH   2  21
TORSDOF 13
ENDMDL
MODEL 4
REMARK VINA RESULT:      -5.5      2.904      5.821
REMARK  Name = 
REMARK  15 active torsions:
REMARK  status: ('A' for Active; 'I' for Inactive)
REMARK    1  A    between atoms: C_1  and  C_2
REMARK    2  A    between atoms: C_2  and  C_3
REMARK    3  A    between atoms: C_3  and  CA_4
REMARK    4  A    between atoms: CA_4  and  N_6
REMARK    5  A    between atoms: CA_4  and  C_22
REMARK    6  A    between atoms: N_6  and  C_7
REMARK    7  A    between atoms: C_7  and  C_8
REMARK    8  A    between atoms: C_9  and  O_10
REMARK    9  A    between atoms: C_11  and  C_12
REMARK   10  A    between atoms: C_15  and  C_16
REMARK   11  A    between atoms: C_16  and  O_17
REMARK   12  A    between atoms: O_17  and  P_18
REMARK   13  A    between atoms: P_18  and  O_19
REMARK   14  A    between atoms: P_18  and  O_20
REMARK   15  A    between atoms: C_22  and  O_23
REMARK                            x       y       z     vdW  Elec       q    Type
REMARK                         _______ _______ _______ _____ _____    ______ ____
ROOT
ATOM      1  C   UNL     1       7.243  -3.667  24.299  0.00  0.00    +0.016 A 
ATOM      2  C   UNL     1       6.025  -2.958  24.451  0.00  0.00    +0.005 A 
ATOM      3  C   UNL     1       5.002  -3.257  23.543  0.00  0.00    +0.117 A 
ATOM      4  N   UNL     1       5.068  -4.188  22.563  0.00  0.00    -0.256 NA
ATOM      5  C   UNL     1       6.194  -4.915  22.477  0.00  0.00    +0.080 A 
ATOM      6  C   UNL     1       6.226  -5.956  21.393  0.00  0.00    +0.069 C 
ATOM      7  C   UNL     1       7.263  -4.718  23.353  0.00  0.00    +0.142 A 
ENDROOT
BRANCH   7   8
ATOM      8  O   UNL     1       8.324  -5.587  23.316  0.00  0.00    -0.505 OA
ATOM      9  H   UNL     1       8.690  -5.498  22.415  0.00  0.00    +0.292 HD
ENDBRANCH   7   8
BRANCH   1  10
ATOM     10  C   UNL     1       8.478  -3.360  25.151  0.00  0.00    +0.121 C 
BRANCH  10  11
ATOM     11  N   UNL     1       9.587  -2.819  24.345  0.00  0.00    -0.300 NA
ATOM     12  H   UNL     1      10.405  -2.829  24.965  0.00  0.00    +0.123 HD
BRANCH  11  13
ATOM     13  CA  UNL     1       9.419  -1.437  23.813  0.00  0.00    +0.164 C 
BRANCH  13  14
ATOM     14  C   UNL     1       9.200  -1.559  22.275  0.00  0.00    +0.322 C 
ATOM     15  OXT UNL     1       8.122  -1.662  21.717  0.00  0.00    -0.249 OA
BRANCH  14  16
ATOM     16  O   UNL     1      10.369  -1.525  21.574  0.00  0.00    -0.480 OA
ATOM     17  H   UNL     1      11.010  -0.973  22.081  0.00  0.00    +0.295 HD
ENDBRANCH  14  16
ENDBRANCH  13  14
BRANCH  13  18
ATOM     18  C   UNL     1      10.635  -0.545  24.138  0.00  0.00    +0.030 C 
BRANCH  18  20
ATOM     19  C   UNL     1      10.469   1.942  23.696  0.00  0.00    +0.004 C 
ATOM     20  C   UNL     1      10.263   0.828  24.710  0.00  0.00    -0.001 C 
ENDBRANCH  18  20
ENDBRANCH  13  18
ENDBRANCH  11  13
ENDBRANCH  10  11
ENDBRANCH   1  10
BRANCH   2  21
ATOM     21  C   UNL     1       5.769  -1.888  25.499  0.00  0.00    +0.209 C 
BRANCH  21  22
ATOM     22  O   UNL     1       5.141  -0.747  24.912  0.00  0.00    -0.282 OA
BRANCH  22  23
ATOM     23  P   UNL     1       6.118   0.662  24.676  0.00  0.00    +0.473 P 
ATOM     24  O   UNL     1       6.992   1.922  24.465  0.00  0.00    -0.228 OA
BRANCH  23  25
ATOM     25  O   UNL     1       4.700   1.465  24.510  0.00  0.00    -0.303 OA
ATOM     26  H   UNL     1       4.505   2.007  25.293  0.00  0.00    +0.222 HD
ENDBRANCH  23  25
BRANCH  23  27
ATOM     27  O   UNL     1       6.246   0.173  23.120  0.00  0.00    -0.303 OA
ATOM     28  H   UNL     1       6.713   0.818  22.566  0.00  0.00    +0.222 HD
ENDBRANCH  23  27
ENDBRANCH  22  23
ENDBRANCH  21  22
ENDBRANCH   2  21
TORSDOF 13
ENDMDL
MODEL 5
REMARK VINA RESULT:      -5.5      2.512      3.839
REMARK  Name = 
REMARK  15 active torsions:
REMARK  status: ('A' for Active; 'I' for Inactive)
REMARK    1  A    between atoms: C_1  and  C_2
REMARK    2  A    between atoms: C_2  and  C_3
REMARK    3  A    between atoms: C_3  and  CA_4
REMARK    4  A    between atoms: CA_4  and  N_6
REMARK    5  A    between atoms: CA_4  and  C_22
REMARK    6  A    between atoms: N_6  and  C_7
REMARK    7  A    between atoms: C_7  and  C_8
REMARK    8  A    between atoms: C_9  and  O_10
REMARK    9  A    between atoms: C_11  and  C_12
REMARK   10  A    between atoms: C_15  and  C_16
REMARK   11  A    between atoms: C_16  and  O_17
REMARK   12  A    between atoms: O_17  and  P_18
REMARK   13  A    between atoms: P_18  and  O_19
REMARK   14  A    between atoms: P_18  and  O_20
REMARK   15  A    between atoms: C_22  and  O_23
REMARK                            x       y       z     vdW  Elec       q    Type
REMARK                         _______ _______ _______ _____ _____    ______ ____
ROOT
ATOM      1  C   UNL     1       7.566  -1.487  23.263  0.00  0.00    +0.016 A 
ATOM      2  C   UNL     1       8.836  -2.092  23.441  0.00  0.00    +0.005 A 
ATOM      3  C   UNL     1       9.940  -1.412  22.911  0.00  0.00    +0.117 A 
ATOM      4  N   UNL     1       9.898  -0.215  22.283  0.00  0.00    -0.256 NA
ATOM      5  C   UNL     1       8.703   0.393  22.192  0.00  0.00    +0.080 A 
ATOM      6  C   UNL     1       8.696   1.732  21.508  0.00  0.00    +0.069 C 
ATOM      7  C   UNL     1       7.544  -0.184  22.713  0.00  0.00    +0.142 A 
ENDROOT
BRANCH   7   8
ATOM      8  O   UNL     1       6.383   0.546  22.725  0.00  0.00    -0.505 OA
ATOM      9  H   UNL     1       5.673  -0.108  22.583  0.00  0.00    +0.292 HD
ENDBRANCH   7   8
BRANCH   1  10
ATOM     10  C   UNL     1       6.267  -2.175  23.693  0.00  0.00    +0.121 C 
BRANCH  10  11
ATOM     11  N   UNL     1       5.769  -3.108  22.667  0.00  0.00    -0.300 NA
ATOM     12  H   UNL     1       4.807  -2.807  22.469  0.00  0.00    +0.123 HD
BRANCH  11  13
ATOM     13  CA  UNL     1       5.744  -4.553  23.029  0.00  0.00    +0.164 C 
BRANCH  13  14
ATOM     14  C   UNL     1       6.521  -5.320  21.916  0.00  0.00    +0.322 C 
ATOM     15  OXT UNL     1       7.536  -5.973  22.081  0.00  0.00    -0.249 OA
BRANCH  14  16
ATOM     16  O   UNL     1       5.933  -5.205  20.691  0.00  0.00    -0.480 OA
ATOM     17  H   UNL     1       5.265  -5.926  20.607  0.00  0.00    +0.295 HD
ENDBRANCH  14  16
ENDBRANCH  13  14
BRANCH  13  18
ATOM     18  C   UNL     1       4.303  -5.083  23.173  0.00  0.00    +0.030 C 
BRANCH  18  20
ATOM     19  C   UNL     1       2.811  -6.999  23.891  0.00  0.00    +0.004 C 
ATOM     20  C   UNL     1       4.196  -6.378  23.988  0.00  0.00    -0.001 C 
ENDBRANCH  18  20
ENDBRANCH  13  18
ENDBRANCH  11  13
ENDBRANCH  10  11
ENDBRANCH   1  10
BRANCH   2  21
ATOM     21  C   UNL     1       9.072  -3.425  24.130  0.00  0.00    +0.209 C 
BRANCH  21  22
ATOM     22  O   UNL     1       8.848  -3.314  25.536  0.00  0.00    -0.282 OA
BRANCH  22  23
ATOM     23  P   UNL     1       8.110  -4.662  26.331  0.00  0.00    +0.473 P 
ATOM     24  O   UNL     1       7.451  -5.869  27.042  0.00  0.00    -0.228 OA
BRANCH  23  25
ATOM     25  O   UNL     1       9.563  -4.868  27.059  0.00  0.00    -0.303 OA
ATOM     26  H   UNL     1      10.016  -5.662  26.729  0.00  0.00    +0.222 HD
ENDBRANCH  23  25
BRANCH  23  27
ATOM     27  O   UNL     1       8.454  -5.505  24.973  0.00  0.00    -0.303 OA
ATOM     28  H   UNL     1       8.420  -4.954  24.175  0.00  0.00    +0.222 HD
ENDBRANCH  23  27
ENDBRANCH  22  23
ENDBRANCH  21  22
ENDBRANCH   2  21
TORSDOF 13
ENDMDL
MODEL 6
REMARK VINA RESULT:      -5.4      2.598      4.122
REMARK  Name = 
REMARK  15 active torsions:
REMARK  status: ('A' for Active; 'I' for Inactive)
REMARK    1  A    between atoms: C_1  and  C_2
REMARK    2  A    between atoms: C_2  and  C_3
REMARK    3  A    between atoms: C_3  and  CA_4
REMARK    4  A    between atoms: CA_4  and  N_6
REMARK    5  A    between atoms: CA_4  and  C_22
REMARK    6  A    between atoms: N_6  and  C_7
REMARK    7  A    between atoms: C_7  and  C_8
REMARK    8  A    between atoms: C_9  and  O_10
REMARK    9  A    between atoms: C_11  and  C_12
REMARK   10  A    between atoms: C_15  and  C_16
REMARK   11  A    between atoms: C_16  and  O_17
REMARK   12  A    between atoms: O_17  and  P_18
REMARK   13  A    between atoms: P_18  and  O_19
REMARK   14  A    between atoms: P_18  and  O_20
REMARK   15  A    between atoms: C_22  and  O_23
REMARK                            x       y       z     vdW  Elec       q    Type
REMARK                         _______ _______ _______ _____ _____    ______ ____
ROOT
ATOM      1  C   UNL     1       9.086  -0.842  24.658  0.00  0.00    +0.016 A 
ATOM      2  C   UNL     1       9.634  -2.009  24.069  0.00  0.00    +0.005 A 
ATOM      3  C   UNL     1      10.094  -1.895  22.751  0.00  0.00    +0.117 A 
ATOM      4  N   UNL     1      10.094  -0.760  22.013  0.00  0.00    -0.256 NA
ATOM      5  C   UNL     1       9.651   0.361  22.606  0.00  0.00    +0.080 A 
ATOM      6  C   UNL     1       9.684   1.607  21.766  0.00  0.00    +0.069 C 
ATOM      7  C   UNL     1       9.198   0.363  23.926  0.00  0.00    +0.142 A 
ENDROOT
BRANCH   7   8
ATOM      8  O   UNL     1       8.900   1.560  24.526  0.00  0.00    -0.505 OA
ATOM      9  H   UNL     1       8.738   1.338  25.463  0.00  0.00    +0.292 HD
ENDBRANCH   7   8
BRANCH   1  10
ATOM     10  C   UNL     1       8.447  -0.854  26.049  0.00  0.00    +0.121 C 
BRANCH  10  11
ATOM     11  N   UNL     1       7.119  -1.493  26.043  0.00  0.00    -0.300 NA
ATOM     12  H   UNL     1       7.297  -2.495  26.180  0.00  0.00    +0.123 HD
BRANCH  11  13
ATOM     13  CA  UNL     1       6.300  -1.328  24.809  0.00  0.00    +0.164 C 
BRANCH  13  14
ATOM     14  C   UNL     1       5.553   0.035  24.932  0.00  0.00    +0.322 C 
ATOM     15  OXT UNL     1       4.776   0.342  25.819  0.00  0.00    -0.249 OA
BRANCH  14  16
ATOM     16  O   UNL     1       5.867   0.899  23.924  0.00  0.00    -0.480 OA
ATOM     17  H   UNL     1       6.535   0.460  23.347  0.00  0.00    +0.295 HD
ENDBRANCH  14  16
ENDBRANCH  13  14
BRANCH  13  18
ATOM     18  C   UNL     1       5.310  -2.495  24.616  0.00  0.00    +0.030 C 
BRANCH  18  20
ATOM     19  C   UNL     1       6.407  -2.473  22.335  0.00  0.00    +0.004 C 
ATOM     20  C   UNL     1       5.351  -3.120  23.217  0.00  0.00    -0.001 C 
ENDBRANCH  18  20
ENDBRANCH  13  18
ENDBRANCH  11  13
ENDBRANCH  10  11
ENDBRANCH   1  10
BRANCH   2  21
ATOM     21  C   UNL     1       9.726  -3.363  24.750  0.00  0.00    +0.209 C 
BRANCH  21  22
ATOM     22  O   UNL     1       8.488  -4.068  24.641  0.00  0.00    -0.282 OA
BRANCH  22  23
ATOM     23  P   UNL     1       8.063  -5.130  25.939  0.00  0.00    +0.473 P 
ATOM     24  O   UNL     1       7.682  -6.080  27.100  0.00  0.00    -0.228 OA
BRANCH  23  25
ATOM     25  O   UNL     1       8.755  -4.011  26.915  0.00  0.00    -0.303 OA
ATOM     26  H   UNL     1       9.292  -3.381  26.407  0.00  0.00    +0.222 HD
ENDBRANCH  23  25
BRANCH  23  27
ATOM     27  O   UNL     1       9.434  -5.942  25.573  0.00  0.00    -0.303 OA
ATOM     28  H   UNL     1       9.595  -6.688  26.172  0.00  0.00    +0.222 HD
ENDBRANCH  23  27
ENDBRANCH  22  23
ENDBRANCH  21  22
ENDBRANCH   2  21
TORSDOF 13
ENDMDL
MODEL 7
REMARK VINA RESULT:      -5.4      2.923      4.235
REMARK  Name = 
REMARK  15 active torsions:
REMARK  status: ('A' for Active; 'I' for Inactive)
REMARK    1  A    between atoms: C_1  and  C_2
REMARK    2  A    between atoms: C_2  and  C_3
REMARK    3  A    between atoms: C_3  and  CA_4
REMARK    4  A    between atoms: CA_4  and  N_6
REMARK    5  A    between atoms: CA_4  and  C_22
REMARK    6  A    between atoms: N_6  and  C_7
REMARK    7  A    between atoms: C_7  and  C_8
REMARK    8  A    between atoms: C_9  and  O_10
REMARK    9  A    between atoms: C_11  and  C_12
REMARK   10  A    between atoms: C_15  and  C_16
REMARK   11  A    between atoms: C_16  and  O_17
REMARK   12  A    between atoms: O_17  and  P_18
REMARK   13  A    between atoms: P_18  and  O_19
REMARK   14  A    between atoms: P_18  and  O_20
REMARK   15  A    between atoms: C_22  and  O_23
REMARK                            x       y       z     vdW  Elec       q    Type
REMARK                         _______ _______ _______ _____ _____    ______ ____
ROOT
ATOM      1  C   UNL     1       8.731  -2.452  24.719  0.00  0.00    +0.016 A 
ATOM      2  C   UNL     1       7.965  -2.028  25.835  0.00  0.00    +0.005 A 
ATOM      3  C   UNL     1       8.308  -0.795  26.404  0.00  0.00    +0.117 A 
ATOM      4  N   UNL     1       9.278   0.036  25.956  0.00  0.00    -0.256 NA
ATOM      5  C   UNL     1       9.943  -0.333  24.849  0.00  0.00    +0.080 A 
ATOM      6  C   UNL     1      10.998   0.623  24.365  0.00  0.00    +0.069 C 
ATOM      7  C   UNL     1       9.659  -1.528  24.186  0.00  0.00    +0.142 A 
ENDROOT
BRANCH   7   8
ATOM      8  O   UNL     1      10.263  -1.781  22.980  0.00  0.00    -0.505 OA
ATOM      9  H   UNL     1      11.152  -1.385  23.056  0.00  0.00    +0.292 HD
ENDBRANCH   7   8
BRANCH   1  10
ATOM     10  C   UNL     1       8.536  -3.826  24.071  0.00  0.00    +0.121 C 
BRANCH  10  11
ATOM     11  N   UNL     1       7.516  -3.798  23.008  0.00  0.00    -0.300 NA
ATOM     12  H   UNL     1       7.208  -2.820  22.952  0.00  0.00    +0.123 HD
BRANCH  11  13
ATOM     13  CA  UNL     1       6.316  -4.657  23.207  0.00  0.00    +0.164 C 
BRANCH  13  14
ATOM     14  C   UNL     1       6.397  -5.810  22.160  0.00  0.00    +0.322 C 
ATOM     15  OXT UNL     1       7.400  -6.439  21.873  0.00  0.00    -0.249 OA
BRANCH  14  16
ATOM     16  O   UNL     1       5.192  -6.076  21.579  0.00  0.00    -0.480 OA
ATOM     17  H   UNL     1       5.343  -6.195  20.612  0.00  0.00    +0.295 HD
ENDBRANCH  14  16
ENDBRANCH  13  14
BRANCH  13  18
ATOM     18  C   UNL     1       5.005  -3.857  23.059  0.00  0.00    +0.030 C 
BRANCH  18  20
ATOM     19  C   UNL     1       2.844  -4.848  23.928  0.00  0.00    +0.004 C 
ATOM     20  C   UNL     1       4.057  -3.991  24.256  0.00  0.00    -0.001 C 
ENDBRANCH  18  20
ENDBRANCH  13  18
ENDBRANCH  11  13
ENDBRANCH  10  11
ENDBRANCH   1  10
BRANCH   2  21
ATOM     21  C   UNL     1       6.835  -2.824  26.464  0.00  0.00    +0.209 C 
BRANCH  21  22
ATOM     22  O   UNL     1       7.352  -3.910  27.237  0.00  0.00    -0.282 OA
BRANCH  22  23
ATOM     23  P   UNL     1       6.502  -5.414  27.158  0.00  0.00    +0.473 P 
ATOM     24  O   UNL     1       5.742  -6.761  27.088  0.00  0.00    -0.228 OA
BRANCH  23  25
ATOM     25  O   UNL     1       6.382  -5.289  28.787  0.00  0.00    -0.303 OA
ATOM     26  H   UNL     1       5.487  -5.022  29.057  0.00  0.00    +0.222 HD
ENDBRANCH  23  25
BRANCH  23  27
ATOM     27  O   UNL     1       7.978  -6.117  27.127  0.00  0.00    -0.303 OA
ATOM     28  H   UNL     1       8.501  -5.850  26.354  0.00  0.00    +0.222 HD
ENDBRANCH  23  27
ENDBRANCH  22  23
ENDBRANCH  21  22
ENDBRANCH   2  21
TORSDOF 13
ENDMDL
MODEL 8
REMARK VINA RESULT:      -5.3      2.210      5.223
REMARK  Name = 
REMARK  15 active torsions:
REMARK  status: ('A' for Active; 'I' for Inactive)
REMARK    1  A    between atoms: C_1  and  C_2
REMARK    2  A    between atoms: C_2  and  C_3
REMARK    3  A    between atoms: C_3  and  CA_4
REMARK    4  A    between atoms: CA_4  and  N_6
REMARK    5  A    between atoms: CA_4  and  C_22
REMARK    6  A    between atoms: N_6  and  C_7
REMARK    7  A    between atoms: C_7  and  C_8
REMARK    8  A    between atoms: C_9  and  O_10
REMARK    9  A    between atoms: C_11  and  C_12
REMARK   10  A    between atoms: C_15  and  C_16
REMARK   11  A    between atoms: C_16  and  O_17
REMARK   12  A    between atoms: O_17  and  P_18
REMARK   13  A    between atoms: P_18  and  O_19
REMARK   14  A    between atoms: P_18  and  O_20
REMARK   15  A    between atoms: C_22  and  O_23
REMARK                            x       y       z     vdW  Elec       q    Type
REMARK                         _______ _______ _______ _____ _____    ______ ____
ROOT
ATOM      1  C   UNL     1       6.660  -1.794  24.146  0.00  0.00    +0.016 A 
ATOM      2  C   UNL     1       7.125  -3.079  24.525  0.00  0.00    +0.005 A 
ATOM      3  C   UNL     1       6.954  -3.441  25.868  0.00  0.00    +0.117 A 
ATOM      4  N   UNL     1       6.351  -2.686  26.815  0.00  0.00    -0.256 NA
ATOM      5  C   UNL     1       5.839  -1.506  26.430  0.00  0.00    +0.080 A 
ATOM      6  C   UNL     1       5.157  -0.702  27.502  0.00  0.00    +0.069 C 
ATOM      7  C   UNL     1       5.928  -1.063  25.109  0.00  0.00    +0.142 A 
ENDROOT
BRANCH   7   8
ATOM      8  O   UNL     1       5.258   0.077  24.742  0.00  0.00    -0.505 OA
ATOM      9  H   UNL     1       4.313  -0.136  24.867  0.00  0.00    +0.292 HD
ENDBRANCH   7   8
BRANCH   1  10
ATOM     10  C   UNL     1       6.883  -1.229  22.740  0.00  0.00    +0.121 C 
BRANCH  10  11
ATOM     11  N   UNL     1       7.734  -0.025  22.756  0.00  0.00    -0.300 NA
ATOM     12  H   UNL     1       7.149   0.727  22.376  0.00  0.00    +0.123 HD
BRANCH  11  13
ATOM     13  CA  UNL     1       8.995  -0.084  21.965  0.00  0.00    +0.164 C 
BRANCH  13  14
ATOM     14  C   UNL     1       9.994  -0.982  22.756  0.00  0.00    +0.322 C 
ATOM     15  OXT UNL     1      10.129  -0.999  23.966  0.00  0.00    -0.249 OA
BRANCH  14  16
ATOM     16  O   UNL     1      10.727  -1.795  21.942  0.00  0.00    -0.480 OA
ATOM     17  H   UNL     1      10.551  -2.728  22.209  0.00  0.00    +0.295 HD
ENDBRANCH  14  16
ENDBRANCH  13  14
BRANCH  13  18
ATOM     18  C   UNL     1       9.581   1.320  21.714  0.00  0.00    +0.030 C 
BRANCH  18  20
ATOM     19  C   UNL     1      10.112   2.719  23.756  0.00  0.00    +0.004 C 
ATOM     20  C   UNL     1       9.078   2.388  22.692  0.00  0.00    -0.001 C 
ENDBRANCH  18  20
ENDBRANCH  13  18
ENDBRANCH  11  13
ENDBRANCH  10  11
ENDBRANCH   1  10
BRANCH   2  21
ATOM     21  C   UNL     1       7.814  -4.062  23.595  0.00  0.00    +0.209 C 
BRANCH  21  22
ATOM     22  O   UNL     1       6.951  -5.160  23.292  0.00  0.00    -0.282 OA
BRANCH  22  23
ATOM     23  P   UNL     1       6.454  -5.345  21.645  0.00  0.00    +0.473 P 
ATOM     24  O   UNL     1       6.009  -5.512  20.172  0.00  0.00    -0.228 OA
BRANCH  23  25
ATOM     25  O   UNL     1       5.091  -4.558  22.098  0.00  0.00    -0.303 OA
ATOM     26  H   UNL     1       4.354  -5.176  22.238  0.00  0.00    +0.222 HD
ENDBRANCH  23  25
BRANCH  23  27
ATOM     27  O   UNL     1       5.965  -6.844  22.081  0.00  0.00    -0.303 OA
ATOM     28  H   UNL     1       6.117  -7.026  23.021  0.00  0.00    +0.222 HD
ENDBRANCH  23  27
ENDBRANCH  22  23
ENDBRANCH  21  22
ENDBRANCH   2  21
TORSDOF 13
ENDMDL
MODEL 9
REMARK VINA RESULT:      -5.3      3.250      5.247
REMARK  Name = 
REMARK  15 active torsions:
REMARK  status: ('A' for Active; 'I' for Inactive)
REMARK    1  A    between atoms: C_1  and  C_2
REMARK    2  A    between atoms: C_2  and  C_3
REMARK    3  A    between atoms: C_3  and  CA_4
REMARK    4  A    between atoms: CA_4  and  N_6
REMARK    5  A    between atoms: CA_4  and  C_22
REMARK    6  A    between atoms: N_6  and  C_7
REMARK    7  A    between atoms: C_7  and  C_8
REMARK    8  A    between atoms: C_9  and  O_10
REMARK    9  A    between atoms: C_11  and  C_12
REMARK   10  A    between atoms: C_15  and  C_16
REMARK   11  A    between atoms: C_16  and  O_17
REMARK   12  A    between atoms: O_17  and  P_18
REMARK   13  A    between atoms: P_18  and  O_19
REMARK   14  A    between atoms: P_18  and  O_20
REMARK   15  A    between atoms: C_22  and  O_23
REMARK                            x       y       z     vdW  Elec       q    Type
REMARK                         _______ _______ _______ _____ _____    ______ ____
ROOT
ATOM      1  C   UNL     1       5.241  -2.754  24.654  0.00  0.00    +0.016 A 
ATOM      2  C   UNL     1       5.877  -2.375  23.445  0.00  0.00    +0.005 A 
ATOM      3  C   UNL     1       5.614  -3.165  22.319  0.00  0.00    +0.117 A 
ATOM      4  N   UNL     1       4.777  -4.228  22.282  0.00  0.00    -0.256 NA
ATOM      5  C   UNL     1       4.113  -4.530  23.409  0.00  0.00    +0.080 A 
ATOM      6  C   UNL     1       3.175  -5.702  23.328  0.00  0.00    +0.069 C 
ATOM      7  C   UNL     1       4.280  -3.789  24.581  0.00  0.00    +0.142 A 
ENDROOT
BRANCH   7   8
ATOM      8  O   UNL     1       3.467  -4.048  25.655  0.00  0.00    -0.505 OA
ATOM      9  H   UNL     1       3.152  -3.172  25.949  0.00  0.00    +0.292 HD
ENDBRANCH   7   8
BRANCH   1  10
ATOM     10  C   UNL     1       5.528  -2.048  25.982  0.00  0.00    +0.121 C 
BRANCH  10  11
ATOM     11  N   UNL     1       6.213  -2.931  26.943  0.00  0.00    -0.300 NA
ATOM     12  H   UNL     1       6.881  -2.329  27.438  0.00  0.00    +0.123 HD
BRANCH  11  13
ATOM     13  CA  UNL     1       6.957  -4.090  26.376  0.00  0.00    +0.164 C 
BRANCH  13  14
ATOM     14  C   UNL     1       6.572  -5.342  27.222  0.00  0.00    +0.322 C 
ATOM     15  OXT UNL     1       5.441  -5.754  27.407  0.00  0.00    -0.249 OA
BRANCH  14  16
ATOM     16  O   UNL     1       7.660  -5.974  27.749  0.00  0.00    -0.480 OA
ATOM     17  H   UNL     1       8.437  -5.766  27.178  0.00  0.00    +0.295 HD
ENDBRANCH  14  16
ENDBRANCH  13  14
BRANCH  13  18
ATOM     18  C   UNL     1       8.481  -3.855  26.385  0.00  0.00    +0.030 C 
BRANCH  18  20
ATOM     19  C   UNL     1       8.379  -4.938  24.099  0.00  0.00    +0.004 C 
ATOM     20  C   UNL     1       9.138  -3.981  25.005  0.00  0.00    -0.001 C 
ENDBRANCH  18  20
ENDBRANCH  13  18
ENDBRANCH  11  13
ENDBRANCH  10  11
ENDBRANCH   1  10
BRANCH   2  21
ATOM     21  C   UNL     1       6.837  -1.207  23.299  0.00  0.00    +0.209 C 
BRANCH  21  22
ATOM     22  O   UNL     1       7.969  -1.580  22.509  0.00  0.00    -0.282 OA
BRANCH  22  23
ATOM     23  P   UNL     1       9.122  -0.343  22.145  0.00  0.00    +0.473 P 
ATOM     24  O   UNL     1      10.155   0.764  21.819  0.00  0.00    -0.228 OA
BRANCH  23  25
ATOM     25  O   UNL     1      10.004  -1.541  21.459  0.00  0.00    -0.303 OA
ATOM     26  H   UNL     1      10.312  -1.292  20.572  0.00  0.00    +0.222 HD
ENDBRANCH  23  25
BRANCH  23  27
ATOM     27  O   UNL     1       9.663  -0.555  23.673  0.00  0.00    -0.303 OA
ATOM     28  H   UNL     1       9.345  -1.382  24.069  0.00  0.00    +0.222 HD
ENDBRANCH  23  27
ENDBRANCH  22  23
ENDBRANCH  21  22
ENDBRANCH   2  21
TORSDOF 13
ENDMDL
