MODEL 1
REMARK VINA RESULT:      -5.2      0.000      0.000
REMARK  Name = 
REMARK  10 active torsions:
REMARK  status: ('A' for Active; 'I' for Inactive)
REMARK    1  A    between atoms: CA_2  and  C_3
REMARK    2  A    between atoms: CA_2  and  N_6
REMARK    3  A    between atoms: CA_2  and  C_14
REMARK    4  A    between atoms: C_3  and  C_4
REMARK    5  A    between atoms: C_4  and  C_5
REMARK    6  A    between atoms: C_7  and  C_9
REMARK    7  A    between atoms: C_9  and  C_10
REMARK    8  A    between atoms: C_10  and  C_11
REMARK    9  A    between atoms: C_11  and  O_12
REMARK   10  A    between atoms: C_14  and  O_15
REMARK                            x       y       z     vdW  Elec       q    Type
REMARK                         _______ _______ _______ _____ _____    ______ ____
ROOT
ATOM      1  N   UNL     1       9.085  -3.177  23.678  0.00  0.00    -0.302 N 
ATOM      2  H   UNL     1       9.115  -3.632  22.769  0.00  0.00    +0.150 HD
ATOM      3  C   UNL     1       9.621  -1.927  23.825  0.00  0.00    +0.214 C 
ATOM      4  O   UNL     1       9.503  -1.237  24.834  0.00  0.00    -0.276 OA
ENDROOT
BRANCH   1   5
ATOM      5  CA  UNL     1       8.277  -3.832  24.726  0.00  0.00    +0.182 C 
BRANCH   5   6
ATOM      6  C   UNL     1       9.211  -4.617  25.667  0.00  0.00    +0.325 C 
ATOM      7  OXT UNL     1       9.143  -4.613  26.886  0.00  0.00    -0.249 OA
BRANCH   6   8
ATOM      8  O   UNL     1      10.191  -5.284  25.005  0.00  0.00    -0.479 OA
ATOM      9  H   UNL     1      10.601  -4.697  24.339  0.00  0.00    +0.295 HD
ENDBRANCH   6   8
ENDBRANCH   5   6
BRANCH   5  10
ATOM     10  C   UNL     1       7.216  -4.765  24.129  0.00  0.00    +0.033 C 
BRANCH  10  11
ATOM     11  C   UNL     1       7.121  -4.673  22.604  0.00  0.00    -0.001 C 
ATOM     12  C   UNL     1       7.111  -6.055  21.967  0.00  0.00    +0.004 C 
ENDBRANCH  10  11
ENDBRANCH   5  10
ENDBRANCH   1   5
BRANCH   3  13
ATOM     13  C   UNL     1      10.351  -1.381  22.627  0.00  0.00    +0.107 C 
BRANCH  13  14
ATOM     14  C   UNL     1       9.559  -0.261  21.984  0.00  0.00    +0.129 C 
BRANCH  14  15
ATOM     15  C   UNL     1       9.967   1.168  22.276  0.00  0.00    +0.305 C 
ATOM     16  O   UNL     1      10.514   1.455  23.335  0.00  0.00    -0.251 OA
BRANCH  15  17
ATOM     17  O   UNL     1       9.731   2.108  21.348  0.00  0.00    -0.481 OA
ATOM     18  H   UNL     1      10.273   2.138  20.530  0.00  0.00    +0.295 HD
ENDBRANCH  15  17
ENDBRANCH  14  15
ENDBRANCH  13  14
ENDBRANCH   3  13
TORSDOF 9
ENDMDL
MODEL 2
REMARK VINA RESULT:      -5.1      4.538      6.263
REMARK  Name = 
REMARK  10 active torsions:
REMARK  status: ('A' for Active; 'I' for Inactive)
REMARK    1  A    between atoms: CA_2  and  C_3
REMARK    2  A    between atoms: CA_2  and  N_6
REMARK    3  A    between atoms: CA_2  and  C_14
REMARK    4  A    between atoms: C_3  and  C_4
REMARK    5  A    between atoms: C_4  and  C_5
REMARK    6  A    between atoms: C_7  and  C_9
REMARK    7  A    between atoms: C_9  and  C_10
REMARK    8  A    between atoms: C_10  and  C_11
REMARK    9  A    between atoms: C_11  and  O_12
REMARK   10  A    between atoms: C_14  and  O_15
REMARK                            x       y       z     vdW  Elec       q    Type
REMARK                         _______ _______ _______ _____ _____    ______ ____
ROOT
ATOM      1  N   UNL     1      10.014   3.380  23.617  0.00  0.00    -0.302 N 
ATOM      2  H   UNL     1      10.560   3.221  22.774  0.00  0.00    +0.150 HD
ATOM      3  C   UNL     1       9.867   4.652  24.097  0.00  0.00    +0.214 C 
ATOM      4  O   UNL     1       9.111   4.964  25.012  0.00  0.00    -0.276 OA
ENDROOT
BRANCH   1   5
ATOM      5  CA  UNL     1       9.251   2.230  24.143  0.00  0.00    +0.182 C 
BRANCH   5   6
ATOM      6  C   UNL     1      10.236   1.182  24.696  0.00  0.00    +0.325 C 
ATOM      7  OXT UNL     1      11.378   1.014  24.297  0.00  0.00    -0.249 OA
BRANCH   6   8
ATOM      8  O   UNL     1       9.685   0.392  25.652  0.00  0.00    -0.479 OA
ATOM      9  H   UNL     1      10.084   0.594  26.521  0.00  0.00    +0.295 HD
ENDBRANCH   6   8
ENDBRANCH   5   6
BRANCH   5  10
ATOM     10  C   UNL     1       8.351   1.603  23.071  0.00  0.00    +0.033 C 
BRANCH  10  11
ATOM     11  C   UNL     1       9.024   1.504  21.700  0.00  0.00    -0.001 C 
ATOM     12  C   UNL     1       9.368   0.062  21.357  0.00  0.00    +0.004 C 
ENDBRANCH  10  11
ENDBRANCH   5  10
ENDBRANCH   1   5
BRANCH   3  13
ATOM     13  C   UNL     1      10.666   5.716  23.392  0.00  0.00    +0.107 C 
BRANCH  13  14
ATOM     14  C   UNL     1      12.108   5.697  23.857  0.00  0.00    +0.129 C 
BRANCH  14  15
ATOM     15  C   UNL     1      13.186   5.386  22.840  0.00  0.00    +0.305 C 
ATOM     16  O   UNL     1      12.961   5.494  21.641  0.00  0.00    -0.251 OA
BRANCH  15  17
ATOM     17  O   UNL     1      14.395   5.003  23.280  0.00  0.00    -0.481 OA
ATOM     18  H   UNL     1      14.831   4.213  22.894  0.00  0.00    +0.295 HD
ENDBRANCH  15  17
ENDBRANCH  14  15
ENDBRANCH  13  14
ENDBRANCH   3  13
TORSDOF 9
ENDMDL
MODEL 3
REMARK VINA RESULT:      -5.0      2.008      5.573
REMARK  Name = 
REMARK  10 active torsions:
REMARK  status: ('A' for Active; 'I' for Inactive)
REMARK    1  A    between atoms: CA_2  and  C_3
REMARK    2  A    between atoms: CA_2  and  N_6
REMARK    3  A    between atoms: CA_2  and  C_14
REMARK    4  A    between atoms: C_3  and  C_4
REMARK    5  A    between atoms: C_4  and  C_5
REMARK    6  A    between atoms: C_7  and  C_9
REMARK    7  A    between atoms: C_9  and  C_10
REMARK    8  A    between atoms: C_10  and  C_11
REMARK    9  A    between atoms: C_11  and  O_12
REMARK   10  A    between atoms: C_14  and  O_15
REMARK                            x       y       z     vdW  Elec       q    Type
REMARK                         _______ _______ _______ _____ _____    ______ ____
ROOT
ATOM      1  N   UNL     1       8.296  -2.450  22.806  0.00  0.00    -0.302 N 
ATOM      2  H   UNL     1       9.196  -2.818  23.105  0.00  0.00    +0.150 HD
ATOM      3  C   UNL     1       7.209  -3.278  22.764  0.00  0.00    +0.214 C 
ATOM      4  O   UNL     1       6.057  -2.901  22.563  0.00  0.00    -0.276 OA
ENDROOT
BRANCH   1   5
ATOM      5  CA  UNL     1       8.199  -0.987  22.630  0.00  0.00    +0.182 C 
BRANCH   5   6
ATOM      6  C   UNL     1       9.388  -0.501  21.780  0.00  0.00    +0.325 C 
ATOM      7  OXT UNL     1       9.563   0.651  21.414  0.00  0.00    -0.249 OA
BRANCH   6   8
ATOM      8  O   UNL     1      10.218  -1.508  21.406  0.00  0.00    -0.479 OA
ATOM      9  H   UNL     1      10.975  -1.562  22.022  0.00  0.00    +0.295 HD
ENDBRANCH   6   8
ENDBRANCH   5   6
BRANCH   5  10
ATOM     10  C   UNL     1       8.168  -0.252  23.975  0.00  0.00    +0.033 C 
BRANCH  10  11
ATOM     11  C   UNL     1       9.187  -0.791  24.982  0.00  0.00    -0.001 C 
ATOM     12  C   UNL     1       8.497  -1.374  26.207  0.00  0.00    +0.004 C 
ENDBRANCH  10  11
ENDBRANCH   5  10
ENDBRANCH   1   5
BRANCH   3  13
ATOM     13  C   UNL     1       7.480  -4.733  23.040  0.00  0.00    +0.107 C 
BRANCH  13  14
ATOM     14  C   UNL     1       7.808  -4.947  24.504  0.00  0.00    +0.129 C 
BRANCH  14  15
ATOM     15  C   UNL     1       9.263  -5.074  24.903  0.00  0.00    +0.305 C 
ATOM     16  O   UNL     1      10.080  -4.228  24.556  0.00  0.00    -0.251 OA
BRANCH  15  17
ATOM     17  O   UNL     1       9.636  -6.122  25.653  0.00  0.00    -0.481 OA
ATOM     18  H   UNL     1       9.950  -5.981  26.573  0.00  0.00    +0.295 HD
ENDBRANCH  15  17
ENDBRANCH  14  15
ENDBRANCH  13  14
ENDBRANCH   3  13
TORSDOF 9
ENDMDL
MODEL 4
REMARK VINA RESULT:      -5.0      1.767      5.863
REMARK  Name = 
REMARK  10 active torsions:
REMARK  status: ('A' for Active; 'I' for Inactive)
REMARK    1  A    between atoms: CA_2  and  C_3
REMARK    2  A    between atoms: CA_2  and  N_6
REMARK    3  A    between atoms: CA_2  and  C_14
REMARK    4  A    between atoms: C_3  and  C_4
REMARK    5  A    between atoms: C_4  and  C_5
REMARK    6  A    between atoms: C_7  and  C_9
REMARK    7  A    between atoms: C_9  and  C_10
REMARK    8  A    between atoms: C_10  and  C_11
REMARK    9  A    between atoms: C_11  and  O_12
REMARK   10  A    between atoms: C_14  and  O_15
REMARK                            x       y       z     vdW  Elec       q    Type
REMARK                         _______ _______ _______ _____ _____    ______ ____
ROOT
ATOM      1  N   UNL     1       8.762  -2.408  24.046  0.00  0.00    -0.302 N 
ATOM      2  H   UNL     1       7.896  -2.031  23.670  0.00  0.00    +0.150 HD
ATOM      3  C   UNL     1       8.863  -3.750  24.292  0.00  0.00    +0.214 C 
ATOM      4  O   UNL     1       9.905  -4.321  24.601  0.00  0.00    -0.276 OA
ENDROOT
BRANCH   1   5
ATOM      5  CA  UNL     1       9.918  -1.491  24.108  0.00  0.00    +0.182 C 
BRANCH   5   6
ATOM      6  C   UNL     1       9.519  -0.230  24.897  0.00  0.00    +0.325 C 
ATOM      7  OXT UNL     1       8.373   0.141  25.095  0.00  0.00    -0.249 OA
BRANCH   6   8
ATOM      8  O   UNL     1      10.590   0.494  25.313  0.00  0.00    -0.479 OA
ATOM      9  H   UNL     1      10.733   1.251  24.713  0.00  0.00    +0.295 HD
ENDBRANCH   6   8
ENDBRANCH   5   6
BRANCH   5  10
ATOM     10  C   UNL     1      10.418  -1.109  22.709  0.00  0.00    +0.033 C 
BRANCH  10  11
ATOM     11  C   UNL     1       9.286  -0.814  21.723  0.00  0.00    -0.001 C 
ATOM     12  C   UNL     1       9.196   0.675  21.416  0.00  0.00    +0.004 C 
ENDBRANCH  10  11
ENDBRANCH   5  10
ENDBRANCH   1   5
BRANCH   3  13
ATOM     13  C   UNL     1       7.600  -4.548  24.109  0.00  0.00    +0.107 C 
BRANCH  13  14
ATOM     14  C   UNL     1       6.770  -4.534  25.377  0.00  0.00    +0.129 C 
BRANCH  14  15
ATOM     15  C   UNL     1       7.012  -5.618  26.406  0.00  0.00    +0.305 C 
ATOM     16  O   UNL     1       6.100  -6.358  26.757  0.00  0.00    -0.251 OA
BRANCH  15  17
ATOM     17  O   UNL     1       8.246  -5.761  26.912  0.00  0.00    -0.481 OA
ATOM     18  H   UNL     1       8.605  -6.658  27.087  0.00  0.00    +0.295 HD
ENDBRANCH  15  17
ENDBRANCH  14  15
ENDBRANCH  13  14
ENDBRANCH   3  13
TORSDOF 9
ENDMDL
MODEL 5
REMARK VINA RESULT:      -5.0      2.412      5.533
REMARK  Name = 
REMARK  10 active torsions:
REMARK  status: ('A' for Active; 'I' for Inactive)
REMARK    1  A    between atoms: CA_2  and  C_3
REMARK    2  A    between atoms: CA_2  and  N_6
REMARK    3  A    between atoms: CA_2  and  C_14
REMARK    4  A    between atoms: C_3  and  C_4
REMARK    5  A    between atoms: C_4  and  C_5
REMARK    6  A    between atoms: C_7  and  C_9
REMARK    7  A    between atoms: C_9  and  C_10
REMARK    8  A    between atoms: C_10  and  C_11
REMARK    9  A    between atoms: C_11  and  O_12
REMARK   10  A    between atoms: C_14  and  O_15
REMARK                            x       y       z     vdW  Elec       q    Type
REMARK                         _______ _______ _______ _____ _____    ______ ____
ROOT
ATOM      1  N   UNL     1       9.229  -0.786  23.472  0.00  0.00    -0.302 N 
ATOM      2  H   UNL     1       8.288  -0.451  23.664  0.00  0.00    +0.150 HD
ATOM      3  C   UNL     1       9.486  -2.129  23.497  0.00  0.00    +0.214 C 
ATOM      4  O   UNL     1      10.543  -2.639  23.135  0.00  0.00    -0.276 OA
ENDROOT
BRANCH   1   5
ATOM      5  CA  UNL     1      10.203   0.209  22.981  0.00  0.00    +0.182 C 
BRANCH   5   6
ATOM      6  C   UNL     1      10.564   1.171  24.129  0.00  0.00    +0.325 C 
ATOM      7  OXT UNL     1      10.917   2.331  23.986  0.00  0.00    -0.249 OA
BRANCH   6   8
ATOM      8  O   UNL     1      10.516   0.579  25.350  0.00  0.00    -0.479 OA
ATOM      9  H   UNL     1      11.163  -0.152  25.391  0.00  0.00    +0.295 HD
ENDBRANCH   6   8
ENDBRANCH   5   6
BRANCH   5  10
ATOM     10  C   UNL     1       9.663   0.992  21.778  0.00  0.00    +0.033 C 
BRANCH  10  11
ATOM     11  C   UNL     1       8.160   1.268  21.864  0.00  0.00    -0.001 C 
ATOM     12  C   UNL     1       7.880   2.754  22.042  0.00  0.00    +0.004 C 
ENDBRANCH  10  11
ENDBRANCH   5  10
ENDBRANCH   1   5
BRANCH   3  13
ATOM     13  C   UNL     1       8.352  -3.006  23.956  0.00  0.00    +0.107 C 
BRANCH  13  14
ATOM     14  C   UNL     1       7.540  -3.493  22.772  0.00  0.00    +0.129 C 
BRANCH  14  15
ATOM     15  C   UNL     1       6.261  -2.759  22.429  0.00  0.00    +0.305 C 
ATOM     16  O   UNL     1       5.354  -3.331  21.835  0.00  0.00    -0.251 OA
BRANCH  15  17
ATOM     17  O   UNL     1       6.136  -1.475  22.799  0.00  0.00    -0.481 OA
ATOM     18  H   UNL     1       6.785  -0.808  22.486  0.00  0.00    +0.295 HD
ENDBRANCH  15  17
ENDBRANCH  14  15
ENDBRANCH  13  14
ENDBRANCH   3  13
TORSDOF 9
ENDMDL
MODEL 6
REMARK VINA RESULT:      -4.9      1.941      2.359
REMARK  Name = 
REMARK  10 active torsions:
REMARK  status: ('A' for Active; 'I' for Inactive)
REMARK    1  A    between atoms: CA_2  and  C_3
REMARK    2  A    between atoms: CA_2  and  N_6
REMARK    3  A    between atoms: CA_2  and  C_14
REMARK    4  A    between atoms: C_3  and  C_4
REMARK    5  A    between atoms: C_4  and  C_5
REMARK    6  A    between atoms: C_7  and  C_9
REMARK    7  A    between atoms: C_9  and  C_10
REMARK    8  A    between atoms: C_10  and  C_11
REMARK    9  A    between atoms: C_11  and  O_12
REMARK   10  A    between atoms: C_14  and  O_15
REMARK                            x       y       z     vdW  Elec       q    Type
REMARK                         _______ _______ _______ _____ _____    ______ ____
ROOT
ATOM      1  N   UNL     1       8.183  -3.239  25.251  0.00  0.00    -0.302 N 
ATOM      2  H   UNL     1       8.717  -3.422  24.405  0.00  0.00    +0.150 HD
ATOM      3  C   UNL     1       8.193  -1.986  25.799  0.00  0.00    +0.214 C 
ATOM      4  O   UNL     1       7.469  -1.629  26.725  0.00  0.00    -0.276 OA
ENDROOT
BRANCH   1   5
ATOM      5  CA  UNL     1       7.272  -4.308  25.707  0.00  0.00    +0.182 C 
BRANCH   5   6
ATOM      6  C   UNL     1       7.992  -5.170  26.761  0.00  0.00    +0.325 C 
ATOM      7  OXT UNL     1       7.446  -5.744  27.690  0.00  0.00    -0.249 OA
BRANCH   6   8
ATOM      8  O   UNL     1       9.340  -5.185  26.600  0.00  0.00    -0.479 OA
ATOM      9  H   UNL     1       9.753  -5.720  27.306  0.00  0.00    +0.295 HD
ENDBRANCH   6   8
ENDBRANCH   5   6
BRANCH   5  10
ATOM     10  C   UNL     1       6.788  -5.181  24.543  0.00  0.00    +0.033 C 
BRANCH  10  11
ATOM     11  C   UNL     1       7.526  -4.901  23.231  0.00  0.00    -0.001 C 
ATOM     12  C   UNL     1       7.165  -5.926  22.165  0.00  0.00    +0.004 C 
ENDBRANCH  10  11
ENDBRANCH   5  10
ENDBRANCH   1   5
BRANCH   3  13
ATOM     13  C   UNL     1       9.132  -0.998  25.161  0.00  0.00    +0.107 C 
BRANCH  13  14
ATOM     14  C   UNL     1       8.973  -1.006  23.654  0.00  0.00    +0.129 C 
BRANCH  14  15
ATOM     15  C   UNL     1       9.955  -1.817  22.833  0.00  0.00    +0.305 C 
ATOM     16  O   UNL     1      10.547  -2.767  23.331  0.00  0.00    -0.251 OA
BRANCH  15  17
ATOM     17  O   UNL     1      10.151  -1.481  21.549  0.00  0.00    -0.481 OA
ATOM     18  H   UNL     1       9.401  -1.156  21.005  0.00  0.00    +0.295 HD
ENDBRANCH  15  17
ENDBRANCH  14  15
ENDBRANCH  13  14
ENDBRANCH   3  13
TORSDOF 9
ENDMDL
MODEL 7
REMARK VINA RESULT:      -4.8      2.479      5.444
REMARK  Name = 
REMARK  10 active torsions:
REMARK  status: ('A' for Active; 'I' for Inactive)
REMARK    1  A    between atoms: CA_2  and  C_3
REMARK    2  A    between atoms: CA_2  and  N_6
REMARK    3  A    between atoms: CA_2  and  C_14
REMARK    4  A    between atoms: C_3  and  C_4
REMARK    5  A    between atoms: C_4  and  C_5
REMARK    6  A    between atoms: C_7  and  C_9
REMARK    7  A    between atoms: C_9  and  C_10
REMARK    8  A    between atoms: C_10  and  C_11
REMARK    9  A    between atoms: C_11  and  O_12
REMARK   10  A    between atoms: C_14  and  O_15
REMARK                            x       y       z     vdW  Elec       q    Type
REMARK                         _______ _______ _______ _____ _____    ______ ____
ROOT
ATOM      1  N   UNL     1       8.688  -2.401  23.812  0.00  0.00    -0.302 N 
ATOM      2  H   UNL     1       7.897  -2.038  23.286  0.00  0.00    +0.150 HD
ATOM      3  C   UNL     1       8.756  -3.738  24.093  0.00  0.00    +0.214 C 
ATOM      4  O   UNL     1       9.734  -4.293  24.587  0.00  0.00    -0.276 OA
ENDROOT
BRANCH   1   5
ATOM      5  CA  UNL     1       9.808  -1.471  24.058  0.00  0.00    +0.182 C 
BRANCH   5   6
ATOM      6  C   UNL     1       9.302  -0.282  24.897  0.00  0.00    +0.325 C 
ATOM      7  OXT UNL     1       8.147   0.114  24.926  0.00  0.00    -0.249 OA
BRANCH   6   8
ATOM      8  O   UNL     1      10.295   0.349  25.573  0.00  0.00    -0.479 OA
ATOM      9  H   UNL     1      10.045   1.279  25.741  0.00  0.00    +0.295 HD
ENDBRANCH   6   8
ENDBRANCH   5   6
BRANCH   5  10
ATOM     10  C   UNL     1      10.434  -0.973  22.749  0.00  0.00    +0.033 C 
BRANCH  10  11
ATOM     11  C   UNL     1       9.401  -0.687  21.657  0.00  0.00    -0.001 C 
ATOM     12  C   UNL     1       9.229   0.810  21.438  0.00  0.00    +0.004 C 
ENDBRANCH  10  11
ENDBRANCH   5  10
ENDBRANCH   1   5
BRANCH   3  13
ATOM     13  C   UNL     1       7.550  -4.553  23.708  0.00  0.00    +0.107 C 
BRANCH  13  14
ATOM     14  C   UNL     1       7.221  -4.358  22.241  0.00  0.00    +0.129 C 
BRANCH  14  15
ATOM     15  C   UNL     1       5.954  -4.988  21.700  0.00  0.00    +0.305 C 
ATOM     16  O   UNL     1       4.919  -4.968  22.356  0.00  0.00    -0.251 OA
BRANCH  15  17
ATOM     17  O   UNL     1       5.986  -5.555  20.484  0.00  0.00    -0.481 OA
ATOM     18  H   UNL     1       5.247  -5.409  19.854  0.00  0.00    +0.295 HD
ENDBRANCH  15  17
ENDBRANCH  14  15
ENDBRANCH  13  14
ENDBRANCH   3  13
TORSDOF 9
ENDMDL
MODEL 8
REMARK VINA RESULT:      -4.8      2.303      3.175
REMARK  Name = 
REMARK  10 active torsions:
REMARK  status: ('A' for Active; 'I' for Inactive)
REMARK    1  A    between atoms: CA_2  and  C_3
REMARK    2  A    between atoms: CA_2  and  N_6
REMARK    3  A    between atoms: CA_2  and  C_14
REMARK    4  A    between atoms: C_3  and  C_4
REMARK    5  A    between atoms: C_4  and  C_5
REMARK    6  A    between atoms: C_7  and  C_9
REMARK    7  A    between atoms: C_9  and  C_10
REMARK    8  A    between atoms: C_10  and  C_11
REMARK    9  A    between atoms: C_11  and  O_12
REMARK   10  A    between atoms: C_14  and  O_15
REMARK                            x       y       z     vdW  Elec       q    Type
REMARK                         _______ _______ _______ _____ _____    ______ ____
ROOT
ATOM      1  N   UNL     1       8.220  -2.210  23.283  0.00  0.00    -0.302 N 
ATOM      2  H   UNL     1       7.512  -1.652  23.754  0.00  0.00    +0.150 HD
ATOM      3  C   UNL     1       9.541  -1.886  23.428  0.00  0.00    +0.214 C 
ATOM      4  O   UNL     1      10.472  -2.578  23.026  0.00  0.00    -0.276 OA
ENDROOT
BRANCH   1   5
ATOM      5  CA  UNL     1       7.765  -3.456  22.634  0.00  0.00    +0.182 C 
BRANCH   5   6
ATOM      6  C   UNL     1       6.345  -3.245  22.077  0.00  0.00    +0.325 C 
ATOM      7  OXT UNL     1       5.794  -3.975  21.267  0.00  0.00    -0.249 OA
BRANCH   6   8
ATOM      8  O   UNL     1       5.763  -2.104  22.528  0.00  0.00    -0.479 OA
ATOM      9  H   UNL     1       5.897  -2.022  23.493  0.00  0.00    +0.295 HD
ENDBRANCH   6   8
ENDBRANCH   5   6
BRANCH   5  10
ATOM     10  C   UNL     1       7.788  -4.644  23.603  0.00  0.00    +0.033 C 
BRANCH  10  11
ATOM     11  C   UNL     1       7.116  -4.342  24.944  0.00  0.00    -0.001 C 
ATOM     12  C   UNL     1       7.611  -5.284  26.033  0.00  0.00    +0.004 C 
ENDBRANCH  10  11
ENDBRANCH   5  10
ENDBRANCH   1   5
BRANCH   3  13
ATOM     13  C   UNL     1       9.827  -0.615  24.183  0.00  0.00    +0.107 C 
BRANCH  13  14
ATOM     14  C   UNL     1      10.461   0.416  23.271  0.00  0.00    +0.129 C 
BRANCH  14  15
ATOM     15  C   UNL     1       9.572   1.148  22.288  0.00  0.00    +0.305 C 
ATOM     16  O   UNL     1       8.391   0.843  22.168  0.00  0.00    -0.251 OA
BRANCH  15  17
ATOM     17  O   UNL     1      10.100   2.145  21.561  0.00  0.00    -0.481 OA
ATOM     18  H   UNL     1       9.742   2.347  20.670  0.00  0.00    +0.295 HD
ENDBRANCH  15  17
ENDBRANCH  14  15
ENDBRANCH  13  14
ENDBRANCH   3  13
TORSDOF 9
ENDMDL
MODEL 9
REMARK VINA RESULT:      -4.7      3.465      6.115
REMARK  Name = 
REMARK  10 active torsions:
REMARK  status: ('A' for Active; 'I' for Inactive)
REMARK    1  A    between atoms: CA_2  and  C_3
REMARK    2  A    between atoms: CA_2  and  N_6
REMARK    3  A    between atoms: CA_2  and  C_14
REMARK    4  A    between atoms: C_3  and  C_4
REMARK    5  A    between atoms: C_4  and  C_5
REMARK    6  A    between atoms: C_7  and  C_9
REMARK    7  A    between atoms: C_9  and  C_10
REMARK    8  A    between atoms: C_10  and  C_11
REMARK    9  A    between atoms: C_11  and  O_12
REMARK   10  A    between atoms: C_14  and  O_15
REMARK                            x       y       z     vdW  Elec       q    Type
REMARK                         _______ _______ _______ _____ _____    ______ ____
ROOT
ATOM      1  N   UNL     1       7.070  -4.985  24.331  0.00  0.00    -0.302 N 
ATOM      2  H   UNL     1       6.228  -4.644  24.789  0.00  0.00    +0.150 HD
ATOM      3  C   UNL     1       6.973  -5.591  23.109  0.00  0.00    +0.214 C 
ATOM      4  O   UNL     1       7.936  -5.901  22.411  0.00  0.00    -0.276 OA
ENDROOT
BRANCH   1   5
ATOM      5  CA  UNL     1       8.360  -4.614  24.944  0.00  0.00    +0.182 C 
BRANCH   5   6
ATOM      6  C   UNL     1       8.410  -5.160  26.384  0.00  0.00    +0.325 C 
ATOM      7  OXT UNL     1       7.531  -5.823  26.913  0.00  0.00    -0.249 OA
BRANCH   6   8
ATOM      8  O   UNL     1       9.522  -4.772  27.059  0.00  0.00    -0.479 OA
ATOM      9  H   UNL     1      10.280  -5.334  26.802  0.00  0.00    +0.295 HD
ENDBRANCH   6   8
ENDBRANCH   5   6
BRANCH   5  10
ATOM     10  C   UNL     1       8.578  -3.096  24.941  0.00  0.00    +0.033 C 
BRANCH  10  11
ATOM     11  C   UNL     1       9.521  -2.624  23.832  0.00  0.00    -0.001 C 
ATOM     12  C   UNL     1       8.746  -2.183  22.598  0.00  0.00    +0.004 C 
ENDBRANCH  10  11
ENDBRANCH   5  10
ENDBRANCH   1   5
BRANCH   3  13
ATOM     13  C   UNL     1       5.576  -5.828  22.601  0.00  0.00    +0.107 C 
BRANCH  13  14
ATOM     14  C   UNL     1       4.569  -5.694  23.725  0.00  0.00    +0.129 C 
BRANCH  14  15
ATOM     15  C   UNL     1       4.409  -6.852  24.687  0.00  0.00    +0.305 C 
ATOM     16  O   UNL     1       3.715  -7.818  24.390  0.00  0.00    -0.251 OA
BRANCH  15  17
ATOM     17  O   UNL     1       5.052  -6.805  25.864  0.00  0.00    -0.481 OA
ATOM     18  H   UNL     1       4.786  -6.148  26.544  0.00  0.00    +0.295 HD
ENDBRANCH  15  17
ENDBRANCH  14  15
ENDBRANCH  13  14
ENDBRANCH   3  13
TORSDOF 9
ENDMDL
