MODEL 1
REMARK VINA RESULT:      -5.3      0.000      0.000
REMARK  Name = 
REMARK  5 active torsions:
REMARK  status: ('A' for Active; 'I' for Inactive)
REMARK    1  A    between atoms: O_1  and  C_2
REMARK    2  A    between atoms: C_2  and  C_4
REMARK    3  A    between atoms: C_4  and  C_5
REMARK    4  A    between atoms: C_5  and  C_6
REMARK    5  A    between atoms: C_9  and  O_10
REMARK                            x       y       z     vdW  Elec       q    Type
REMARK                         _______ _______ _______ _____ _____    ______ ____
ROOT
ATOM      1  C   UNL     1      10.173   2.015  23.158  0.00  0.00    -0.047 A 
ATOM      2  C   UNL     1       9.554   1.768  21.920  0.00  0.00    +0.007 A 
ATOM      3  C   UNL     1       9.437   0.463  21.432  0.00  0.00    +0.045 A 
ATOM      4  C   UNL     1       9.931  -0.599  22.178  0.00  0.00    +0.117 A 
ATOM      5  C   UNL     1      10.505  -0.384  23.424  0.00  0.00    +0.045 A 
ATOM      6  C   UNL     1      10.609   0.919  23.915  0.00  0.00    +0.007 A 
ENDROOT
BRANCH   4   7
ATOM      7  O   UNL     1       9.833  -1.853  21.654  0.00  0.00    -0.507 OA
ATOM      8  H   UNL     1       9.469  -2.443  22.334  0.00  0.00    +0.292 HD
ENDBRANCH   4   7
BRANCH   1   9
ATOM      9  C   UNL     1      10.315   3.444  23.647  0.00  0.00    +0.046 C 
BRANCH   9  10
ATOM     10  C   UNL     1      11.675   4.064  23.315  0.00  0.00    +0.125 C 
BRANCH  10  11
ATOM     11  C   UNL     1      11.778   5.501  23.752  0.00  0.00    +0.305 C 
ATOM     12  O   UNL     1      10.845   6.279  23.864  0.00  0.00    -0.251 OA
BRANCH  11  13
ATOM     13  O   UNL     1      13.057   5.855  24.027  0.00  0.00    -0.481 OA
ATOM     14  H   UNL     1      13.689   5.111  23.986  0.00  0.00    +0.295 HD
ENDBRANCH  11  13
ENDBRANCH  10  11
ENDBRANCH   9  10
ENDBRANCH   1   9
TORSDOF 5
ENDMDL
MODEL 2
REMARK VINA RESULT:      -5.2      3.179      6.873
REMARK  Name = 
REMARK  5 active torsions:
REMARK  status: ('A' for Active; 'I' for Inactive)
REMARK    1  A    between atoms: O_1  and  C_2
REMARK    2  A    between atoms: C_2  and  C_4
REMARK    3  A    between atoms: C_4  and  C_5
REMARK    4  A    between atoms: C_5  and  C_6
REMARK    5  A    between atoms: C_9  and  O_10
REMARK                            x       y       z     vdW  Elec       q    Type
REMARK                         _______ _______ _______ _____ _____    ______ ____
ROOT
ATOM      1  C   UNL     1       9.881  -1.512  23.448  0.00  0.00    -0.047 A 
ATOM      2  C   UNL     1       9.516  -1.420  22.093  0.00  0.00    +0.007 A 
ATOM      3  C   UNL     1       9.529  -0.187  21.436  0.00  0.00    +0.045 A 
ATOM      4  C   UNL     1       9.910   0.957  22.123  0.00  0.00    +0.117 A 
ATOM      5  C   UNL     1      10.319   0.885  23.448  0.00  0.00    +0.045 A 
ATOM      6  C   UNL     1      10.317  -0.349  24.100  0.00  0.00    +0.007 A 
ENDROOT
BRANCH   4   7
ATOM      7  O   UNL     1       9.874   2.148  21.460  0.00  0.00    -0.507 OA
ATOM      8  H   UNL     1       9.206   2.089  20.758  0.00  0.00    +0.292 HD
ENDBRANCH   4   7
BRANCH   1   9
ATOM      9  C   UNL     1       9.827  -2.857  24.145  0.00  0.00    +0.046 C 
BRANCH   9  10
ATOM     10  C   UNL     1       8.545  -3.640  23.849  0.00  0.00    +0.125 C 
BRANCH  10  11
ATOM     11  C   UNL     1       8.453  -4.919  24.637  0.00  0.00    +0.305 C 
ATOM     12  O   UNL     1       7.484  -5.293  25.276  0.00  0.00    -0.251 OA
BRANCH  11  13
ATOM     13  O   UNL     1       9.593  -5.648  24.553  0.00  0.00    -0.481 OA
ATOM     14  H   UNL     1       9.449  -6.577  24.291  0.00  0.00    +0.295 HD
ENDBRANCH  11  13
ENDBRANCH  10  11
ENDBRANCH   9  10
ENDBRANCH   1   9
TORSDOF 5
ENDMDL
MODEL 3
REMARK VINA RESULT:      -4.8      2.324      6.306
REMARK  Name = 
REMARK  5 active torsions:
REMARK  status: ('A' for Active; 'I' for Inactive)
REMARK    1  A    between atoms: O_1  and  C_2
REMARK    2  A    between atoms: C_2  and  C_4
REMARK    3  A    between atoms: C_4  and  C_5
REMARK    4  A    between atoms: C_5  and  C_6
REMARK    5  A    between atoms: C_9  and  O_10
REMARK                            x       y       z     vdW  Elec       q    Type
REMARK                         _______ _______ _______ _____ _____    ______ ____
ROOT
ATOM      1  C   UNL     1      10.153  -0.467  23.017  0.00  0.00    -0.047 A 
ATOM      2  C   UNL     1       9.798   0.265  21.870  0.00  0.00    +0.007 A 
ATOM      3  C   UNL     1       9.843   1.661  21.876  0.00  0.00    +0.045 A 
ATOM      4  C   UNL     1      10.248   2.334  23.022  0.00  0.00    +0.117 A 
ATOM      5  C   UNL     1      10.647   1.632  24.152  0.00  0.00    +0.045 A 
ATOM      6  C   UNL     1      10.613   0.237  24.140  0.00  0.00    +0.007 A 
ENDROOT
BRANCH   4   7
ATOM      7  O   UNL     1      10.243   3.696  23.003  0.00  0.00    -0.507 OA
ATOM      8  H   UNL     1      11.146   4.010  23.176  0.00  0.00    +0.292 HD
ENDBRANCH   4   7
BRANCH   1   9
ATOM      9  C   UNL     1      10.064  -1.981  22.993  0.00  0.00    +0.046 C 
BRANCH   9  10
ATOM     10  C   UNL     1       9.541  -2.576  24.302  0.00  0.00    +0.125 C 
BRANCH  10  11
ATOM     11  C   UNL     1       8.730  -3.826  24.087  0.00  0.00    +0.305 C 
ATOM     12  O   UNL     1       7.615  -3.874  23.595  0.00  0.00    -0.251 OA
BRANCH  11  13
ATOM     13  O   UNL     1       9.391  -4.935  24.500  0.00  0.00    -0.481 OA
ATOM     14  H   UNL     1       9.932  -4.796  25.302  0.00  0.00    +0.295 HD
ENDBRANCH  11  13
ENDBRANCH  10  11
ENDBRANCH   9  10
ENDBRANCH   1   9
TORSDOF 5
ENDMDL
MODEL 4
REMARK VINA RESULT:      -4.7      1.993      2.560
REMARK  Name = 
REMARK  5 active torsions:
REMARK  status: ('A' for Active; 'I' for Inactive)
REMARK    1  A    between atoms: O_1  and  C_2
REMARK    2  A    between atoms: C_2  and  C_4
REMARK    3  A    between atoms: C_4  and  C_5
REMARK    4  A    between atoms: C_5  and  C_6
REMARK    5  A    between atoms: C_9  and  O_10
REMARK                            x       y       z     vdW  Elec       q    Type
REMARK                         _______ _______ _______ _____ _____    ______ ____
ROOT
ATOM      1  C   UNL     1      10.093   2.624  23.149  0.00  0.00    -0.047 A 
ATOM      2  C   UNL     1       9.058   2.804  24.084  0.00  0.00    +0.007 A 
ATOM      3  C   UNL     1       7.792   2.257  23.857  0.00  0.00    +0.045 A 
ATOM      4  C   UNL     1       7.554   1.525  22.701  0.00  0.00    +0.117 A 
ATOM      5  C   UNL     1       8.572   1.295  21.785  0.00  0.00    +0.045 A 
ATOM      6  C   UNL     1       9.839   1.831  22.020  0.00  0.00    +0.007 A 
ENDROOT
BRANCH   4   7
ATOM      7  O   UNL     1       6.297   1.040  22.495  0.00  0.00    -0.507 OA
ATOM      8  H   UNL     1       5.663   1.764  22.622  0.00  0.00    +0.292 HD
ENDBRANCH   4   7
BRANCH   1   9
ATOM      9  C   UNL     1      11.447   3.255  23.406  0.00  0.00    +0.046 C 
BRANCH   9  10
ATOM     10  C   UNL     1      11.405   4.785  23.433  0.00  0.00    +0.125 C 
BRANCH  10  11
ATOM     11  C   UNL     1      12.777   5.401  23.500  0.00  0.00    +0.305 C 
ATOM     12  O   UNL     1      13.700   5.168  22.737  0.00  0.00    -0.251 OA
BRANCH  11  13
ATOM     13  O   UNL     1      12.886   6.280  24.526  0.00  0.00    -0.481 OA
ATOM     14  H   UNL     1      13.250   5.889  25.344  0.00  0.00    +0.295 HD
ENDBRANCH  11  13
ENDBRANCH  10  11
ENDBRANCH   9  10
ENDBRANCH   1   9
TORSDOF 5
ENDMDL
MODEL 5
REMARK VINA RESULT:      -4.7      2.080      5.709
REMARK  Name = 
REMARK  5 active torsions:
REMARK  status: ('A' for Active; 'I' for Inactive)
REMARK    1  A    between atoms: O_1  and  C_2
REMARK    2  A    between atoms: C_2  and  C_4
REMARK    3  A    between atoms: C_4  and  C_5
REMARK    4  A    between atoms: C_5  and  C_6
REMARK    5  A    between atoms: C_9  and  O_10
REMARK                            x       y       z     vdW  Elec       q    Type
REMARK                         _______ _______ _______ _____ _____    ______ ____
ROOT
ATOM      1  C   UNL     1       9.779   1.274  24.624  0.00  0.00    -0.047 A 
ATOM      2  C   UNL     1      10.808   1.848  23.857  0.00  0.00    +0.007 A 
ATOM      3  C   UNL     1      10.692   3.154  23.376  0.00  0.00    +0.045 A 
ATOM      4  C   UNL     1       9.554   3.896  23.662  0.00  0.00    +0.117 A 
ATOM      5  C   UNL     1       8.545   3.368  24.457  0.00  0.00    +0.045 A 
ATOM      6  C   UNL     1       8.669   2.067  24.947  0.00  0.00    +0.007 A 
ENDROOT
BRANCH   4   7
ATOM      7  O   UNL     1       9.459   5.154  23.145  0.00  0.00    -0.507 OA
ATOM      8  H   UNL     1       9.918   5.170  22.289  0.00  0.00    +0.292 HD
ENDBRANCH   4   7
BRANCH   1   9
ATOM      9  C   UNL     1       9.918  -0.157  25.106  0.00  0.00    +0.046 C 
BRANCH   9  10
ATOM     10  C   UNL     1       9.107  -1.155  24.276  0.00  0.00    +0.125 C 
BRANCH  10  11
ATOM     11  C   UNL     1       9.978  -2.080  23.469  0.00  0.00    +0.305 C 
ATOM     12  O   UNL     1      10.589  -1.780  22.457  0.00  0.00    -0.251 OA
BRANCH  11  13
ATOM     13  O   UNL     1      10.025  -3.325  24.004  0.00  0.00    -0.481 OA
ATOM     14  H   UNL     1      10.530  -3.376  24.839  0.00  0.00    +0.295 HD
ENDBRANCH  11  13
ENDBRANCH  10  11
ENDBRANCH   9  10
ENDBRANCH   1   9
TORSDOF 5
ENDMDL
MODEL 6
REMARK VINA RESULT:      -4.7      3.352      4.970
REMARK  Name = 
REMARK  5 active torsions:
REMARK  status: ('A' for Active; 'I' for Inactive)
REMARK    1  A    between atoms: O_1  and  C_2
REMARK    2  A    between atoms: C_2  and  C_4
REMARK    3  A    between atoms: C_4  and  C_5
REMARK    4  A    between atoms: C_5  and  C_6
REMARK    5  A    between atoms: C_9  and  O_10
REMARK                            x       y       z     vdW  Elec       q    Type
REMARK                         _______ _______ _______ _____ _____    ______ ____
ROOT
ATOM      1  C   UNL     1       9.207  -1.997  23.059  0.00  0.00    -0.047 A 
ATOM      2  C   UNL     1       9.638  -2.840  24.099  0.00  0.00    +0.007 A 
ATOM      3  C   UNL     1       8.904  -3.979  24.440  0.00  0.00    +0.045 A 
ATOM      4  C   UNL     1       7.744  -4.287  23.743  0.00  0.00    +0.117 A 
ATOM      5  C   UNL     1       7.324  -3.496  22.682  0.00  0.00    +0.045 A 
ATOM      6  C   UNL     1       8.064  -2.365  22.334  0.00  0.00    +0.007 A 
ENDROOT
BRANCH   4   7
ATOM      7  O   UNL     1       7.034  -5.385  24.128  0.00  0.00    -0.507 OA
ATOM      8  H   UNL     1       7.321  -5.639  25.021  0.00  0.00    +0.292 HD
ENDBRANCH   4   7
BRANCH   1   9
ATOM      9  C   UNL     1      10.005  -0.750  22.732  0.00  0.00    +0.046 C 
BRANCH   9  10
ATOM     10  C   UNL     1       9.593  -0.099  21.409  0.00  0.00    +0.125 C 
BRANCH  10  11
ATOM     11  C   UNL     1       9.059   1.296  21.592  0.00  0.00    +0.305 C 
ATOM     12  O   UNL     1       7.888   1.594  21.760  0.00  0.00    -0.251 OA
BRANCH  11  13
ATOM     13  O   UNL     1      10.047   2.224  21.562  0.00  0.00    -0.481 OA
ATOM     14  H   UNL     1      10.761   2.018  20.928  0.00  0.00    +0.295 HD
ENDBRANCH  11  13
ENDBRANCH  10  11
ENDBRANCH   9  10
ENDBRANCH   1   9
TORSDOF 5
ENDMDL
MODEL 7
REMARK VINA RESULT:      -4.6      4.598      7.634
REMARK  Name = 
REMARK  5 active torsions:
REMARK  status: ('A' for Active; 'I' for Inactive)
REMARK    1  A    between atoms: O_1  and  C_2
REMARK    2  A    between atoms: C_2  and  C_4
REMARK    3  A    between atoms: C_4  and  C_5
REMARK    4  A    between atoms: C_5  and  C_6
REMARK    5  A    between atoms: C_9  and  O_10
REMARK                            x       y       z     vdW  Elec       q    Type
REMARK                         _______ _______ _______ _____ _____    ______ ____
ROOT
ATOM      1  C   UNL     1       8.605  -2.363  24.786  0.00  0.00    -0.047 A 
ATOM      2  C   UNL     1       9.605  -1.389  24.616  0.00  0.00    +0.007 A 
ATOM      3  C   UNL     1       9.956  -0.947  23.338  0.00  0.00    +0.045 A 
ATOM      4  C   UNL     1       9.308  -1.468  22.225  0.00  0.00    +0.117 A 
ATOM      5  C   UNL     1       8.285  -2.396  22.371  0.00  0.00    +0.045 A 
ATOM      6  C   UNL     1       7.928  -2.827  23.649  0.00  0.00    +0.007 A 
ENDROOT
BRANCH   4   7
ATOM      7  O   UNL     1       9.703  -1.041  20.993  0.00  0.00    -0.507 OA
ATOM      8  H   UNL     1       9.000  -1.249  20.355  0.00  0.00    +0.292 HD
ENDBRANCH   4   7
BRANCH   1   9
ATOM      9  C   UNL     1       8.267  -2.848  26.183  0.00  0.00    +0.046 C 
BRANCH   9  10
ATOM     10  C   UNL     1       8.789  -4.256  26.476  0.00  0.00    +0.125 C 
BRANCH  10  11
ATOM     11  C   UNL     1       7.686  -5.277  26.562  0.00  0.00    +0.305 C 
ATOM     12  O   UNL     1       6.821  -5.463  25.722  0.00  0.00    -0.251 OA
BRANCH  11  13
ATOM     13  O   UNL     1       7.757  -6.002  27.705  0.00  0.00    -0.481 OA
ATOM     14  H   UNL     1       7.449  -5.520  28.498  0.00  0.00    +0.295 HD
ENDBRANCH  11  13
ENDBRANCH  10  11
ENDBRANCH   9  10
ENDBRANCH   1   9
TORSDOF 5
ENDMDL
MODEL 8
REMARK VINA RESULT:      -4.6      4.335      6.232
REMARK  Name = 
REMARK  5 active torsions:
REMARK  status: ('A' for Active; 'I' for Inactive)
REMARK    1  A    between atoms: O_1  and  C_2
REMARK    2  A    between atoms: C_2  and  C_4
REMARK    3  A    between atoms: C_4  and  C_5
REMARK    4  A    between atoms: C_5  and  C_6
REMARK    5  A    between atoms: C_9  and  O_10
REMARK                            x       y       z     vdW  Elec       q    Type
REMARK                         _______ _______ _______ _____ _____    ______ ____
ROOT
ATOM      1  C   UNL     1       8.991  -2.493  24.957  0.00  0.00    -0.047 A 
ATOM      2  C   UNL     1       8.107  -2.468  26.051  0.00  0.00    +0.007 A 
ATOM      3  C   UNL     1       7.770  -3.648  26.720  0.00  0.00    +0.045 A 
ATOM      4  C   UNL     1       8.317  -4.855  26.306  0.00  0.00    +0.117 A 
ATOM      5  C   UNL     1       9.228  -4.900  25.259  0.00  0.00    +0.045 A 
ATOM      6  C   UNL     1       9.572  -3.718  24.600  0.00  0.00    +0.007 A 
ENDROOT
BRANCH   4   7
ATOM      7  O   UNL     1       7.937  -5.990  26.958  0.00  0.00    -0.507 OA
ATOM      8  H   UNL     1       8.016  -6.739  26.345  0.00  0.00    +0.292 HD
ENDBRANCH   4   7
BRANCH   1   9
ATOM      9  C   UNL     1       9.313  -1.203  24.230  0.00  0.00    +0.046 C 
BRANCH   9  10
ATOM     10  C   UNL     1       8.483  -1.002  22.960  0.00  0.00    +0.125 C 
BRANCH  10  11
ATOM     11  C   UNL     1       9.329  -0.646  21.766  0.00  0.00    +0.305 C 
ATOM     12  O   UNL     1       9.196   0.348  21.071  0.00  0.00    -0.251 OA
BRANCH  11  13
ATOM     13  O   UNL     1      10.294  -1.569  21.537  0.00  0.00    -0.481 OA
ATOM     14  H   UNL     1      10.573  -2.055  22.338  0.00  0.00    +0.295 HD
ENDBRANCH  11  13
ENDBRANCH  10  11
ENDBRANCH   9  10
ENDBRANCH   1   9
TORSDOF 5
ENDMDL
MODEL 9
REMARK VINA RESULT:      -4.6      1.647      2.608
REMARK  Name = 
REMARK  5 active torsions:
REMARK  status: ('A' for Active; 'I' for Inactive)
REMARK    1  A    between atoms: O_1  and  C_2
REMARK    2  A    between atoms: C_2  and  C_4
REMARK    3  A    between atoms: C_4  and  C_5
REMARK    4  A    between atoms: C_5  and  C_6
REMARK    5  A    between atoms: C_9  and  O_10
REMARK                            x       y       z     vdW  Elec       q    Type
REMARK                         _______ _______ _______ _____ _____    ______ ____
ROOT
ATOM      1  C   UNL     1      10.084   2.062  23.156  0.00  0.00    -0.047 A 
ATOM      2  C   UNL     1      10.608   1.008  23.925  0.00  0.00    +0.007 A 
ATOM      3  C   UNL     1      10.546  -0.309  23.462  0.00  0.00    +0.045 A 
ATOM      4  C   UNL     1       9.969  -0.580  22.229  0.00  0.00    +0.117 A 
ATOM      5  C   UNL     1       9.486   0.449  21.431  0.00  0.00    +0.045 A 
ATOM      6  C   UNL     1       9.560   1.765  21.890  0.00  0.00    +0.007 A 
ENDROOT
BRANCH   4   7
ATOM      7  O   UNL     1       9.892  -1.880  21.826  0.00  0.00    -0.507 OA
ATOM      8  H   UNL     1       9.950  -1.906  20.857  0.00  0.00    +0.292 HD
ENDBRANCH   4   7
BRANCH   1   9
ATOM      9  C   UNL     1      10.136   3.477  23.698  0.00  0.00    +0.046 C 
BRANCH   9  10
ATOM     10  C   UNL     1       8.756   4.042  24.043  0.00  0.00    +0.125 C 
BRANCH  10  11
ATOM     11  C   UNL     1       8.223   4.962  22.977  0.00  0.00    +0.305 C 
ATOM     12  O   UNL     1       7.202   4.788  22.333  0.00  0.00    -0.251 OA
BRANCH  11  13
ATOM     13  O   UNL     1       9.016   6.048  22.805  0.00  0.00    -0.481 OA
ATOM     14  H   UNL     1       8.569   6.796  22.363  0.00  0.00    +0.295 HD
ENDBRANCH  11  13
ENDBRANCH  10  11
ENDBRANCH   9  10
ENDBRANCH   1   9
TORSDOF 5
ENDMDL
