MODEL 1
REMARK VINA RESULT:      -6.2      0.000      0.000
REMARK  Name = 
REMARK  8 active torsions:
REMARK  status: ('A' for Active; 'I' for Inactive)
REMARK    1  A    between atoms: C_1  and  N_2
REMARK    2  A    between atoms: C_3  and  C_4
REMARK    3  A    between atoms: C_4  and  C_5
REMARK    4  A    between atoms: C_5  and  C_6
REMARK    5  A    between atoms: C_6  and  O_7
REMARK    6  A    between atoms: C_8  and  C_9
REMARK    7  A    between atoms: C_9  and  O_10
REMARK    8  A    between atoms: C_16  and  N_17
REMARK                            x       y       z     vdW  Elec       q    Type
REMARK                         _______ _______ _______ _____ _____    ______ ____
ROOT
ATOM      1  C   UNL     1       4.552  -5.862  23.001  0.00  0.00    +0.149 C 
ATOM      2  N   UNL     1       5.438  -5.237  23.963  0.00  0.00    -0.343 N 
ATOM      3  C   UNL     1       6.293  -4.207  23.647  0.00  0.00    +0.100 A 
ATOM      4  C   UNL     1       6.433  -3.523  22.389  0.00  0.00    +0.205 C 
ATOM      5  C   UNL     1       7.644  -2.677  22.274  0.00  0.00    +0.080 C 
ATOM      6  C   UNL     1       8.484  -2.434  23.300  0.00  0.00    +0.081 C 
ATOM      7  C   UNL     1       8.174  -2.976  24.700  0.00  0.00    +0.209 C 
ATOM      8  O   UNL     1       8.805  -2.649  25.701  0.00  0.00    -0.285 OA
ATOM      9  O   UNL     1       5.678  -3.641  21.431  0.00  0.00    -0.286 OA
ATOM     10  C   UNL     1       7.086  -3.946  24.749  0.00  0.00    +0.058 A 
ATOM     11  C   UNL     1       6.620  -4.777  25.820  0.00  0.00    +0.010 A 
ATOM     12  C   UNL     1       5.633  -5.609  25.281  0.00  0.00    +0.025 A 
ENDROOT
BRANCH   6  13
ATOM     13  N   UNL     1       9.742  -1.866  23.092  0.00  0.00    -0.324 N 
ATOM     14  C   UNL     1       9.990  -0.457  23.349  0.00  0.00    +0.124 C 
ATOM     15  C   UNL     1       9.980  -1.010  21.939  0.00  0.00    +0.124 C 
ENDBRANCH   6  13
BRANCH  11  16
ATOM     16  C   UNL     1       7.143  -4.810  27.226  0.00  0.00    +0.193 C 
BRANCH  16  17
ATOM     17  O   UNL     1       7.863  -5.998  27.525  0.00  0.00    -0.390 OA
ATOM     18  H   UNL     1       7.347  -6.467  28.214  0.00  0.00    +0.210 HD
ENDBRANCH  16  17
ENDBRANCH  11  16
BRANCH  12  19
ATOM     19  C   UNL     1       4.886  -6.741  25.941  0.00  0.00    +0.056 C 
BRANCH  19  20
ATOM     20  C   UNL     1       3.917  -6.218  27.010  0.00  0.00    +0.034 C 
BRANCH  20  21
ATOM     21  C   UNL     1       4.274  -6.716  28.406  0.00  0.00    +0.156 C 
BRANCH  21  22
ATOM     22  O   UNL     1       5.388  -7.595  28.364  0.00  0.00    -0.395 OA
ATOM     23  H   UNL     1       6.193  -7.059  28.466  0.00  0.00    +0.209 HD
ENDBRANCH  21  22
ENDBRANCH  20  21
ENDBRANCH  19  20
ENDBRANCH  12  19
TORSDOF 7
ENDMDL
MODEL 2
REMARK VINA RESULT:      -5.9      1.893      2.397
REMARK  Name = 
REMARK  8 active torsions:
REMARK  status: ('A' for Active; 'I' for Inactive)
REMARK    1  A    between atoms: C_1  and  N_2
REMARK    2  A    between atoms: C_3  and  C_4
REMARK    3  A    between atoms: C_4  and  C_5
REMARK    4  A    between atoms: C_5  and  C_6
REMARK    5  A    between atoms: C_6  and  O_7
REMARK    6  A    between atoms: C_8  and  C_9
REMARK    7  A    between atoms: C_9  and  O_10
REMARK    8  A    between atoms: C_16  and  N_17
REMARK                            x       y       z     vdW  Elec       q    Type
REMARK                         _______ _______ _______ _____ _____    ______ ____
ROOT
ATOM      1  C   UNL     1       4.421  -3.101  24.964  0.00  0.00    +0.149 C 
ATOM      2  N   UNL     1       5.833  -3.401  24.825  0.00  0.00    -0.343 N 
ATOM      3  C   UNL     1       6.781  -2.453  24.521  0.00  0.00    +0.100 A 
ATOM      4  C   UNL     1       6.599  -1.035  24.355  0.00  0.00    +0.205 C 
ATOM      5  C   UNL     1       7.743  -0.331  23.731  0.00  0.00    +0.080 C 
ATOM      6  C   UNL     1       8.927  -0.920  23.466  0.00  0.00    +0.081 C 
ATOM      7  C   UNL     1       9.179  -2.373  23.882  0.00  0.00    +0.209 C 
ATOM      8  O   UNL     1      10.283  -2.907  23.821  0.00  0.00    -0.285 OA
ATOM      9  O   UNL     1       5.578  -0.415  24.632  0.00  0.00    -0.286 OA
ATOM     10  C   UNL     1       7.990  -3.093  24.326  0.00  0.00    +0.058 A 
ATOM     11  C   UNL     1       7.795  -4.480  24.633  0.00  0.00    +0.010 A 
ATOM     12  C   UNL     1       6.430  -4.647  24.884  0.00  0.00    +0.025 A 
ENDROOT
BRANCH   6  13
ATOM     13  N   UNL     1       9.873  -0.312  22.640  0.00  0.00    -0.324 N 
ATOM     14  C   UNL     1      10.017   1.134  22.589  0.00  0.00    +0.124 C 
ATOM     15  C   UNL     1       9.459   0.357  21.415  0.00  0.00    +0.124 C 
ENDBRANCH   6  13
BRANCH  11  16
ATOM     16  C   UNL     1       8.837  -5.561  24.611  0.00  0.00    +0.193 C 
BRANCH  16  17
ATOM     17  O   UNL     1       9.778  -5.449  25.670  0.00  0.00    -0.390 OA
ATOM     18  H   UNL     1       9.309  -5.720  26.486  0.00  0.00    +0.210 HD
ENDBRANCH  16  17
ENDBRANCH  11  16
BRANCH  12  19
ATOM     19  C   UNL     1       5.667  -5.919  25.153  0.00  0.00    +0.056 C 
BRANCH  19  20
ATOM     20  C   UNL     1       5.520  -6.170  26.660  0.00  0.00    +0.034 C 
BRANCH  20  21
ATOM     21  C   UNL     1       6.495  -5.335  27.482  0.00  0.00    +0.156 C 
BRANCH  21  22
ATOM     22  O   UNL     1       7.640  -6.095  27.840  0.00  0.00    -0.395 OA
ATOM     23  H   UNL     1       8.213  -6.156  27.056  0.00  0.00    +0.209 HD
ENDBRANCH  21  22
ENDBRANCH  20  21
ENDBRANCH  19  20
ENDBRANCH  12  19
TORSDOF 7
ENDMDL
MODEL 3
REMARK VINA RESULT:      -5.9      1.831      5.982
REMARK  Name = 
REMARK  8 active torsions:
REMARK  status: ('A' for Active; 'I' for Inactive)
REMARK    1  A    between atoms: C_1  and  N_2
REMARK    2  A    between atoms: C_3  and  C_4
REMARK    3  A    between atoms: C_4  and  C_5
REMARK    4  A    between atoms: C_5  and  C_6
REMARK    5  A    between atoms: C_6  and  O_7
REMARK    6  A    between atoms: C_8  and  C_9
REMARK    7  A    between atoms: C_9  and  O_10
REMARK    8  A    between atoms: C_16  and  N_17
REMARK                            x       y       z     vdW  Elec       q    Type
REMARK                         _______ _______ _______ _____ _____    ______ ____
ROOT
ATOM      1  C   UNL     1       6.908  -3.040  22.055  0.00  0.00    +0.149 C 
ATOM      2  N   UNL     1       6.959  -3.712  23.339  0.00  0.00    -0.343 N 
ATOM      3  C   UNL     1       6.210  -4.826  23.640  0.00  0.00    +0.100 A 
ATOM      4  C   UNL     1       5.323  -5.561  22.777  0.00  0.00    +0.205 C 
ATOM      5  C   UNL     1       4.431  -6.517  23.473  0.00  0.00    +0.080 C 
ATOM      6  C   UNL     1       4.524  -6.803  24.788  0.00  0.00    +0.081 C 
ATOM      7  C   UNL     1       5.644  -6.189  25.636  0.00  0.00    +0.209 C 
ATOM      8  O   UNL     1       5.881  -6.539  26.789  0.00  0.00    -0.285 OA
ATOM      9  O   UNL     1       5.225  -5.406  21.566  0.00  0.00    -0.286 OA
ATOM     10  C   UNL     1       6.389  -5.122  24.978  0.00  0.00    +0.058 A 
ATOM     11  C   UNL     1       7.377  -4.217  25.489  0.00  0.00    +0.010 A 
ATOM     12  C   UNL     1       7.667  -3.317  24.459  0.00  0.00    +0.025 A 
ENDROOT
BRANCH   6  13
ATOM     13  N   UNL     1       3.510  -7.490  25.457  0.00  0.00    -0.324 N 
ATOM     14  C   UNL     1       2.300  -7.911  24.771  0.00  0.00    +0.124 C 
ATOM     15  C   UNL     1       2.273  -6.811  25.812  0.00  0.00    +0.124 C 
ENDBRANCH   6  13
BRANCH  11  16
ATOM     16  C   UNL     1       7.934  -4.187  26.882  0.00  0.00    +0.193 C 
BRANCH  16  17
ATOM     17  O   UNL     1       8.609  -5.386  27.239  0.00  0.00    -0.390 OA
ATOM     18  H   UNL     1       8.011  -6.122  26.995  0.00  0.00    +0.210 HD
ENDBRANCH  16  17
ENDBRANCH  11  16
BRANCH  12  19
ATOM     19  C   UNL     1       8.558  -2.101  24.489  0.00  0.00    +0.056 C 
BRANCH  19  20
ATOM     20  C   UNL     1       9.890  -2.371  23.776  0.00  0.00    +0.034 C 
BRANCH  20  21
ATOM     21  C   UNL     1      10.280  -1.238  22.832  0.00  0.00    +0.156 C 
BRANCH  21  22
ATOM     22  O   UNL     1      10.177  -1.648  21.477  0.00  0.00    -0.395 OA
ATOM     23  H   UNL     1       9.233  -1.677  21.247  0.00  0.00    +0.209 HD
ENDBRANCH  21  22
ENDBRANCH  20  21
ENDBRANCH  19  20
ENDBRANCH  12  19
TORSDOF 7
ENDMDL
MODEL 4
REMARK VINA RESULT:      -5.8      2.491      3.305
REMARK  Name = 
REMARK  8 active torsions:
REMARK  status: ('A' for Active; 'I' for Inactive)
REMARK    1  A    between atoms: C_1  and  N_2
REMARK    2  A    between atoms: C_3  and  C_4
REMARK    3  A    between atoms: C_4  and  C_5
REMARK    4  A    between atoms: C_5  and  C_6
REMARK    5  A    between atoms: C_6  and  O_7
REMARK    6  A    between atoms: C_8  and  C_9
REMARK    7  A    between atoms: C_9  and  O_10
REMARK    8  A    between atoms: C_16  and  N_17
REMARK                            x       y       z     vdW  Elec       q    Type
REMARK                         _______ _______ _______ _____ _____    ______ ____
ROOT
ATOM      1  C   UNL     1       5.538  -2.147  26.907  0.00  0.00    +0.149 C 
ATOM      2  N   UNL     1       6.693  -2.666  26.201  0.00  0.00    -0.343 N 
ATOM      3  C   UNL     1       7.656  -1.865  25.635  0.00  0.00    +0.100 A 
ATOM      4  C   UNL     1       7.758  -0.430  25.680  0.00  0.00    +0.205 C 
ATOM      5  C   UNL     1       8.726   0.154  24.723  0.00  0.00    +0.080 C 
ATOM      6  C   UNL     1       9.562  -0.583  23.964  0.00  0.00    +0.081 C 
ATOM      7  C   UNL     1       9.607  -2.107  24.118  0.00  0.00    +0.209 C 
ATOM      8  O   UNL     1      10.459  -2.811  23.583  0.00  0.00    -0.285 OA
ATOM      9  O   UNL     1       7.080   0.306  26.388  0.00  0.00    -0.286 OA
ATOM     10  C   UNL     1       8.530  -2.668  24.926  0.00  0.00    +0.058 A 
ATOM     11  C   UNL     1       8.147  -4.030  25.161  0.00  0.00    +0.010 A 
ATOM     12  C   UNL     1       6.967  -3.990  25.910  0.00  0.00    +0.025 A 
ENDROOT
BRANCH   6  13
ATOM     13  N   UNL     1      10.257  -0.022  22.891  0.00  0.00    -0.324 N 
ATOM     14  C   UNL     1       9.950   1.313  22.404  0.00  0.00    +0.124 C 
ATOM     15  C   UNL     1       9.628   0.082  21.582  0.00  0.00    +0.124 C 
ENDBRANCH   6  13
BRANCH  11  16
ATOM     16  C   UNL     1       8.830  -5.259  24.637  0.00  0.00    +0.193 C 
BRANCH  16  17
ATOM     17  O   UNL     1      10.187  -5.360  25.048  0.00  0.00    -0.390 OA
ATOM     18  H   UNL     1      10.560  -6.135  24.579  0.00  0.00    +0.210 HD
ENDBRANCH  16  17
ENDBRANCH  11  16
BRANCH  12  19
ATOM     19  C   UNL     1       6.083  -5.133  26.343  0.00  0.00    +0.056 C 
BRANCH  19  20
ATOM     20  C   UNL     1       5.039  -5.465  25.269  0.00  0.00    +0.034 C 
BRANCH  20  21
ATOM     21  C   UNL     1       4.528  -6.897  25.384  0.00  0.00    +0.156 C 
BRANCH  21  22
ATOM     22  O   UNL     1       4.443  -7.511  24.106  0.00  0.00    -0.395 OA
ATOM     23  H   UNL     1       3.531  -7.827  23.988  0.00  0.00    +0.209 HD
ENDBRANCH  21  22
ENDBRANCH  20  21
ENDBRANCH  19  20
ENDBRANCH  12  19
TORSDOF 7
ENDMDL
MODEL 5
REMARK VINA RESULT:      -5.7      2.958      6.916
REMARK  Name = 
REMARK  8 active torsions:
REMARK  status: ('A' for Active; 'I' for Inactive)
REMARK    1  A    between atoms: C_1  and  N_2
REMARK    2  A    between atoms: C_3  and  C_4
REMARK    3  A    between atoms: C_4  and  C_5
REMARK    4  A    between atoms: C_5  and  C_6
REMARK    5  A    between atoms: C_6  and  O_7
REMARK    6  A    between atoms: C_8  and  C_9
REMARK    7  A    between atoms: C_9  and  O_10
REMARK    8  A    between atoms: C_16  and  N_17
REMARK                            x       y       z     vdW  Elec       q    Type
REMARK                         _______ _______ _______ _____ _____    ______ ____
ROOT
ATOM      1  C   UNL     1       7.101   0.640  26.118  0.00  0.00    +0.149 C 
ATOM      2  N   UNL     1       7.533  -0.183  25.004  0.00  0.00    -0.343 N 
ATOM      3  C   UNL     1       6.790  -1.225  24.501  0.00  0.00    +0.100 A 
ATOM      4  C   UNL     1       5.475  -1.652  24.899  0.00  0.00    +0.205 C 
ATOM      5  C   UNL     1       5.074  -2.984  24.388  0.00  0.00    +0.080 C 
ATOM      6  C   UNL     1       5.802  -3.693  23.501  0.00  0.00    +0.081 C 
ATOM      7  C   UNL     1       7.082  -3.101  22.902  0.00  0.00    +0.209 C 
ATOM      8  O   UNL     1       7.691  -3.623  21.972  0.00  0.00    -0.285 OA
ATOM      9  O   UNL     1       4.727  -1.036  25.648  0.00  0.00    -0.286 OA
ATOM     10  C   UNL     1       7.548  -1.880  23.549  0.00  0.00    +0.058 A 
ATOM     11  C   UNL     1       8.764  -1.138  23.384  0.00  0.00    +0.010 A 
ATOM     12  C   UNL     1       8.748  -0.123  24.345  0.00  0.00    +0.025 A 
ENDROOT
BRANCH   6  13
ATOM     13  N   UNL     1       5.536  -5.041  23.255  0.00  0.00    -0.324 N 
ATOM     14  C   UNL     1       4.177  -5.529  23.095  0.00  0.00    +0.124 C 
ATOM     15  C   UNL     1       5.004  -5.890  24.310  0.00  0.00    +0.124 C 
ENDBRANCH   6  13
BRANCH  11  16
ATOM     16  C   UNL     1       9.878  -1.439  22.424  0.00  0.00    +0.193 C 
BRANCH  16  17
ATOM     17  O   UNL     1       9.563  -1.098  21.081  0.00  0.00    -0.390 OA
ATOM     18  H   UNL     1      10.055  -0.274  20.883  0.00  0.00    +0.210 HD
ENDBRANCH  16  17
ENDBRANCH  11  16
BRANCH  12  19
ATOM     19  C   UNL     1       9.823   0.880  24.681  0.00  0.00    +0.056 C 
BRANCH  19  20
ATOM     20  C   UNL     1       9.629   2.185  23.898  0.00  0.00    +0.034 C 
BRANCH  20  21
ATOM     21  C   UNL     1      10.463   2.223  22.622  0.00  0.00    +0.156 C 
BRANCH  21  22
ATOM     22  O   UNL     1       9.653   1.991  21.478  0.00  0.00    -0.395 OA
ATOM     23  H   UNL     1      10.232   2.002  20.697  0.00  0.00    +0.209 HD
ENDBRANCH  21  22
ENDBRANCH  20  21
ENDBRANCH  19  20
ENDBRANCH  12  19
TORSDOF 7
ENDMDL
MODEL 6
REMARK VINA RESULT:      -5.7      2.937      6.630
REMARK  Name = 
REMARK  8 active torsions:
REMARK  status: ('A' for Active; 'I' for Inactive)
REMARK    1  A    between atoms: C_1  and  N_2
REMARK    2  A    between atoms: C_3  and  C_4
REMARK    3  A    between atoms: C_4  and  C_5
REMARK    4  A    between atoms: C_5  and  C_6
REMARK    5  A    between atoms: C_6  and  O_7
REMARK    6  A    between atoms: C_8  and  C_9
REMARK    7  A    between atoms: C_9  and  O_10
REMARK    8  A    between atoms: C_16  and  N_17
REMARK                            x       y       z     vdW  Elec       q    Type
REMARK                         _______ _______ _______ _____ _____    ______ ____
ROOT
ATOM      1  C   UNL     1       6.205   1.516  24.070  0.00  0.00    +0.149 C 
ATOM      2  N   UNL     1       6.938   0.359  23.593  0.00  0.00    -0.343 N 
ATOM      3  C   UNL     1       6.722  -0.917  24.056  0.00  0.00    +0.100 A 
ATOM      4  C   UNL     1       5.735  -1.364  25.003  0.00  0.00    +0.205 C 
ATOM      5  C   UNL     1       5.953  -2.732  25.529  0.00  0.00    +0.080 C 
ATOM      6  C   UNL     1       6.906  -3.566  25.064  0.00  0.00    +0.081 C 
ATOM      7  C   UNL     1       7.786  -3.154  23.879  0.00  0.00    +0.209 C 
ATOM      8  O   UNL     1       8.548  -3.928  23.308  0.00  0.00    -0.285 OA
ATOM      9  O   UNL     1       4.803  -0.689  25.426  0.00  0.00    -0.286 OA
ATOM     10  C   UNL     1       7.677  -1.749  23.501  0.00  0.00    +0.058 A 
ATOM     11  C   UNL     1       8.440  -0.967  22.573  0.00  0.00    +0.010 A 
ATOM     12  C   UNL     1       7.992   0.352  22.697  0.00  0.00    +0.025 A 
ENDROOT
BRANCH   6  13
ATOM     13  N   UNL     1       7.257  -4.726  25.756  0.00  0.00    -0.324 N 
ATOM     14  C   UNL     1       6.956  -4.887  27.169  0.00  0.00    +0.124 C 
ATOM     15  C   UNL     1       8.380  -4.719  26.682  0.00  0.00    +0.124 C 
ENDBRANCH   6  13
BRANCH  11  16
ATOM     16  C   UNL     1       9.558  -1.450  21.696  0.00  0.00    +0.193 C 
BRANCH  16  17
ATOM     17  O   UNL     1      10.714  -1.833  22.429  0.00  0.00    -0.390 OA
ATOM     18  H   UNL     1      11.485  -1.578  21.879  0.00  0.00    +0.210 HD
ENDBRANCH  16  17
ENDBRANCH  11  16
BRANCH  12  19
ATOM     19  C   UNL     1       8.522   1.597  22.031  0.00  0.00    +0.056 C 
BRANCH  19  20
ATOM     20  C   UNL     1       9.991   1.843  22.402  0.00  0.00    +0.034 C 
BRANCH  20  21
ATOM     21  C   UNL     1      10.225   1.777  23.907  0.00  0.00    +0.156 C 
BRANCH  21  22
ATOM     22  O   UNL     1      11.122   0.727  24.237  0.00  0.00    -0.395 OA
ATOM     23  H   UNL     1      11.094   0.076  23.516  0.00  0.00    +0.209 HD
ENDBRANCH  21  22
ENDBRANCH  20  21
ENDBRANCH  19  20
ENDBRANCH  12  19
TORSDOF 7
ENDMDL
MODEL 7
REMARK VINA RESULT:      -5.7      1.886      5.788
REMARK  Name = 
REMARK  8 active torsions:
REMARK  status: ('A' for Active; 'I' for Inactive)
REMARK    1  A    between atoms: C_1  and  N_2
REMARK    2  A    between atoms: C_3  and  C_4
REMARK    3  A    between atoms: C_4  and  C_5
REMARK    4  A    between atoms: C_5  and  C_6
REMARK    5  A    between atoms: C_6  and  O_7
REMARK    6  A    between atoms: C_8  and  C_9
REMARK    7  A    between atoms: C_9  and  O_10
REMARK    8  A    between atoms: C_16  and  N_17
REMARK                            x       y       z     vdW  Elec       q    Type
REMARK                         _______ _______ _______ _____ _____    ______ ____
ROOT
ATOM      1  C   UNL     1       5.687  -3.034  21.798  0.00  0.00    +0.149 C 
ATOM      2  N   UNL     1       6.494  -3.612  22.856  0.00  0.00    -0.343 N 
ATOM      3  C   UNL     1       6.023  -4.558  23.735  0.00  0.00    +0.100 A 
ATOM      4  C   UNL     1       4.731  -5.192  23.751  0.00  0.00    +0.205 C 
ATOM      5  C   UNL     1       4.418  -5.932  24.996  0.00  0.00    +0.080 C 
ATOM      6  C   UNL     1       5.309  -6.135  25.987  0.00  0.00    +0.081 C 
ATOM      7  C   UNL     1       6.759  -5.661  25.835  0.00  0.00    +0.209 C 
ATOM      8  O   UNL     1       7.650  -5.963  26.623  0.00  0.00    -0.285 OA
ATOM      9  O   UNL     1       3.891  -5.110  22.863  0.00  0.00    -0.286 OA
ATOM     10  C   UNL     1       6.994  -4.785  24.692  0.00  0.00    +0.058 A 
ATOM     11  C   UNL     1       8.151  -4.026  24.317  0.00  0.00    +0.010 A 
ATOM     12  C   UNL     1       7.787  -3.264  23.203  0.00  0.00    +0.025 A 
ENDROOT
BRANCH   6  13
ATOM     13  N   UNL     1       4.908  -6.591  27.244  0.00  0.00    -0.324 N 
ATOM     14  C   UNL     1       3.510  -6.586  27.642  0.00  0.00    +0.124 C 
ATOM     15  C   UNL     1       4.513  -5.646  28.277  0.00  0.00    +0.124 C 
ENDBRANCH   6  13
BRANCH  11  16
ATOM     16  C   UNL     1       9.473  -3.991  25.027  0.00  0.00    +0.193 C 
BRANCH  16  17
ATOM     17  O   UNL     1      10.167  -5.231  24.974  0.00  0.00    -0.390 OA
ATOM     18  H   UNL     1      10.914  -5.155  25.603  0.00  0.00    +0.210 HD
ENDBRANCH  16  17
ENDBRANCH  11  16
BRANCH  12  19
ATOM     19  C   UNL     1       8.587  -2.216  22.470  0.00  0.00    +0.056 C 
BRANCH  19  20
ATOM     20  C   UNL     1       8.632  -0.900  23.258  0.00  0.00    +0.034 C 
BRANCH  20  21
ATOM     21  C   UNL     1       7.786   0.190  22.610  0.00  0.00    +0.156 C 
BRANCH  21  22
ATOM     22  O   UNL     1       6.448   0.145  23.083  0.00  0.00    -0.395 OA
ATOM     23  H   UNL     1       6.161   1.058  23.250  0.00  0.00    +0.209 HD
ENDBRANCH  21  22
ENDBRANCH  20  21
ENDBRANCH  19  20
ENDBRANCH  12  19
TORSDOF 7
ENDMDL
MODEL 8
REMARK VINA RESULT:      -5.6      3.012      6.943
REMARK  Name = 
REMARK  8 active torsions:
REMARK  status: ('A' for Active; 'I' for Inactive)
REMARK    1  A    between atoms: C_1  and  N_2
REMARK    2  A    between atoms: C_3  and  C_4
REMARK    3  A    between atoms: C_4  and  C_5
REMARK    4  A    between atoms: C_5  and  C_6
REMARK    5  A    between atoms: C_6  and  O_7
REMARK    6  A    between atoms: C_8  and  C_9
REMARK    7  A    between atoms: C_9  and  O_10
REMARK    8  A    between atoms: C_16  and  N_17
REMARK                            x       y       z     vdW  Elec       q    Type
REMARK                         _______ _______ _______ _____ _____    ______ ____
ROOT
ATOM      1  C   UNL     1      10.631  -0.299  23.772  0.00  0.00    +0.149 C 
ATOM      2  N   UNL     1       9.238  -0.317  24.172  0.00  0.00    -0.343 N 
ATOM      3  C   UNL     1       8.475  -1.460  24.207  0.00  0.00    +0.100 A 
ATOM      4  C   UNL     1       8.888  -2.813  23.939  0.00  0.00    +0.205 C 
ATOM      5  C   UNL     1       7.777  -3.776  23.756  0.00  0.00    +0.080 C 
ATOM      6  C   UNL     1       6.481  -3.468  23.964  0.00  0.00    +0.081 C 
ATOM      7  C   UNL     1       6.089  -2.084  24.493  0.00  0.00    +0.209 C 
ATOM      8  O   UNL     1       4.952  -1.803  24.860  0.00  0.00    -0.285 OA
ATOM      9  O   UNL     1      10.047  -3.184  23.800  0.00  0.00    -0.286 OA
ATOM     10  C   UNL     1       7.170  -1.105  24.492  0.00  0.00    +0.058 A 
ATOM     11  C   UNL     1       7.157   0.305  24.752  0.00  0.00    +0.010 A 
ATOM     12  C   UNL     1       8.447   0.773  24.488  0.00  0.00    +0.025 A 
ENDROOT
BRANCH   6  13
ATOM     13  N   UNL     1       5.455  -4.306  23.525  0.00  0.00    -0.324 N 
ATOM     14  C   UNL     1       5.421  -5.715  23.882  0.00  0.00    +0.124 C 
ATOM     15  C   UNL     1       5.697  -5.269  22.461  0.00  0.00    +0.124 C 
ENDBRANCH   6  13
BRANCH  11  16
ATOM     16  C   UNL     1       5.971   1.135  25.150  0.00  0.00    +0.193 C 
BRANCH  16  17
ATOM     17  O   UNL     1       5.008   1.263  24.113  0.00  0.00    -0.390 OA
ATOM     18  H   UNL     1       5.388   0.818  23.327  0.00  0.00    +0.210 HD
ENDBRANCH  16  17
ENDBRANCH  11  16
BRANCH  12  19
ATOM     19  C   UNL     1       8.960   2.192  24.500  0.00  0.00    +0.056 C 
BRANCH  19  20
ATOM     20  C   UNL     1       8.436   2.982  23.293  0.00  0.00    +0.034 C 
BRANCH  20  21
ATOM     21  C   UNL     1       8.547   2.192  21.994  0.00  0.00    +0.156 C 
BRANCH  21  22
ATOM     22  O   UNL     1       9.873   2.232  21.485  0.00  0.00    -0.395 OA
ATOM     23  H   UNL     1       9.824   2.117  20.521  0.00  0.00    +0.209 HD
ENDBRANCH  21  22
ENDBRANCH  20  21
ENDBRANCH  19  20
ENDBRANCH  12  19
TORSDOF 7
ENDMDL
MODEL 9
REMARK VINA RESULT:      -5.5      3.701      7.183
REMARK  Name = 
REMARK  8 active torsions:
REMARK  status: ('A' for Active; 'I' for Inactive)
REMARK    1  A    between atoms: C_1  and  N_2
REMARK    2  A    between atoms: C_3  and  C_4
REMARK    3  A    between atoms: C_4  and  C_5
REMARK    4  A    between atoms: C_5  and  C_6
REMARK    5  A    between atoms: C_6  and  O_7
REMARK    6  A    between atoms: C_8  and  C_9
REMARK    7  A    between atoms: C_9  and  O_10
REMARK    8  A    between atoms: C_16  and  N_17
REMARK                            x       y       z     vdW  Elec       q    Type
REMARK                         _______ _______ _______ _____ _____    ______ ____
ROOT
ATOM      1  C   UNL     1       9.236   0.421  21.248  0.00  0.00    +0.149 C 
ATOM      2  N   UNL     1       8.565   0.262  22.524  0.00  0.00    -0.343 N 
ATOM      3  C   UNL     1       8.828  -0.770  23.393  0.00  0.00    +0.100 A 
ATOM      4  C   UNL     1       9.813  -1.811  23.266  0.00  0.00    +0.205 C 
ATOM      5  C   UNL     1       9.645  -2.944  24.205  0.00  0.00    +0.080 C 
ATOM      6  C   UNL     1       8.741  -2.956  25.205  0.00  0.00    +0.081 C 
ATOM      7  C   UNL     1       7.868  -1.725  25.475  0.00  0.00    +0.209 C 
ATOM      8  O   UNL     1       7.153  -1.613  26.466  0.00  0.00    -0.285 OA
ATOM      9  O   UNL     1      10.705  -1.842  22.426  0.00  0.00    -0.286 OA
ATOM     10  C   UNL     1       7.923  -0.702  24.436  0.00  0.00    +0.058 A 
ATOM     11  C   UNL     1       7.146   0.488  24.252  0.00  0.00    +0.010 A 
ATOM     12  C   UNL     1       7.531   1.033  23.024  0.00  0.00    +0.025 A 
ENDROOT
BRANCH   6  13
ATOM     13  N   UNL     1       8.427  -4.132  25.888  0.00  0.00    -0.324 N 
ATOM     14  C   UNL     1       8.951  -5.419  25.463  0.00  0.00    +0.124 C 
ATOM     15  C   UNL     1       7.481  -5.082  25.321  0.00  0.00    +0.124 C 
ENDBRANCH   6  13
BRANCH  11  16
ATOM     16  C   UNL     1       6.069   1.008  25.159  0.00  0.00    +0.193 C 
BRANCH  16  17
ATOM     17  O   UNL     1       4.959   0.127  25.269  0.00  0.00    -0.390 OA
ATOM     18  H   UNL     1       5.090  -0.566  24.588  0.00  0.00    +0.210 HD
ENDBRANCH  16  17
ENDBRANCH  11  16
BRANCH  12  19
ATOM     19  C   UNL     1       6.961   2.225  22.297  0.00  0.00    +0.056 C 
BRANCH  19  20
ATOM     20  C   UNL     1       7.768   3.496  22.596  0.00  0.00    +0.034 C 
BRANCH  20  21
ATOM     21  C   UNL     1       6.981   4.765  22.289  0.00  0.00    +0.156 C 
BRANCH  21  22
ATOM     22  O   UNL     1       7.832   5.779  21.775  0.00  0.00    -0.395 OA
ATOM     23  H   UNL     1       8.588   5.867  22.380  0.00  0.00    +0.209 HD
ENDBRANCH  21  22
ENDBRANCH  20  21
ENDBRANCH  19  20
ENDBRANCH  12  19
TORSDOF 7
ENDMDL
