MODEL 1
REMARK VINA RESULT:      -6.7      0.000      0.000
REMARK  Name = 
REMARK  13 active torsions:
REMARK  status: ('A' for Active; 'I' for Inactive)
REMARK    1  A    between atoms: C_1  and  O_2
REMARK    2  A    between atoms: O_2  and  C_3
REMARK    3  A    between atoms: C_4  and  O_5
REMARK    4  A    between atoms: O_5  and  C_6
REMARK    5  A    between atoms: C_8  and  C_11
REMARK    6  A    between atoms: N_13  and  C_14
REMARK    7  A    between atoms: C_14  and  C_15
REMARK    8  A    between atoms: C_18  and  O_19
REMARK    9  A    between atoms: O_19  and  C_20
REMARK   10  A    between atoms: C_20  and  C_21
REMARK   11  A    between atoms: C_21  and  N_22
REMARK   12  A    between atoms: N_22  and  C_23
REMARK   13  A    between atoms: N_22  and  C_24
REMARK                            x       y       z     vdW  Elec       q    Type
REMARK                         _______ _______ _______ _____ _____    ______ ____
ROOT
ATOM      1  C   UNL     1       8.500  -2.917  23.151  0.00  0.00    +0.244 C 
ATOM      2  N   UNL     1       9.734  -2.327  23.299  0.00  0.00    -0.307 N 
ATOM      3  H   UNL     1      10.176  -2.304  24.209  0.00  0.00    +0.149 HD
ATOM      4  O   UNL     1       7.799  -2.777  22.155  0.00  0.00    -0.270 OA
ENDROOT
BRANCH   1   8
ATOM      5  C   UNL     1       7.209  -5.229  26.528  0.00  0.00    +0.162 A 
ATOM      6  C   UNL     1       8.281  -4.336  26.636  0.00  0.00    +0.050 A 
ATOM      7  C   UNL     1       8.681  -3.580  25.531  0.00  0.00    +0.017 A 
ATOM      8  C   UNL     1       8.013  -3.711  24.312  0.00  0.00    +0.040 A 
ATOM      9  C   UNL     1       6.914  -4.572  24.204  0.00  0.00    +0.062 A 
ATOM     10  C   UNL     1       6.513  -5.339  25.305  0.00  0.00    +0.162 A 
BRANCH   5  12
ATOM     11  C   UNL     1       5.976  -5.438  28.567  0.00  0.00    +0.277 C 
ATOM     12  O   UNL     1       6.768  -6.035  27.549  0.00  0.00    -0.491 OA
ENDBRANCH   5  12
BRANCH  10  13
ATOM     13  O   UNL     1       5.470  -6.232  25.284  0.00  0.00    -0.491 OA
ATOM     14  C   UNL     1       4.783  -6.426  24.055  0.00  0.00    +0.277 C 
ENDBRANCH  10  13
ENDBRANCH   1   8
BRANCH   2  15
ATOM     15  C   UNL     1      10.250  -1.436  22.285  0.00  0.00    +0.139 C 
BRANCH  15  16
ATOM     16  C   UNL     1       9.893  -0.013  22.608  0.00  0.00    -0.030 A 
ATOM     17  C   UNL     1       9.249   0.813  21.675  0.00  0.00    +0.009 A 
ATOM     18  C   UNL     1       8.868   2.117  22.022  0.00  0.00    +0.046 A 
ATOM     19  C   UNL     1       9.111   2.608  23.305  0.00  0.00    +0.121 A 
ATOM     20  C   UNL     1       9.761   1.783  24.229  0.00  0.00    +0.046 A 
ATOM     21  C   UNL     1      10.143   0.487  23.889  0.00  0.00    +0.009 A 
BRANCH  19  22
ATOM     22  O   UNL     1       8.678   3.891  23.566  0.00  0.00    -0.491 OA
BRANCH  22  23
ATOM     23  C   UNL     1       9.613   4.668  24.324  0.00  0.00    +0.244 C 
BRANCH  23  24
ATOM     24  C   UNL     1      10.126   5.895  23.562  0.00  0.00    +0.124 C 
BRANCH  24  25
ATOM     25  N   UNL     1      11.606   5.968  23.562  0.00  0.00    -0.305 NA
ATOM     26  C   UNL     1      12.186   4.653  23.293  0.00  0.00    +0.104 C 
ATOM     27  C   UNL     1      12.142   6.496  24.822  0.00  0.00    +0.104 C 
ENDBRANCH  24  25
ENDBRANCH  23  24
ENDBRANCH  22  23
ENDBRANCH  19  22
ENDBRANCH  15  16
ENDBRANCH   2  15
TORSDOF 9
ENDMDL
MODEL 2
REMARK VINA RESULT:      -6.5      1.525      2.148
REMARK  Name = 
REMARK  13 active torsions:
REMARK  status: ('A' for Active; 'I' for Inactive)
REMARK    1  A    between atoms: C_1  and  O_2
REMARK    2  A    between atoms: O_2  and  C_3
REMARK    3  A    between atoms: C_4  and  O_5
REMARK    4  A    between atoms: O_5  and  C_6
REMARK    5  A    between atoms: C_8  and  C_11
REMARK    6  A    between atoms: N_13  and  C_14
REMARK    7  A    between atoms: C_14  and  C_15
REMARK    8  A    between atoms: C_18  and  O_19
REMARK    9  A    between atoms: O_19  and  C_20
REMARK   10  A    between atoms: C_20  and  C_21
REMARK   11  A    between atoms: C_21  and  N_22
REMARK   12  A    between atoms: N_22  and  C_23
REMARK   13  A    between atoms: N_22  and  C_24
REMARK                            x       y       z     vdW  Elec       q    Type
REMARK                         _______ _______ _______ _____ _____    ______ ____
ROOT
ATOM      1  C   UNL     1       9.129  -3.418  24.041  0.00  0.00    +0.244 C 
ATOM      2  N   UNL     1       9.078  -2.170  23.465  0.00  0.00    -0.307 N 
ATOM      3  H   UNL     1       8.264  -1.895  22.931  0.00  0.00    +0.149 HD
ATOM      4  O   UNL     1      10.156  -3.913  24.491  0.00  0.00    -0.270 OA
ENDROOT
BRANCH   1   8
ATOM      5  C   UNL     1       5.501  -5.708  24.141  0.00  0.00    +0.162 A 
ATOM      6  C   UNL     1       6.139  -5.322  25.324  0.00  0.00    +0.050 A 
ATOM      7  C   UNL     1       7.313  -4.564  25.276  0.00  0.00    +0.017 A 
ATOM      8  C   UNL     1       7.855  -4.188  24.045  0.00  0.00    +0.040 A 
ATOM      9  C   UNL     1       7.202  -4.535  22.857  0.00  0.00    +0.062 A 
ATOM     10  C   UNL     1       6.031  -5.301  22.897  0.00  0.00    +0.162 A 
BRANCH   5  12
ATOM     11  C   UNL     1       4.033  -7.241  25.242  0.00  0.00    +0.277 C 
ATOM     12  O   UNL     1       4.365  -6.478  24.091  0.00  0.00    -0.491 OA
ENDBRANCH   5  12
BRANCH  10  13
ATOM     13  O   UNL     1       5.342  -5.716  21.784  0.00  0.00    -0.491 OA
ATOM     14  C   UNL     1       6.077  -5.935  20.588  0.00  0.00    +0.277 C 
ENDBRANCH  10  13
ENDBRANCH   1   8
BRANCH   2  15
ATOM     15  C   UNL     1      10.281  -1.387  23.298  0.00  0.00    +0.139 C 
BRANCH  15  16
ATOM     16  C   UNL     1       9.954   0.079  23.286  0.00  0.00    -0.030 A 
ATOM     17  C   UNL     1       9.770   0.780  22.085  0.00  0.00    +0.009 A 
ATOM     18  C   UNL     1       9.401   2.134  22.101  0.00  0.00    +0.046 A 
ATOM     19  C   UNL     1       9.199   2.799  23.310  0.00  0.00    +0.121 A 
ATOM     20  C   UNL     1       9.392   2.097  24.505  0.00  0.00    +0.046 A 
ATOM     21  C   UNL     1       9.760   0.752  24.495  0.00  0.00    +0.009 A 
BRANCH  19  22
ATOM     22  O   UNL     1       8.812   4.120  23.230  0.00  0.00    -0.491 OA
BRANCH  22  23
ATOM     23  C   UNL     1       9.437   4.960  24.208  0.00  0.00    +0.244 C 
BRANCH  23  24
ATOM     24  C   UNL     1      10.463   5.923  23.599  0.00  0.00    +0.124 C 
BRANCH  24  25
ATOM     25  N   UNL     1      11.839   5.630  24.063  0.00  0.00    -0.305 NA
ATOM     26  C   UNL     1      12.321   6.692  24.945  0.00  0.00    +0.104 C 
ATOM     27  C   UNL     1      12.779   5.446  22.953  0.00  0.00    +0.104 C 
ENDBRANCH  24  25
ENDBRANCH  23  24
ENDBRANCH  22  23
ENDBRANCH  19  22
ENDBRANCH  15  16
ENDBRANCH   2  15
TORSDOF 9
ENDMDL
MODEL 3
REMARK VINA RESULT:      -6.5      1.038      2.079
REMARK  Name = 
REMARK  13 active torsions:
REMARK  status: ('A' for Active; 'I' for Inactive)
REMARK    1  A    between atoms: C_1  and  O_2
REMARK    2  A    between atoms: O_2  and  C_3
REMARK    3  A    between atoms: C_4  and  O_5
REMARK    4  A    between atoms: O_5  and  C_6
REMARK    5  A    between atoms: C_8  and  C_11
REMARK    6  A    between atoms: N_13  and  C_14
REMARK    7  A    between atoms: C_14  and  C_15
REMARK    8  A    between atoms: C_18  and  O_19
REMARK    9  A    between atoms: O_19  and  C_20
REMARK   10  A    between atoms: C_20  and  C_21
REMARK   11  A    between atoms: C_21  and  N_22
REMARK   12  A    between atoms: N_22  and  C_23
REMARK   13  A    between atoms: N_22  and  C_24
REMARK                            x       y       z     vdW  Elec       q    Type
REMARK                         _______ _______ _______ _____ _____    ______ ____
ROOT
ATOM      1  C   UNL     1       9.114  -3.109  23.479  0.00  0.00    +0.244 C 
ATOM      2  N   UNL     1       8.946  -2.148  22.510  0.00  0.00    -0.307 N 
ATOM      3  H   UNL     1       8.150  -2.194  21.887  0.00  0.00    +0.149 HD
ATOM      4  O   UNL     1      10.156  -3.262  24.106  0.00  0.00    -0.270 OA
ENDROOT
BRANCH   1   8
ATOM      5  C   UNL     1       5.715  -5.666  24.053  0.00  0.00    +0.162 A 
ATOM      6  C   UNL     1       5.997  -5.118  22.797  0.00  0.00    +0.050 A 
ATOM      7  C   UNL     1       7.116  -4.297  22.623  0.00  0.00    +0.017 A 
ATOM      8  C   UNL     1       7.959  -4.021  23.702  0.00  0.00    +0.040 A 
ATOM      9  C   UNL     1       7.707  -4.597  24.953  0.00  0.00    +0.062 A 
ATOM     10  C   UNL     1       6.584  -5.412  25.137  0.00  0.00    +0.162 A 
BRANCH   5  12
ATOM     11  C   UNL     1       3.359  -5.816  24.432  0.00  0.00    +0.277 C 
ATOM     12  O   UNL     1       4.623  -6.454  24.325  0.00  0.00    -0.491 OA
ENDBRANCH   5  12
BRANCH  10  13
ATOM     13  O   UNL     1       6.239  -5.992  26.333  0.00  0.00    -0.491 OA
ATOM     14  C   UNL     1       6.898  -5.539  27.508  0.00  0.00    +0.277 C 
ENDBRANCH  10  13
ENDBRANCH   1   8
BRANCH   2  15
ATOM     15  C   UNL     1      10.043  -1.289  22.127  0.00  0.00    +0.139 C 
BRANCH  15  16
ATOM     16  C   UNL     1       9.731   0.141  22.461  0.00  0.00    -0.030 A 
ATOM     17  C   UNL     1       8.985   0.952  21.593  0.00  0.00    +0.009 A 
ATOM     18  C   UNL     1       8.650   2.265  21.956  0.00  0.00    +0.046 A 
ATOM     19  C   UNL     1       9.042   2.779  23.192  0.00  0.00    +0.121 A 
ATOM     20  C   UNL     1       9.793   1.969  24.051  0.00  0.00    +0.046 A 
ATOM     21  C   UNL     1      10.129   0.664  23.694  0.00  0.00    +0.009 A 
BRANCH  19  22
ATOM     22  O   UNL     1       8.646   4.069  23.477  0.00  0.00    -0.491 OA
BRANCH  22  23
ATOM     23  C   UNL     1       9.596   4.801  24.260  0.00  0.00    +0.244 C 
BRANCH  23  24
ATOM     24  C   UNL     1      10.181   6.008  23.517  0.00  0.00    +0.124 C 
BRANCH  24  25
ATOM     25  N   UNL     1      11.661   6.027  23.571  0.00  0.00    -0.305 NA
ATOM     26  C   UNL     1      12.203   4.694  23.306  0.00  0.00    +0.104 C 
ATOM     27  C   UNL     1      12.171   6.521  24.854  0.00  0.00    +0.104 C 
ENDBRANCH  24  25
ENDBRANCH  23  24
ENDBRANCH  22  23
ENDBRANCH  19  22
ENDBRANCH  15  16
ENDBRANCH   2  15
TORSDOF 9
ENDMDL
MODEL 4
REMARK VINA RESULT:      -6.4      1.615      2.161
REMARK  Name = 
REMARK  13 active torsions:
REMARK  status: ('A' for Active; 'I' for Inactive)
REMARK    1  A    between atoms: C_1  and  O_2
REMARK    2  A    between atoms: O_2  and  C_3
REMARK    3  A    between atoms: C_4  and  O_5
REMARK    4  A    between atoms: O_5  and  C_6
REMARK    5  A    between atoms: C_8  and  C_11
REMARK    6  A    between atoms: N_13  and  C_14
REMARK    7  A    between atoms: C_14  and  C_15
REMARK    8  A    between atoms: C_18  and  O_19
REMARK    9  A    between atoms: O_19  and  C_20
REMARK   10  A    between atoms: C_20  and  C_21
REMARK   11  A    between atoms: C_21  and  N_22
REMARK   12  A    between atoms: N_22  and  C_23
REMARK   13  A    between atoms: N_22  and  C_24
REMARK                            x       y       z     vdW  Elec       q    Type
REMARK                         _______ _______ _______ _____ _____    ______ ____
ROOT
ATOM      1  C   UNL     1       7.764  -3.463  23.164  0.00  0.00    +0.244 C 
ATOM      2  N   UNL     1       8.880  -2.660  23.175  0.00  0.00    -0.307 N 
ATOM      3  H   UNL     1       9.334  -2.439  24.051  0.00  0.00    +0.149 HD
ATOM      4  O   UNL     1       7.024  -3.580  22.193  0.00  0.00    -0.270 OA
ENDROOT
BRANCH   1   8
ATOM      5  C   UNL     1       6.977  -5.494  26.862  0.00  0.00    +0.162 A 
ATOM      6  C   UNL     1       8.010  -4.555  26.764  0.00  0.00    +0.050 A 
ATOM      7  C   UNL     1       8.245  -3.891  25.555  0.00  0.00    +0.017 A 
ATOM      8  C   UNL     1       7.450  -4.162  24.440  0.00  0.00    +0.040 A 
ATOM      9  C   UNL     1       6.390  -5.070  24.539  0.00  0.00    +0.062 A 
ATOM     10  C   UNL     1       6.154  -5.746  25.743  0.00  0.00    +0.162 A 
BRANCH   5  12
ATOM     11  C   UNL     1       5.865  -5.610  28.975  0.00  0.00    +0.277 C 
ATOM     12  O   UNL     1       6.695  -6.217  27.995  0.00  0.00    -0.491 OA
ENDBRANCH   5  12
BRANCH  10  13
ATOM     13  O   UNL     1       5.160  -6.676  25.924  0.00  0.00    -0.491 OA
ATOM     14  C   UNL     1       3.812  -6.242  25.813  0.00  0.00    +0.277 C 
ENDBRANCH  10  13
ENDBRANCH   1   8
BRANCH   2  15
ATOM     15  C   UNL     1       9.208  -1.840  22.030  0.00  0.00    +0.139 C 
BRANCH  15  16
ATOM     16  C   UNL     1       9.689  -0.489  22.474  0.00  0.00    -0.030 A 
ATOM     17  C   UNL     1       9.586   0.637  21.643  0.00  0.00    +0.009 A 
ATOM     18  C   UNL     1       9.982   1.901  22.104  0.00  0.00    +0.046 A 
ATOM     19  C   UNL     1      10.471   2.060  23.401  0.00  0.00    +0.121 A 
ATOM     20  C   UNL     1      10.579   0.933  24.223  0.00  0.00    +0.046 A 
ATOM     21  C   UNL     1      10.189  -0.325  23.769  0.00  0.00    +0.009 A 
BRANCH  19  22
ATOM     22  O   UNL     1      10.810   3.343  23.778  0.00  0.00    -0.491 OA
BRANCH  22  23
ATOM     23  C   UNL     1       9.710   4.260  23.748  0.00  0.00    +0.244 C 
BRANCH  23  24
ATOM     24  C   UNL     1       8.653   3.961  24.817  0.00  0.00    +0.124 C 
BRANCH  24  25
ATOM     25  N   UNL     1       7.305   3.785  24.228  0.00  0.00    -0.305 NA
ATOM     26  C   UNL     1       6.903   2.380  24.274  0.00  0.00    +0.104 C 
ATOM     27  C   UNL     1       7.226   4.277  22.848  0.00  0.00    +0.104 C 
ENDBRANCH  24  25
ENDBRANCH  23  24
ENDBRANCH  22  23
ENDBRANCH  19  22
ENDBRANCH  15  16
ENDBRANCH   2  15
TORSDOF 9
ENDMDL
MODEL 5
REMARK VINA RESULT:      -6.4      1.872      3.070
REMARK  Name = 
REMARK  13 active torsions:
REMARK  status: ('A' for Active; 'I' for Inactive)
REMARK    1  A    between atoms: C_1  and  O_2
REMARK    2  A    between atoms: O_2  and  C_3
REMARK    3  A    between atoms: C_4  and  O_5
REMARK    4  A    between atoms: O_5  and  C_6
REMARK    5  A    between atoms: C_8  and  C_11
REMARK    6  A    between atoms: N_13  and  C_14
REMARK    7  A    between atoms: C_14  and  C_15
REMARK    8  A    between atoms: C_18  and  O_19
REMARK    9  A    between atoms: O_19  and  C_20
REMARK   10  A    between atoms: C_20  and  C_21
REMARK   11  A    between atoms: C_21  and  N_22
REMARK   12  A    between atoms: N_22  and  C_23
REMARK   13  A    between atoms: N_22  and  C_24
REMARK                            x       y       z     vdW  Elec       q    Type
REMARK                         _______ _______ _______ _____ _____    ______ ____
ROOT
ATOM      1  C   UNL     1       8.985  -3.635  24.176  0.00  0.00    +0.244 C 
ATOM      2  N   UNL     1       8.933  -2.536  23.351  0.00  0.00    -0.307 N 
ATOM      3  H   UNL     1       8.063  -2.285  22.900  0.00  0.00    +0.149 HD
ATOM      4  O   UNL     1      10.032  -4.141  24.563  0.00  0.00    -0.270 OA
ENDROOT
BRANCH   1   8
ATOM      5  C   UNL     1       5.153  -5.265  25.218  0.00  0.00    +0.162 A 
ATOM      6  C   UNL     1       5.299  -4.424  24.110  0.00  0.00    +0.050 A 
ATOM      7  C   UNL     1       6.556  -3.911  23.775  0.00  0.00    +0.017 A 
ATOM      8  C   UNL     1       7.674  -4.237  24.546  0.00  0.00    +0.040 A 
ATOM      9  C   UNL     1       7.546  -5.109  25.632  0.00  0.00    +0.062 A 
ATOM     10  C   UNL     1       6.289  -5.619  25.979  0.00  0.00    +0.162 A 
BRANCH   5  12
ATOM     11  C   UNL     1       2.944  -4.875  26.046  0.00  0.00    +0.277 C 
ATOM     12  O   UNL     1       3.956  -5.787  25.641  0.00  0.00    -0.491 OA
ENDBRANCH   5  12
BRANCH  10  13
ATOM     13  O   UNL     1       6.062  -6.452  27.047  0.00  0.00    -0.491 OA
ATOM     14  C   UNL     1       6.180  -5.908  28.354  0.00  0.00    +0.277 C 
ENDBRANCH  10  13
ENDBRANCH   1   8
BRANCH   2  15
ATOM     15  C   UNL     1      10.146  -1.947  22.833  0.00  0.00    +0.139 C 
BRANCH  15  16
ATOM     16  C   UNL     1      10.125  -0.456  23.015  0.00  0.00    -0.030 A 
ATOM     17  C   UNL     1      10.404   0.135  24.256  0.00  0.00    +0.009 A 
ATOM     18  C   UNL     1      10.443   1.531  24.387  0.00  0.00    +0.046 A 
ATOM     19  C   UNL     1      10.218   2.352  23.281  0.00  0.00    +0.121 A 
ATOM     20  C   UNL     1       9.932   1.757  22.048  0.00  0.00    +0.046 A 
ATOM     21  C   UNL     1       9.891   0.370  21.913  0.00  0.00    +0.009 A 
BRANCH  19  22
ATOM     22  O   UNL     1      10.302   3.712  23.496  0.00  0.00    -0.491 OA
BRANCH  22  23
ATOM     23  C   UNL     1       9.161   4.258  24.168  0.00  0.00    +0.244 C 
BRANCH  23  24
ATOM     24  C   UNL     1       8.081   4.758  23.201  0.00  0.00    +0.124 C 
BRANCH  24  25
ATOM     25  N   UNL     1       6.808   4.017  23.363  0.00  0.00    -0.305 NA
ATOM     26  C   UNL     1       6.857   3.163  24.549  0.00  0.00    +0.104 C 
ATOM     27  C   UNL     1       6.474   3.209  22.185  0.00  0.00    +0.104 C 
ENDBRANCH  24  25
ENDBRANCH  23  24
ENDBRANCH  22  23
ENDBRANCH  19  22
ENDBRANCH  15  16
ENDBRANCH   2  15
TORSDOF 9
ENDMDL
MODEL 6
REMARK VINA RESULT:      -6.4      1.932      2.610
REMARK  Name = 
REMARK  13 active torsions:
REMARK  status: ('A' for Active; 'I' for Inactive)
REMARK    1  A    between atoms: C_1  and  O_2
REMARK    2  A    between atoms: O_2  and  C_3
REMARK    3  A    between atoms: C_4  and  O_5
REMARK    4  A    between atoms: O_5  and  C_6
REMARK    5  A    between atoms: C_8  and  C_11
REMARK    6  A    between atoms: N_13  and  C_14
REMARK    7  A    between atoms: C_14  and  C_15
REMARK    8  A    between atoms: C_18  and  O_19
REMARK    9  A    between atoms: O_19  and  C_20
REMARK   10  A    between atoms: C_20  and  C_21
REMARK   11  A    between atoms: C_21  and  N_22
REMARK   12  A    between atoms: N_22  and  C_23
REMARK   13  A    between atoms: N_22  and  C_24
REMARK                            x       y       z     vdW  Elec       q    Type
REMARK                         _______ _______ _______ _____ _____    ______ ____
ROOT
ATOM      1  C   UNL     1       9.182  -4.108  24.736  0.00  0.00    +0.244 C 
ATOM      2  N   UNL     1       9.001  -2.926  24.057  0.00  0.00    -0.307 N 
ATOM      3  H   UNL     1       8.065  -2.601  23.852  0.00  0.00    +0.149 HD
ATOM      4  O   UNL     1      10.260  -4.687  24.811  0.00  0.00    -0.270 OA
ENDROOT
BRANCH   1   8
ATOM      5  C   UNL     1       5.736  -5.892  26.570  0.00  0.00    +0.162 A 
ATOM      6  C   UNL     1       6.842  -5.511  27.337  0.00  0.00    +0.050 A 
ATOM      7  C   UNL     1       7.952  -4.918  26.727  0.00  0.00    +0.017 A 
ATOM      8  C   UNL     1       7.962  -4.703  25.347  0.00  0.00    +0.040 A 
ATOM      9  C   UNL     1       6.845  -5.044  24.577  0.00  0.00    +0.062 A 
ATOM     10  C   UNL     1       5.733  -5.646  25.179  0.00  0.00    +0.162 A 
BRANCH   5  12
ATOM     11  C   UNL     1       3.797  -5.762  27.963  0.00  0.00    +0.277 C 
ATOM     12  O   UNL     1       4.618  -6.509  27.076  0.00  0.00    -0.491 OA
ENDBRANCH   5  12
BRANCH  10  13
ATOM     13  O   UNL     1       4.608  -6.044  24.500  0.00  0.00    -0.491 OA
ATOM     14  C   UNL     1       4.497  -5.688  23.129  0.00  0.00    +0.277 C 
ENDBRANCH  10  13
ENDBRANCH   1   8
BRANCH   2  15
ATOM     15  C   UNL     1      10.091  -2.325  23.322  0.00  0.00    +0.139 C 
BRANCH  15  16
ATOM     16  C   UNL     1       9.962  -0.829  23.324  0.00  0.00    -0.030 A 
ATOM     17  C   UNL     1       9.994  -0.091  24.517  0.00  0.00    +0.009 A 
ATOM     18  C   UNL     1       9.937   1.310  24.488  0.00  0.00    +0.046 A 
ATOM     19  C   UNL     1       9.862   1.991  23.273  0.00  0.00    +0.121 A 
ATOM     20  C   UNL     1       9.823   1.250  22.087  0.00  0.00    +0.046 A 
ATOM     21  C   UNL     1       9.877  -0.142  22.110  0.00  0.00    +0.009 A 
BRANCH  19  22
ATOM     22  O   UNL     1       9.838   3.369  23.339  0.00  0.00    -0.491 OA
BRANCH  22  23
ATOM     23  C   UNL     1       9.069   3.877  24.436  0.00  0.00    +0.244 C 
BRANCH  23  24
ATOM     24  C   UNL     1       8.001   4.886  24.000  0.00  0.00    +0.124 C 
BRANCH  24  25
ATOM     25  N   UNL     1       7.664   4.749  22.563  0.00  0.00    -0.305 NA
ATOM     26  C   UNL     1       7.350   6.053  21.982  0.00  0.00    +0.104 C 
ATOM     27  C   UNL     1       6.549   3.824  22.334  0.00  0.00    +0.104 C 
ENDBRANCH  24  25
ENDBRANCH  23  24
ENDBRANCH  22  23
ENDBRANCH  19  22
ENDBRANCH  15  16
ENDBRANCH   2  15
TORSDOF 9
ENDMDL
MODEL 7
REMARK VINA RESULT:      -6.1      2.033      3.291
REMARK  Name = 
REMARK  13 active torsions:
REMARK  status: ('A' for Active; 'I' for Inactive)
REMARK    1  A    between atoms: C_1  and  O_2
REMARK    2  A    between atoms: O_2  and  C_3
REMARK    3  A    between atoms: C_4  and  O_5
REMARK    4  A    between atoms: O_5  and  C_6
REMARK    5  A    between atoms: C_8  and  C_11
REMARK    6  A    between atoms: N_13  and  C_14
REMARK    7  A    between atoms: C_14  and  C_15
REMARK    8  A    between atoms: C_18  and  O_19
REMARK    9  A    between atoms: O_19  and  C_20
REMARK   10  A    between atoms: C_20  and  C_21
REMARK   11  A    between atoms: C_21  and  N_22
REMARK   12  A    between atoms: N_22  and  C_23
REMARK   13  A    between atoms: N_22  and  C_24
REMARK                            x       y       z     vdW  Elec       q    Type
REMARK                         _______ _______ _______ _____ _____    ______ ____
ROOT
ATOM      1  C   UNL     1       8.766  -4.256  24.208  0.00  0.00    +0.244 C 
ATOM      2  N   UNL     1       8.916  -3.019  23.625  0.00  0.00    -0.307 N 
ATOM      3  H   UNL     1       8.206  -2.671  22.993  0.00  0.00    +0.149 HD
ATOM      4  O   UNL     1       9.674  -4.847  24.782  0.00  0.00    -0.270 OA
ENDROOT
BRANCH   1   8
ATOM      5  C   UNL     1       4.888  -6.017  23.680  0.00  0.00    +0.162 A 
ATOM      6  C   UNL     1       5.707  -5.740  22.580  0.00  0.00    +0.050 A 
ATOM      7  C   UNL     1       6.974  -5.179  22.769  0.00  0.00    +0.017 A 
ATOM      8  C   UNL     1       7.429  -4.891  24.058  0.00  0.00    +0.040 A 
ATOM      9  C   UNL     1       6.633  -5.201  25.167  0.00  0.00    +0.062 A 
ATOM     10  C   UNL     1       5.360  -5.755  24.985  0.00  0.00    +0.162 A 
BRANCH   5  12
ATOM     11  C   UNL     1       2.573  -5.656  23.204  0.00  0.00    +0.277 C 
ATOM     12  O   UNL     1       3.619  -6.535  23.589  0.00  0.00    -0.491 OA
ENDBRANCH   5  12
BRANCH  10  13
ATOM     13  O   UNL     1       4.498  -6.060  26.009  0.00  0.00    -0.491 OA
ATOM     14  C   UNL     1       4.689  -5.408  27.258  0.00  0.00    +0.277 C 
ENDBRANCH  10  13
ENDBRANCH   1   8
BRANCH   2  15
ATOM     15  C   UNL     1      10.205  -2.367  23.604  0.00  0.00    +0.139 C 
BRANCH  15  16
ATOM     16  C   UNL     1      10.038  -0.882  23.451  0.00  0.00    -0.030 A 
ATOM     17  C   UNL     1      10.066  -0.022  24.559  0.00  0.00    +0.009 A 
ATOM     18  C   UNL     1       9.973   1.366  24.385  0.00  0.00    +0.046 A 
ATOM     19  C   UNL     1       9.867   1.914  23.106  0.00  0.00    +0.121 A 
ATOM     20  C   UNL     1       9.832   1.052  22.005  0.00  0.00    +0.046 A 
ATOM     21  C   UNL     1       9.922  -0.329  22.173  0.00  0.00    +0.009 A 
BRANCH  19  22
ATOM     22  O   UNL     1       9.809   3.290  23.028  0.00  0.00    -0.491 OA
BRANCH  22  23
ATOM     23  C   UNL     1       8.615   3.846  23.592  0.00  0.00    +0.244 C 
BRANCH  23  24
ATOM     24  C   UNL     1       7.527   4.111  22.546  0.00  0.00    +0.124 C 
BRANCH  24  25
ATOM     25  N   UNL     1       7.349   5.560  22.287  0.00  0.00    -0.305 NA
ATOM     26  C   UNL     1       8.353   6.338  23.012  0.00  0.00    +0.104 C 
ATOM     27  C   UNL     1       6.007   6.033  22.640  0.00  0.00    +0.104 C 
ENDBRANCH  24  25
ENDBRANCH  23  24
ENDBRANCH  22  23
ENDBRANCH  19  22
ENDBRANCH  15  16
ENDBRANCH   2  15
TORSDOF 9
ENDMDL
MODEL 8
REMARK VINA RESULT:      -6.0      2.812      9.637
REMARK  Name = 
REMARK  13 active torsions:
REMARK  status: ('A' for Active; 'I' for Inactive)
REMARK    1  A    between atoms: C_1  and  O_2
REMARK    2  A    between atoms: O_2  and  C_3
REMARK    3  A    between atoms: C_4  and  O_5
REMARK    4  A    between atoms: O_5  and  C_6
REMARK    5  A    between atoms: C_8  and  C_11
REMARK    6  A    between atoms: N_13  and  C_14
REMARK    7  A    between atoms: C_14  and  C_15
REMARK    8  A    between atoms: C_18  and  O_19
REMARK    9  A    between atoms: O_19  and  C_20
REMARK   10  A    between atoms: C_20  and  C_21
REMARK   11  A    between atoms: C_21  and  N_22
REMARK   12  A    between atoms: N_22  and  C_23
REMARK   13  A    between atoms: N_22  and  C_24
REMARK                            x       y       z     vdW  Elec       q    Type
REMARK                         _______ _______ _______ _____ _____    ______ ____
ROOT
ATOM      1  C   UNL     1       9.699  -1.765  23.273  0.00  0.00    +0.244 C 
ATOM      2  N   UNL     1       8.887  -2.389  24.191  0.00  0.00    -0.307 N 
ATOM      3  H   UNL     1       8.462  -1.851  24.935  0.00  0.00    +0.149 HD
ATOM      4  O   UNL     1      10.434  -2.370  22.500  0.00  0.00    -0.270 OA
ENDROOT
BRANCH   1   8
ATOM      5  C   UNL     1       9.681   2.522  23.462  0.00  0.00    +0.162 A 
ATOM      6  C   UNL     1      10.561   1.772  24.251  0.00  0.00    +0.050 A 
ATOM      7  C   UNL     1      10.564   0.376  24.167  0.00  0.00    +0.017 A 
ATOM      8  C   UNL     1       9.689  -0.277  23.297  0.00  0.00    +0.040 A 
ATOM      9  C   UNL     1       8.834   0.466  22.476  0.00  0.00    +0.062 A 
ATOM     10  C   UNL     1       8.818   1.864  22.560  0.00  0.00    +0.162 A 
BRANCH   5  12
ATOM     11  C   UNL     1       8.987   4.479  24.647  0.00  0.00    +0.277 C 
ATOM     12  O   UNL     1       9.585   3.892  23.501  0.00  0.00    -0.491 OA
ENDBRANCH   5  12
BRANCH  10  13
ATOM     13  O   UNL     1       7.991   2.672  21.820  0.00  0.00    -0.491 OA
ATOM     14  C   UNL     1       6.611   2.702  22.158  0.00  0.00    +0.277 C 
ENDBRANCH  10  13
ENDBRANCH   1   8
BRANCH   2  15
ATOM     15  C   UNL     1       8.910  -3.827  24.338  0.00  0.00    +0.139 C 
BRANCH  15  16
ATOM     16  C   UNL     1       7.595  -4.417  23.920  0.00  0.00    -0.030 A 
ATOM     17  C   UNL     1       6.384  -3.983  24.479  0.00  0.00    +0.009 A 
ATOM     18  C   UNL     1       5.163  -4.503  24.026  0.00  0.00    +0.046 A 
ATOM     19  C   UNL     1       5.133  -5.451  23.002  0.00  0.00    +0.121 A 
ATOM     20  C   UNL     1       6.344  -5.887  22.454  0.00  0.00    +0.046 A 
ATOM     21  C   UNL     1       7.560  -5.374  22.901  0.00  0.00    +0.009 A 
BRANCH  19  22
ATOM     22  O   UNL     1       3.888  -5.887  22.602  0.00  0.00    -0.491 OA
BRANCH  22  23
ATOM     23  C   UNL     1       2.807  -5.234  23.278  0.00  0.00    +0.244 C 
BRANCH  23  24
ATOM     24  C   UNL     1       1.626  -6.170  23.559  0.00  0.00    +0.124 C 
BRANCH  24  25
ATOM     25  N   UNL     1       1.934  -7.574  23.197  0.00  0.00    -0.305 NA
ATOM     26  C   UNL     1       1.062  -8.029  22.114  0.00  0.00    +0.104 C 
ATOM     27  C   UNL     1       1.821  -8.486  24.339  0.00  0.00    +0.104 C 
ENDBRANCH  24  25
ENDBRANCH  23  24
ENDBRANCH  22  23
ENDBRANCH  19  22
ENDBRANCH  15  16
ENDBRANCH   2  15
TORSDOF 9
ENDMDL
MODEL 9
REMARK VINA RESULT:      -6.0      1.573      2.078
REMARK  Name = 
REMARK  13 active torsions:
REMARK  status: ('A' for Active; 'I' for Inactive)
REMARK    1  A    between atoms: C_1  and  O_2
REMARK    2  A    between atoms: O_2  and  C_3
REMARK    3  A    between atoms: C_4  and  O_5
REMARK    4  A    between atoms: O_5  and  C_6
REMARK    5  A    between atoms: C_8  and  C_11
REMARK    6  A    between atoms: N_13  and  C_14
REMARK    7  A    between atoms: C_14  and  C_15
REMARK    8  A    between atoms: C_18  and  O_19
REMARK    9  A    between atoms: O_19  and  C_20
REMARK   10  A    between atoms: C_20  and  C_21
REMARK   11  A    between atoms: C_21  and  N_22
REMARK   12  A    between atoms: N_22  and  C_23
REMARK   13  A    between atoms: N_22  and  C_24
REMARK                            x       y       z     vdW  Elec       q    Type
REMARK                         _______ _______ _______ _____ _____    ______ ____
ROOT
ATOM      1  C   UNL     1       9.159  -3.093  23.782  0.00  0.00    +0.244 C 
ATOM      2  N   UNL     1       8.583  -2.267  22.846  0.00  0.00    -0.307 N 
ATOM      3  H   UNL     1       7.610  -2.389  22.596  0.00  0.00    +0.149 HD
ATOM      4  O   UNL     1      10.370  -3.171  23.961  0.00  0.00    -0.270 OA
ENDROOT
BRANCH   1   8
ATOM      5  C   UNL     1       6.559  -5.656  26.038  0.00  0.00    +0.162 A 
ATOM      6  C   UNL     1       7.809  -5.279  26.541  0.00  0.00    +0.050 A 
ATOM      7  C   UNL     1       8.640  -4.432  25.800  0.00  0.00    +0.017 A 
ATOM      8  C   UNL     1       8.225  -3.958  24.553  0.00  0.00    +0.040 A 
ATOM      9  C   UNL     1       6.960  -4.297  24.060  0.00  0.00    +0.062 A 
ATOM     10  C   UNL     1       6.127  -5.151  24.792  0.00  0.00    +0.162 A 
BRANCH   5  12
ATOM     11  C   UNL     1       5.195  -6.111  27.949  0.00  0.00    +0.277 C 
ATOM     12  O   UNL     1       5.692  -6.507  26.679  0.00  0.00    -0.491 OA
ENDBRANCH   5  12
BRANCH  10  13
ATOM     13  O   UNL     1       4.886  -5.564  24.374  0.00  0.00    -0.491 OA
ATOM     14  C   UNL     1       4.649  -5.651  22.975  0.00  0.00    +0.277 C 
ENDBRANCH  10  13
ENDBRANCH   1   8
BRANCH   2  15
ATOM     15  C   UNL     1       9.404  -1.476  21.957  0.00  0.00    +0.139 C 
BRANCH  15  16
ATOM     16  C   UNL     1       9.530  -0.071  22.473  0.00  0.00    -0.030 A 
ATOM     17  C   UNL     1      10.413   0.253  23.514  0.00  0.00    +0.009 A 
ATOM     18  C   UNL     1      10.561   1.583  23.934  0.00  0.00    +0.046 A 
ATOM     19  C   UNL     1       9.843   2.605  23.313  0.00  0.00    +0.121 A 
ATOM     20  C   UNL     1       8.958   2.276  22.281  0.00  0.00    +0.046 A 
ATOM     21  C   UNL     1       8.806   0.956  21.861  0.00  0.00    +0.009 A 
BRANCH  19  22
ATOM     22  O   UNL     1      10.071   3.885  23.773  0.00  0.00    -0.491 OA
BRANCH  22  23
ATOM     23  C   UNL     1       8.932   4.747  23.661  0.00  0.00    +0.244 C 
BRANCH  23  24
ATOM     24  C   UNL     1       9.001   5.954  24.603  0.00  0.00    +0.124 C 
BRANCH  24  25
ATOM     25  N   UNL     1       8.776   5.568  26.016  0.00  0.00    -0.305 NA
ATOM     26  C   UNL     1       7.586   4.726  26.135  0.00  0.00    +0.104 C 
ATOM     27  C   UNL     1       8.651   6.729  26.903  0.00  0.00    +0.104 C 
ENDBRANCH  24  25
ENDBRANCH  23  24
ENDBRANCH  22  23
ENDBRANCH  19  22
ENDBRANCH  15  16
ENDBRANCH   2  15
TORSDOF 9
ENDMDL
