MODEL 1
REMARK VINA RESULT:      -6.1      0.000      0.000
REMARK  Name = 
REMARK  12 active torsions:
REMARK  status: ('A' for Active; 'I' for Inactive)
REMARK    1  A    between atoms: N_6  and  C_7
REMARK    2  A    between atoms: C_7  and  C_8
REMARK    3  A    between atoms: C_8  and  C_9
REMARK    4  A    between atoms: C_9  and  C_10
REMARK    5  A    between atoms: C_10  and  C_11
REMARK    6  A    between atoms: C_11  and  C_12
REMARK    7  A    between atoms: C_12  and  C_13
REMARK    8  A    between atoms: C_13  and  C_14
REMARK    9  A    between atoms: C_16  and  O_18
REMARK   10  A    between atoms: C_19  and  O_21
REMARK   11  A    between atoms: C_22  and  O_24
REMARK   12  A    between atoms: C_25  and  O_27
REMARK                            x       y       z     vdW  Elec       q    Type
REMARK                         _______ _______ _______ _____ _____    ______ ____
ROOT
ATOM      1  C   UNL     1       6.214  -5.141  25.612  0.00  0.00    +0.119 C 
ATOM      2  C   UNL     1       5.471  -6.467  25.620  0.00  0.00    +0.167 C 
ATOM      3  C   UNL     1       4.598  -6.502  24.370  0.00  0.00    +0.177 C 
ATOM      4  C   UNL     1       5.413  -6.352  23.085  0.00  0.00    +0.192 C 
ATOM      5  C   UNL     1       6.594  -5.337  23.144  0.00  0.00    +0.236 C 
ATOM      6  N   UNL     1       7.121  -5.044  24.465  0.00  0.00    -0.276 N 
ATOM      7  C   UNL     1       8.094  -4.082  24.655  0.00  0.00    +0.154 C 
ATOM      8  N   UNL     1       8.843  -3.603  23.724  0.00  0.00    -0.263 NA
ATOM      9  S   UNL     1       8.190  -3.616  26.358  0.00  0.00    -0.089 S 
ATOM     10  C   UNL     1       7.078  -4.956  26.856  0.00  0.00    +0.102 C 
ENDROOT
BRANCH   2  11
ATOM     11  O   UNL     1       4.649  -6.536  26.790  0.00  0.00    -0.387 OA
ATOM     12  H   UNL     1       4.157  -7.380  26.729  0.00  0.00    +0.210 HD
ENDBRANCH   2  11
BRANCH   3  13
ATOM     13  O   UNL     1       3.879  -7.752  24.358  0.00  0.00    -0.386 OA
ATOM     14  H   UNL     1       3.636  -7.913  23.425  0.00  0.00    +0.210 HD
ENDBRANCH   3  13
BRANCH   4  15
ATOM     15  O   UNL     1       4.467  -5.988  22.051  0.00  0.00    -0.385 OA
ATOM     16  H   UNL     1       4.988  -5.766  21.255  0.00  0.00    +0.210 HD
ENDBRANCH   4  15
BRANCH   5  17
ATOM     17  O   UNL     1       7.631  -5.952  22.388  0.00  0.00    -0.372 OA
ATOM     18  H   UNL     1       8.397  -5.936  22.993  0.00  0.00    +0.212 HD
ENDBRANCH   5  17
BRANCH   8  19
ATOM     19  C   UNL     1       9.832  -2.576  24.061  0.00  0.00    +0.144 C 
BRANCH  19  20
ATOM     20  C   UNL     1      10.214  -1.812  22.792  0.00  0.00    +0.023 C 
BRANCH  20  21
ATOM     21  C   UNL     1       9.002  -1.179  22.110  0.00  0.00    +0.002 C 
BRANCH  21  22
ATOM     22  C   UNL     1       9.406   0.010  21.237  0.00  0.00    +0.000 C 
BRANCH  22  23
ATOM     23  C   UNL     1       8.947   1.328  21.861  0.00  0.00    -0.000 C 
BRANCH  23  24
ATOM     24  C   UNL     1      10.137   2.148  22.356  0.00  0.00    -0.000 C 
BRANCH  24  25
ATOM     25  C   UNL     1      10.490   1.788  23.798  0.00  0.00    -0.003 C 
ATOM     26  C   UNL     1       9.242   1.653  24.654  0.00  0.00    +0.004 C 
ENDBRANCH  24  25
ENDBRANCH  23  24
ENDBRANCH  22  23
ENDBRANCH  21  22
ENDBRANCH  20  21
ENDBRANCH  19  20
ENDBRANCH   8  19
TORSDOF 11
ENDMDL
MODEL 2
REMARK VINA RESULT:      -6.0      0.777      1.514
REMARK  Name = 
REMARK  12 active torsions:
REMARK  status: ('A' for Active; 'I' for Inactive)
REMARK    1  A    between atoms: N_6  and  C_7
REMARK    2  A    between atoms: C_7  and  C_8
REMARK    3  A    between atoms: C_8  and  C_9
REMARK    4  A    between atoms: C_9  and  C_10
REMARK    5  A    between atoms: C_10  and  C_11
REMARK    6  A    between atoms: C_11  and  C_12
REMARK    7  A    between atoms: C_12  and  C_13
REMARK    8  A    between atoms: C_13  and  C_14
REMARK    9  A    between atoms: C_16  and  O_18
REMARK   10  A    between atoms: C_19  and  O_21
REMARK   11  A    between atoms: C_22  and  O_24
REMARK   12  A    between atoms: C_25  and  O_27
REMARK                            x       y       z     vdW  Elec       q    Type
REMARK                         _______ _______ _______ _____ _____    ______ ____
ROOT
ATOM      1  C   UNL     1       6.097  -5.438  25.717  0.00  0.00    +0.119 C 
ATOM      2  C   UNL     1       5.324  -6.745  25.658  0.00  0.00    +0.167 C 
ATOM      3  C   UNL     1       4.388  -6.661  24.457  0.00  0.00    +0.177 C 
ATOM      4  C   UNL     1       5.140  -6.423  23.146  0.00  0.00    +0.192 C 
ATOM      5  C   UNL     1       6.346  -5.439  23.224  0.00  0.00    +0.236 C 
ATOM      6  N   UNL     1       6.946  -5.265  24.536  0.00  0.00    -0.276 N 
ATOM      7  C   UNL     1       7.951  -4.341  24.750  0.00  0.00    +0.154 C 
ATOM      8  N   UNL     1       8.663  -3.804  23.822  0.00  0.00    -0.263 NA
ATOM      9  S   UNL     1       8.145  -4.018  26.478  0.00  0.00    -0.089 S 
ATOM     10  C   UNL     1       7.028  -5.372  26.924  0.00  0.00    +0.102 C 
ENDROOT
BRANCH   2  11
ATOM     11  O   UNL     1       4.561  -6.892  26.860  0.00  0.00    -0.387 OA
ATOM     12  H   UNL     1       3.645  -6.629  26.636  0.00  0.00    +0.210 HD
ENDBRANCH   2  11
BRANCH   3  13
ATOM     13  O   UNL     1       3.639  -7.891  24.383  0.00  0.00    -0.386 OA
ATOM     14  H   UNL     1       4.272  -8.605  24.597  0.00  0.00    +0.210 HD
ENDBRANCH   3  13
BRANCH   4  15
ATOM     15  O   UNL     1       4.151  -5.957  22.196  0.00  0.00    -0.385 OA
ATOM     16  H   UNL     1       4.612  -5.833  21.345  0.00  0.00    +0.210 HD
ENDBRANCH   4  15
BRANCH   5  17
ATOM     17  O   UNL     1       7.328  -6.011  22.368  0.00  0.00    -0.372 OA
ATOM     18  H   UNL     1       7.945  -5.274  22.201  0.00  0.00    +0.212 HD
ENDBRANCH   5  17
BRANCH   8  19
ATOM     19  C   UNL     1       9.692  -2.827  24.188  0.00  0.00    +0.144 C 
BRANCH  19  20
ATOM     20  C   UNL     1       9.124  -1.416  24.028  0.00  0.00    +0.023 C 
BRANCH  20  21
ATOM     21  C   UNL     1       9.540  -0.492  25.173  0.00  0.00    +0.002 C 
BRANCH  21  22
ATOM     22  C   UNL     1      10.548   0.561  24.707  0.00  0.00    +0.000 C 
BRANCH  22  23
ATOM     23  C   UNL     1       9.849   1.881  24.383  0.00  0.00    -0.000 C 
BRANCH  23  24
ATOM     24  C   UNL     1      10.306   2.431  23.033  0.00  0.00    -0.000 C 
BRANCH  24  25
ATOM     25  C   UNL     1       9.954   1.469  21.901  0.00  0.00    -0.003 C 
ATOM     26  C   UNL     1       8.473   1.526  21.568  0.00  0.00    +0.004 C 
ENDBRANCH  24  25
ENDBRANCH  23  24
ENDBRANCH  22  23
ENDBRANCH  21  22
ENDBRANCH  20  21
ENDBRANCH  19  20
ENDBRANCH   8  19
TORSDOF 11
ENDMDL
MODEL 3
REMARK VINA RESULT:      -5.9      1.747      3.052
REMARK  Name = 
REMARK  12 active torsions:
REMARK  status: ('A' for Active; 'I' for Inactive)
REMARK    1  A    between atoms: N_6  and  C_7
REMARK    2  A    between atoms: C_7  and  C_8
REMARK    3  A    between atoms: C_8  and  C_9
REMARK    4  A    between atoms: C_9  and  C_10
REMARK    5  A    between atoms: C_10  and  C_11
REMARK    6  A    between atoms: C_11  and  C_12
REMARK    7  A    between atoms: C_12  and  C_13
REMARK    8  A    between atoms: C_13  and  C_14
REMARK    9  A    between atoms: C_16  and  O_18
REMARK   10  A    between atoms: C_19  and  O_21
REMARK   11  A    between atoms: C_22  and  O_24
REMARK   12  A    between atoms: C_25  and  O_27
REMARK                            x       y       z     vdW  Elec       q    Type
REMARK                         _______ _______ _______ _____ _____    ______ ____
ROOT
ATOM      1  C   UNL     1       5.748  -5.847  23.872  0.00  0.00    +0.119 C 
ATOM      2  C   UNL     1       4.585  -6.348  24.712  0.00  0.00    +0.167 C 
ATOM      3  C   UNL     1       5.144  -6.708  26.085  0.00  0.00    +0.177 C 
ATOM      4  C   UNL     1       5.827  -5.522  26.767  0.00  0.00    +0.192 C 
ATOM      5  C   UNL     1       6.667  -4.596  25.837  0.00  0.00    +0.236 C 
ATOM      6  N   UNL     1       6.317  -4.617  24.428  0.00  0.00    -0.276 N 
ATOM      7  C   UNL     1       7.058  -3.921  23.492  0.00  0.00    +0.154 C 
ATOM      8  N   UNL     1       7.877  -2.967  23.768  0.00  0.00    -0.263 NA
ATOM      9  S   UNL     1       6.707  -4.500  21.858  0.00  0.00    -0.089 S 
ATOM     10  C   UNL     1       5.325  -5.514  22.444  0.00  0.00    +0.102 C 
ENDROOT
BRANCH   2  11
ATOM     11  O   UNL     1       4.027  -7.512  24.093  0.00  0.00    -0.387 OA
ATOM     12  H   UNL     1       3.125  -7.263  23.807  0.00  0.00    +0.210 HD
ENDBRANCH   2  11
BRANCH   3  13
ATOM     13  O   UNL     1       4.058  -7.192  26.901  0.00  0.00    -0.386 OA
ATOM     14  H   UNL     1       4.240  -8.140  27.057  0.00  0.00    +0.210 HD
ENDBRANCH   3  13
BRANCH   4  15
ATOM     15  O   UNL     1       6.648  -6.083  27.819  0.00  0.00    -0.385 OA
ATOM     16  H   UNL     1       6.127  -6.796  28.236  0.00  0.00    +0.210 HD
ENDBRANCH   4  15
BRANCH   5  17
ATOM     17  O   UNL     1       6.421  -3.282  26.326  0.00  0.00    -0.372 OA
ATOM     18  H   UNL     1       5.677  -3.403  26.946  0.00  0.00    +0.212 HD
ENDBRANCH   5  17
BRANCH   8  19
ATOM     19  C   UNL     1       8.611  -2.317  22.678  0.00  0.00    +0.144 C 
BRANCH  19  20
ATOM     20  C   UNL     1       9.859  -1.639  23.246  0.00  0.00    +0.023 C 
BRANCH  20  21
ATOM     21  C   UNL     1       9.637  -1.113  24.663  0.00  0.00    +0.002 C 
BRANCH  21  22
ATOM     22  C   UNL     1      10.424   0.175  24.912  0.00  0.00    +0.000 C 
BRANCH  22  23
ATOM     23  C   UNL     1       9.596   1.403  24.533  0.00  0.00    -0.000 C 
BRANCH  23  24
ATOM     24  C   UNL     1      10.339   2.279  23.525  0.00  0.00    -0.000 C 
BRANCH  24  25
ATOM     25  C   UNL     1      10.076   1.815  22.094  0.00  0.00    -0.003 C 
ATOM     26  C   UNL     1       8.587   1.673  21.825  0.00  0.00    +0.004 C 
ENDBRANCH  24  25
ENDBRANCH  23  24
ENDBRANCH  22  23
ENDBRANCH  21  22
ENDBRANCH  20  21
ENDBRANCH  19  20
ENDBRANCH   8  19
TORSDOF 11
ENDMDL
MODEL 4
REMARK VINA RESULT:      -5.7      5.056      7.021
REMARK  Name = 
REMARK  12 active torsions:
REMARK  status: ('A' for Active; 'I' for Inactive)
REMARK    1  A    between atoms: N_6  and  C_7
REMARK    2  A    between atoms: C_7  and  C_8
REMARK    3  A    between atoms: C_8  and  C_9
REMARK    4  A    between atoms: C_9  and  C_10
REMARK    5  A    between atoms: C_10  and  C_11
REMARK    6  A    between atoms: C_11  and  C_12
REMARK    7  A    between atoms: C_12  and  C_13
REMARK    8  A    between atoms: C_13  and  C_14
REMARK    9  A    between atoms: C_16  and  O_18
REMARK   10  A    between atoms: C_19  and  O_21
REMARK   11  A    between atoms: C_22  and  O_24
REMARK   12  A    between atoms: C_25  and  O_27
REMARK                            x       y       z     vdW  Elec       q    Type
REMARK                         _______ _______ _______ _____ _____    ______ ____
ROOT
ATOM      1  C   UNL     1       8.410   0.470  24.297  0.00  0.00    +0.119 C 
ATOM      2  C   UNL     1       9.460  -0.629  24.317  0.00  0.00    +0.167 C 
ATOM      3  C   UNL     1       9.486  -1.253  22.926  0.00  0.00    +0.177 C 
ATOM      4  C   UNL     1       9.802  -0.230  21.834  0.00  0.00    +0.192 C 
ATOM      5  C   UNL     1       9.152   1.175  22.011  0.00  0.00    +0.236 C 
ATOM      6  N   UNL     1       8.775   1.539  23.365  0.00  0.00    -0.276 N 
ATOM      7  C   UNL     1       8.095   2.713  23.632  0.00  0.00    +0.154 C 
ATOM      8  N   UNL     1       8.018   3.714  22.827  0.00  0.00    -0.263 NA
ATOM      9  S   UNL     1       7.367   2.662  25.242  0.00  0.00    -0.089 S 
ATOM     10  C   UNL     1       8.241   1.131  25.661  0.00  0.00    +0.102 C 
ENDROOT
BRANCH   2  11
ATOM     11  O   UNL     1       9.086  -1.615  25.286  0.00  0.00    -0.387 OA
ATOM     12  H   UNL     1       8.123  -1.508  25.428  0.00  0.00    +0.210 HD
ENDBRANCH   2  11
BRANCH   3  13
ATOM     13  O   UNL     1      10.474  -2.304  22.922  0.00  0.00    -0.386 OA
ATOM     14  H   UNL     1      10.012  -3.108  23.233  0.00  0.00    +0.210 HD
ENDBRANCH   3  13
BRANCH   4  15
ATOM     15  O   UNL     1       9.392  -0.838  20.585  0.00  0.00    -0.385 OA
ATOM     16  H   UNL     1       9.533  -1.800  20.678  0.00  0.00    +0.210 HD
ENDBRANCH   4  15
BRANCH   5  17
ATOM     17  O   UNL     1      10.154   2.088  21.577  0.00  0.00    -0.372 OA
ATOM     18  H   UNL     1       9.904   2.926  22.009  0.00  0.00    +0.212 HD
ENDBRANCH   5  17
BRANCH   8  19
ATOM     19  C   UNL     1       7.253   4.897  23.231  0.00  0.00    +0.144 C 
BRANCH  19  20
ATOM     20  C   UNL     1       7.858   6.136  22.569  0.00  0.00    +0.023 C 
BRANCH  20  21
ATOM     21  C   UNL     1       8.574   7.038  23.574  0.00  0.00    +0.002 C 
BRANCH  21  22
ATOM     22  C   UNL     1       9.258   6.222  24.672  0.00  0.00    +0.000 C 
BRANCH  22  23
ATOM     23  C   UNL     1      10.779   6.284  24.532  0.00  0.00    -0.000 C 
BRANCH  23  24
ATOM     24  C   UNL     1      11.285   5.237  23.541  0.00  0.00    -0.000 C 
BRANCH  24  25
ATOM     25  C   UNL     1      12.808   5.278  23.428  0.00  0.00    -0.003 C 
ATOM     26  C   UNL     1      13.248   5.637  22.019  0.00  0.00    +0.004 C 
ENDBRANCH  24  25
ENDBRANCH  23  24
ENDBRANCH  22  23
ENDBRANCH  21  22
ENDBRANCH  20  21
ENDBRANCH  19  20
ENDBRANCH   8  19
TORSDOF 11
ENDMDL
MODEL 5
REMARK VINA RESULT:      -5.5      2.024      2.641
REMARK  Name = 
REMARK  12 active torsions:
REMARK  status: ('A' for Active; 'I' for Inactive)
REMARK    1  A    between atoms: N_6  and  C_7
REMARK    2  A    between atoms: C_7  and  C_8
REMARK    3  A    between atoms: C_8  and  C_9
REMARK    4  A    between atoms: C_9  and  C_10
REMARK    5  A    between atoms: C_10  and  C_11
REMARK    6  A    between atoms: C_11  and  C_12
REMARK    7  A    between atoms: C_12  and  C_13
REMARK    8  A    between atoms: C_13  and  C_14
REMARK    9  A    between atoms: C_16  and  O_18
REMARK   10  A    between atoms: C_19  and  O_21
REMARK   11  A    between atoms: C_22  and  O_24
REMARK   12  A    between atoms: C_25  and  O_27
REMARK                            x       y       z     vdW  Elec       q    Type
REMARK                         _______ _______ _______ _____ _____    ______ ____
ROOT
ATOM      1  C   UNL     1       6.434  -3.761  24.874  0.00  0.00    +0.119 C 
ATOM      2  C   UNL     1       6.384  -5.164  24.289  0.00  0.00    +0.167 C 
ATOM      3  C   UNL     1       5.749  -5.053  22.907  0.00  0.00    +0.177 C 
ATOM      4  C   UNL     1       6.523  -4.113  21.982  0.00  0.00    +0.192 C 
ATOM      5  C   UNL     1       7.095  -2.825  22.647  0.00  0.00    +0.236 C 
ATOM      6  N   UNL     1       7.300  -2.883  24.084  0.00  0.00    -0.276 N 
ATOM      7  C   UNL     1       7.702  -1.771  24.800  0.00  0.00    +0.154 C 
ATOM      8  N   UNL     1       8.234  -0.720  24.282  0.00  0.00    -0.263 NA
ATOM      9  S   UNL     1       7.411  -2.001  26.528  0.00  0.00    -0.089 S 
ATOM     10  C   UNL     1       6.995  -3.748  26.293  0.00  0.00    +0.102 C 
ENDROOT
BRANCH   2  11
ATOM     11  O   UNL     1       5.577  -5.994  25.131  0.00  0.00    -0.387 OA
ATOM     12  H   UNL     1       6.183  -6.654  25.525  0.00  0.00    +0.210 HD
ENDBRANCH   2  11
BRANCH   3  13
ATOM     13  O   UNL     1       5.686  -6.374  22.333  0.00  0.00    -0.386 OA
ATOM     14  H   UNL     1       4.840  -6.759  22.636  0.00  0.00    +0.210 HD
ENDBRANCH   3  13
BRANCH   4  15
ATOM     15  O   UNL     1       5.619  -3.780  20.901  0.00  0.00    -0.385 OA
ATOM     16  H   UNL     1       4.719  -3.758  21.280  0.00  0.00    +0.210 HD
ENDBRANCH   4  15
BRANCH   5  17
ATOM     17  O   UNL     1       8.366  -2.641  22.033  0.00  0.00    -0.372 OA
ATOM     18  H   UNL     1       8.613  -3.539  21.744  0.00  0.00    +0.212 HD
ENDBRANCH   5  17
BRANCH   8  19
ATOM     19  C   UNL     1       8.605   0.396  25.156  0.00  0.00    +0.144 C 
BRANCH  19  20
ATOM     20  C   UNL     1       9.818   1.116  24.565  0.00  0.00    +0.023 C 
BRANCH  20  21
ATOM     21  C   UNL     1      10.216   0.554  23.201  0.00  0.00    +0.002 C 
BRANCH  21  22
ATOM     22  C   UNL     1      10.046   1.595  22.093  0.00  0.00    +0.000 C 
BRANCH  22  23
ATOM     23  C   UNL     1       8.681   1.459  21.420  0.00  0.00    -0.000 C 
BRANCH  23  24
ATOM     24  C   UNL     1       7.720   2.548  21.896  0.00  0.00    -0.000 C 
BRANCH  24  25
ATOM     25  C   UNL     1       6.478   1.939  22.544  0.00  0.00    -0.003 C 
ATOM     26  C   UNL     1       5.949   2.822  23.662  0.00  0.00    +0.004 C 
ENDBRANCH  24  25
ENDBRANCH  23  24
ENDBRANCH  22  23
ENDBRANCH  21  22
ENDBRANCH  20  21
ENDBRANCH  19  20
ENDBRANCH   8  19
TORSDOF 11
ENDMDL
MODEL 6
REMARK VINA RESULT:      -5.5      4.433      7.739
REMARK  Name = 
REMARK  12 active torsions:
REMARK  status: ('A' for Active; 'I' for Inactive)
REMARK    1  A    between atoms: N_6  and  C_7
REMARK    2  A    between atoms: C_7  and  C_8
REMARK    3  A    between atoms: C_8  and  C_9
REMARK    4  A    between atoms: C_9  and  C_10
REMARK    5  A    between atoms: C_10  and  C_11
REMARK    6  A    between atoms: C_11  and  C_12
REMARK    7  A    between atoms: C_12  and  C_13
REMARK    8  A    between atoms: C_13  and  C_14
REMARK    9  A    between atoms: C_16  and  O_18
REMARK   10  A    between atoms: C_19  and  O_21
REMARK   11  A    between atoms: C_22  and  O_24
REMARK   12  A    between atoms: C_25  and  O_27
REMARK                            x       y       z     vdW  Elec       q    Type
REMARK                         _______ _______ _______ _____ _____    ______ ____
ROOT
ATOM      1  C   UNL     1       9.167   0.608  23.149  0.00  0.00    +0.119 C 
ATOM      2  C   UNL     1       9.545   2.043  22.820  0.00  0.00    +0.167 C 
ATOM      3  C   UNL     1       8.282   2.885  22.963  0.00  0.00    +0.177 C 
ATOM      4  C   UNL     1       7.677   2.797  24.365  0.00  0.00    +0.192 C 
ATOM      5  C   UNL     1       7.717   1.391  25.035  0.00  0.00    +0.236 C 
ATOM      6  N   UNL     1       8.730   0.475  24.540  0.00  0.00    -0.276 N 
ATOM      7  C   UNL     1       8.795  -0.833  24.981  0.00  0.00    +0.154 C 
ATOM      8  N   UNL     1       8.230  -1.275  26.050  0.00  0.00    -0.263 NA
ATOM      9  S   UNL     1       9.783  -1.813  23.891  0.00  0.00    -0.089 S 
ATOM     10  C   UNL     1      10.341  -0.352  22.977  0.00  0.00    +0.102 C 
ENDROOT
BRANCH   2  11
ATOM     11  O   UNL     1      10.022   2.105  21.472  0.00  0.00    -0.387 OA
ATOM     12  H   UNL     1       9.943   1.197  21.113  0.00  0.00    +0.210 HD
ENDBRANCH   2  11
BRANCH   3  13
ATOM     13  O   UNL     1       8.615   4.253  22.652  0.00  0.00    -0.386 OA
ATOM     14  H   UNL     1       9.000   4.238  21.753  0.00  0.00    +0.210 HD
ENDBRANCH   3  13
BRANCH   4  15
ATOM     15  O   UNL     1       6.315   3.276  24.244  0.00  0.00    -0.385 OA
ATOM     16  H   UNL     1       5.752   2.493  24.089  0.00  0.00    +0.210 HD
ENDBRANCH   4  15
BRANCH   5  17
ATOM     17  O   UNL     1       8.000   1.656  26.404  0.00  0.00    -0.372 OA
ATOM     18  H   UNL     1       7.769   0.822  26.853  0.00  0.00    +0.212 HD
ENDBRANCH   5  17
BRANCH   8  19
ATOM     19  C   UNL     1       8.369  -2.692  26.398  0.00  0.00    +0.144 C 
BRANCH  19  20
ATOM     20  C   UNL     1       7.021  -3.389  26.213  0.00  0.00    +0.023 C 
BRANCH  20  21
ATOM     21  C   UNL     1       7.178  -4.864  25.843  0.00  0.00    +0.002 C 
BRANCH  21  22
ATOM     22  C   UNL     1       6.490  -5.185  24.515  0.00  0.00    +0.000 C 
BRANCH  22  23
ATOM     23  C   UNL     1       6.436  -3.951  23.615  0.00  0.00    -0.000 C 
BRANCH  23  24
ATOM     24  C   UNL     1       7.233  -4.170  22.330  0.00  0.00    -0.000 C 
BRANCH  24  25
ATOM     25  C   UNL     1       7.209  -5.639  21.912  0.00  0.00    -0.003 C 
ATOM     26  C   UNL     1       6.141  -5.897  20.863  0.00  0.00    +0.004 C 
ENDBRANCH  24  25
ENDBRANCH  23  24
ENDBRANCH  22  23
ENDBRANCH  21  22
ENDBRANCH  20  21
ENDBRANCH  19  20
ENDBRANCH   8  19
TORSDOF 11
ENDMDL
MODEL 7
REMARK VINA RESULT:      -5.4      3.992      7.498
REMARK  Name = 
REMARK  12 active torsions:
REMARK  status: ('A' for Active; 'I' for Inactive)
REMARK    1  A    between atoms: N_6  and  C_7
REMARK    2  A    between atoms: C_7  and  C_8
REMARK    3  A    between atoms: C_8  and  C_9
REMARK    4  A    between atoms: C_9  and  C_10
REMARK    5  A    between atoms: C_10  and  C_11
REMARK    6  A    between atoms: C_11  and  C_12
REMARK    7  A    between atoms: C_12  and  C_13
REMARK    8  A    between atoms: C_13  and  C_14
REMARK    9  A    between atoms: C_16  and  O_18
REMARK   10  A    between atoms: C_19  and  O_21
REMARK   11  A    between atoms: C_22  and  O_24
REMARK   12  A    between atoms: C_25  and  O_27
REMARK                            x       y       z     vdW  Elec       q    Type
REMARK                         _______ _______ _______ _____ _____    ______ ____
ROOT
ATOM      1  C   UNL     1       8.728   1.027  25.016  0.00  0.00    +0.119 C 
ATOM      2  C   UNL     1       8.125   2.314  24.478  0.00  0.00    +0.167 C 
ATOM      3  C   UNL     1       9.058   2.826  23.385  0.00  0.00    +0.177 C 
ATOM      4  C   UNL     1       9.249   1.810  22.258  0.00  0.00    +0.192 C 
ATOM      5  C   UNL     1       9.361   0.319  22.698  0.00  0.00    +0.236 C 
ATOM      6  N   UNL     1       8.776  -0.013  23.986  0.00  0.00    -0.276 N 
ATOM      7  C   UNL     1       8.906  -1.276  24.531  0.00  0.00    +0.154 C 
ATOM      8  N   UNL     1       9.237  -2.329  23.869  0.00  0.00    -0.263 NA
ATOM      9  S   UNL     1       8.527  -1.255  26.258  0.00  0.00    -0.089 S 
ATOM     10  C   UNL     1       7.915   0.447  26.169  0.00  0.00    +0.102 C 
ENDROOT
BRANCH   2  11
ATOM     11  O   UNL     1       8.045   3.273  25.537  0.00  0.00    -0.387 OA
ATOM     12  H   UNL     1       8.006   2.758  26.369  0.00  0.00    +0.210 HD
ENDBRANCH   2  11
BRANCH   3  13
ATOM     13  O   UNL     1       8.508   4.051  22.861  0.00  0.00    -0.386 OA
ATOM     14  H   UNL     1       9.250   4.515  22.426  0.00  0.00    +0.210 HD
ENDBRANCH   3  13
BRANCH   4  15
ATOM     15  O   UNL     1      10.434   2.228  21.538  0.00  0.00    -0.385 OA
ATOM     16  H   UNL     1      11.129   2.390  22.205  0.00  0.00    +0.210 HD
ENDBRANCH   4  15
BRANCH   5  17
ATOM     17  O   UNL     1       8.650  -0.402  21.698  0.00  0.00    -0.372 OA
ATOM     18  H   UNL     1       8.148   0.289  21.229  0.00  0.00    +0.212 HD
ENDBRANCH   5  17
BRANCH   8  19
ATOM     19  C   UNL     1       9.349  -3.610  24.573  0.00  0.00    +0.144 C 
BRANCH  19  20
ATOM     20  C   UNL     1       8.144  -4.483  24.223  0.00  0.00    +0.023 C 
BRANCH  20  21
ATOM     21  C   UNL     1       7.538  -4.117  22.868  0.00  0.00    +0.002 C 
BRANCH  21  22
ATOM     22  C   UNL     1       7.259  -5.362  22.024  0.00  0.00    +0.000 C 
BRANCH  22  23
ATOM     23  C   UNL     1       6.022  -6.102  22.533  0.00  0.00    -0.000 C 
BRANCH  23  24
ATOM     24  C   UNL     1       4.856  -5.140  22.758  0.00  0.00    -0.000 C 
BRANCH  24  25
ATOM     25  C   UNL     1       4.064  -5.520  24.006  0.00  0.00    -0.003 C 
ATOM     26  C   UNL     1       4.570  -6.821  24.607  0.00  0.00    +0.004 C 
ENDBRANCH  24  25
ENDBRANCH  23  24
ENDBRANCH  22  23
ENDBRANCH  21  22
ENDBRANCH  20  21
ENDBRANCH  19  20
ENDBRANCH   8  19
TORSDOF 11
ENDMDL
MODEL 8
REMARK VINA RESULT:      -5.4      4.211      8.200
REMARK  Name = 
REMARK  12 active torsions:
REMARK  status: ('A' for Active; 'I' for Inactive)
REMARK    1  A    between atoms: N_6  and  C_7
REMARK    2  A    between atoms: C_7  and  C_8
REMARK    3  A    between atoms: C_8  and  C_9
REMARK    4  A    between atoms: C_9  and  C_10
REMARK    5  A    between atoms: C_10  and  C_11
REMARK    6  A    between atoms: C_11  and  C_12
REMARK    7  A    between atoms: C_12  and  C_13
REMARK    8  A    between atoms: C_13  and  C_14
REMARK    9  A    between atoms: C_16  and  O_18
REMARK   10  A    between atoms: C_19  and  O_21
REMARK   11  A    between atoms: C_22  and  O_24
REMARK   12  A    between atoms: C_25  and  O_27
REMARK                            x       y       z     vdW  Elec       q    Type
REMARK                         _______ _______ _______ _____ _____    ______ ____
ROOT
ATOM      1  C   UNL     1       9.084   0.576  22.627  0.00  0.00    +0.119 C 
ATOM      2  C   UNL     1       9.950   1.822  22.704  0.00  0.00    +0.167 C 
ATOM      3  C   UNL     1       9.141   2.889  23.433  0.00  0.00    +0.177 C 
ATOM      4  C   UNL     1       8.715   2.444  24.833  0.00  0.00    +0.192 C 
ATOM      5  C   UNL     1       8.282   0.953  24.969  0.00  0.00    +0.236 C 
ATOM      6  N   UNL     1       8.794   0.043  23.960  0.00  0.00    -0.276 N 
ATOM      7  C   UNL     1       8.394  -1.279  23.914  0.00  0.00    +0.154 C 
ATOM      8  N   UNL     1       7.830  -1.908  24.884  0.00  0.00    -0.263 NA
ATOM      9  S   UNL     1       8.789  -1.998  22.347  0.00  0.00    -0.089 S 
ATOM     10  C   UNL     1       9.762  -0.552  21.855  0.00  0.00    +0.102 C 
ENDROOT
BRANCH   2  11
ATOM     11  O   UNL     1      10.254   2.264  21.377  0.00  0.00    -0.387 OA
ATOM     12  H   UNL     1      11.225   2.184  21.277  0.00  0.00    +0.210 HD
ENDBRANCH   2  11
BRANCH   3  13
ATOM     13  O   UNL     1       9.942   4.085  23.515  0.00  0.00    -0.386 OA
ATOM     14  H   UNL     1      10.455   4.123  22.683  0.00  0.00    +0.210 HD
ENDBRANCH   3  13
BRANCH   4  15
ATOM     15  O   UNL     1       7.644   3.334  25.228  0.00  0.00    -0.385 OA
ATOM     16  H   UNL     1       7.999   3.911  25.932  0.00  0.00    +0.210 HD
ENDBRANCH   4  15
BRANCH   5  17
ATOM     17  O   UNL     1       8.802   0.544  26.229  0.00  0.00    -0.372 OA
ATOM     18  H   UNL     1       9.427  -0.169  25.999  0.00  0.00    +0.212 HD
ENDBRANCH   5  17
BRANCH   8  19
ATOM     19  C   UNL     1       7.445  -3.310  24.699  0.00  0.00    +0.144 C 
BRANCH  19  20
ATOM     20  C   UNL     1       8.004  -4.142  25.854  0.00  0.00    +0.023 C 
BRANCH  20  21
ATOM     21  C   UNL     1       7.159  -5.384  26.135  0.00  0.00    +0.002 C 
BRANCH  21  22
ATOM     22  C   UNL     1       5.688  -5.153  25.784  0.00  0.00    +0.000 C 
BRANCH  22  23
ATOM     23  C   UNL     1       4.940  -6.480  25.660  0.00  0.00    -0.000 C 
BRANCH  23  24
ATOM     24  C   UNL     1       4.643  -6.812  24.199  0.00  0.00    -0.000 C 
BRANCH  24  25
ATOM     25  C   UNL     1       4.826  -5.585  23.309  0.00  0.00    -0.003 C 
ATOM     26  C   UNL     1       5.811  -5.860  22.185  0.00  0.00    +0.004 C 
ENDBRANCH  24  25
ENDBRANCH  23  24
ENDBRANCH  22  23
ENDBRANCH  21  22
ENDBRANCH  20  21
ENDBRANCH  19  20
ENDBRANCH   8  19
TORSDOF 11
ENDMDL
MODEL 9
REMARK VINA RESULT:      -5.3      3.514      7.213
REMARK  Name = 
REMARK  12 active torsions:
REMARK  status: ('A' for Active; 'I' for Inactive)
REMARK    1  A    between atoms: N_6  and  C_7
REMARK    2  A    between atoms: C_7  and  C_8
REMARK    3  A    between atoms: C_8  and  C_9
REMARK    4  A    between atoms: C_9  and  C_10
REMARK    5  A    between atoms: C_10  and  C_11
REMARK    6  A    between atoms: C_11  and  C_12
REMARK    7  A    between atoms: C_12  and  C_13
REMARK    8  A    between atoms: C_13  and  C_14
REMARK    9  A    between atoms: C_16  and  O_18
REMARK   10  A    between atoms: C_19  and  O_21
REMARK   11  A    between atoms: C_22  and  O_24
REMARK   12  A    between atoms: C_25  and  O_27
REMARK                            x       y       z     vdW  Elec       q    Type
REMARK                         _______ _______ _______ _____ _____    ______ ____
ROOT
ATOM      1  C   UNL     1       8.648   0.774  24.760  0.00  0.00    +0.119 C 
ATOM      2  C   UNL     1       8.740   1.753  23.601  0.00  0.00    +0.167 C 
ATOM      3  C   UNL     1       9.582   1.090  22.516  0.00  0.00    +0.177 C 
ATOM      4  C   UNL     1       8.989  -0.240  22.049  0.00  0.00    +0.192 C 
ATOM      5  C   UNL     1       8.365  -1.134  23.162  0.00  0.00    +0.236 C 
ATOM      6  N   UNL     1       7.942  -0.449  24.371  0.00  0.00    -0.276 N 
ATOM      7  C   UNL     1       7.473  -1.147  25.468  0.00  0.00    +0.154 C 
ATOM      8  N   UNL     1       7.061  -2.366  25.439  0.00  0.00    -0.263 NA
ATOM      9  S   UNL     1       7.491  -0.128  26.913  0.00  0.00    -0.089 S 
ATOM     10  C   UNL     1       7.880   1.352  25.944  0.00  0.00    +0.102 C 
ENDROOT
BRANCH   2  11
ATOM     11  O   UNL     1       9.382   2.951  24.050  0.00  0.00    -0.387 OA
ATOM     12  H   UNL     1      10.113   2.666  24.636  0.00  0.00    +0.210 HD
ENDBRANCH   2  11
BRANCH   3  13
ATOM     13  O   UNL     1       9.687   2.003  21.405  0.00  0.00    -0.386 OA
ATOM     14  H   UNL     1      10.586   2.385  21.456  0.00  0.00    +0.210 HD
ENDBRANCH   3  13
BRANCH   4  15
ATOM     15  O   UNL     1      10.057  -0.937  21.362  0.00  0.00    -0.385 OA
ATOM     16  H   UNL     1      10.895  -0.532  21.657  0.00  0.00    +0.210 HD
ENDBRANCH   4  15
BRANCH   5  17
ATOM     17  O   UNL     1       7.208  -1.703  22.557  0.00  0.00    -0.372 OA
ATOM     18  H   UNL     1       6.669  -1.991  23.317  0.00  0.00    +0.212 HD
ENDBRANCH   5  17
BRANCH   8  19
ATOM     19  C   UNL     1       6.599  -2.993  26.681  0.00  0.00    +0.144 C 
BRANCH  19  20
ATOM     20  C   UNL     1       5.440  -3.940  26.364  0.00  0.00    +0.023 C 
BRANCH  20  21
ATOM     21  C   UNL     1       5.912  -5.374  26.129  0.00  0.00    +0.002 C 
BRANCH  21  22
ATOM     22  C   UNL     1       5.334  -5.950  24.835  0.00  0.00    +0.000 C 
BRANCH  22  23
ATOM     23  C   UNL     1       5.675  -5.060  23.640  0.00  0.00    -0.000 C 
BRANCH  23  24
ATOM     24  C   UNL     1       7.140  -5.216  23.236  0.00  0.00    -0.000 C 
BRANCH  24  25
ATOM     25  C   UNL     1       7.273  -6.044  21.959  0.00  0.00    -0.003 C 
ATOM     26  C   UNL     1       6.203  -5.671  20.947  0.00  0.00    +0.004 C 
ENDBRANCH  24  25
ENDBRANCH  23  24
ENDBRANCH  22  23
ENDBRANCH  21  22
ENDBRANCH  20  21
ENDBRANCH  19  20
ENDBRANCH   8  19
TORSDOF 11
ENDMDL
