MODEL 1
REMARK VINA RESULT:      -6.6      0.000      0.000
REMARK  Name = 
REMARK  6 active torsions:
REMARK  status: ('A' for Active; 'I' for Inactive)
REMARK    1  A    between atoms: N_6  and  C_9
REMARK    2  A    between atoms: C_13  and  C_15
REMARK    3  A    between atoms: C_15  and  O_16
REMARK    4  A    between atoms: O_16  and  P_17
REMARK    5  A    between atoms: P_17  and  O_18
REMARK    6  A    between atoms: P_17  and  O_19
REMARK                            x       y       z     vdW  Elec       q    Type
REMARK                         _______ _______ _______ _____ _____    ______ ____
ROOT
ATOM      1  C   UNL     1       9.197  -2.355  24.386  0.00  0.00    +0.224 C 
ATOM      2  O   UNL     1       9.215  -3.550  23.583  0.00  0.00    -0.351 OA
ATOM      3  C   UNL     1       8.313  -4.517  24.152  0.00  0.00    +0.147 C 
ATOM      4  C   UNL     1       7.628  -3.846  25.334  0.00  0.00    +0.038 C 
ATOM      5  C   UNL     1       7.821  -2.380  25.048  0.00  0.00    +0.057 C 
ENDROOT
BRANCH   1  12
ATOM      6  N   UNL     1      10.233   2.276  21.560  0.00  0.00    -0.343 N 
ATOM      7  H   UNL     1      10.442   2.194  20.571  0.00  0.00    +0.144 HD
ATOM      8  H   UNL     1      10.886   2.873  22.060  0.00  0.00    +0.144 HD
ATOM      9  C   UNL     1       9.956   1.126  22.240  0.00  0.00    +0.123 A 
ATOM     10  C   UNL     1       9.321   0.000  21.535  0.00  0.00    +0.061 A 
ATOM     11  C   UNL     1       9.150  -1.105  22.243  0.00  0.00    +0.096 A 
ATOM     12  N   UNL     1       9.517  -1.191  23.572  0.00  0.00    -0.273 N 
ATOM     13  C   UNL     1       9.992  -0.049  24.241  0.00  0.00    +0.352 A 
ATOM     14  O   UNL     1      10.136  -0.025  25.460  0.00  0.00    -0.244 OA
ATOM     15  N   UNL     1      10.271   1.088  23.498  0.00  0.00    -0.178 NA
ENDBRANCH   1  12
BRANCH   3  16
ATOM     16  C   UNL     1       7.352  -4.978  23.058  0.00  0.00    +0.204 C 
BRANCH  16  17
ATOM     17  O   UNL     1       6.479  -5.986  23.562  0.00  0.00    -0.284 OA
BRANCH  17  18
ATOM     18  P   UNL     1       4.826  -5.673  23.159  0.00  0.00    +0.472 P 
ATOM     19  O   UNL     1       3.347  -5.394  22.798  0.00  0.00    -0.228 OA
BRANCH  18  20
ATOM     20  O   UNL     1       4.601  -7.214  23.649  0.00  0.00    -0.303 OA
ATOM     21  H   UNL     1       4.464  -7.754  22.850  0.00  0.00    +0.222 HD
ENDBRANCH  18  20
BRANCH  18  22
ATOM     22  O   UNL     1       5.271  -6.055  21.629  0.00  0.00    -0.303 OA
ATOM     23  H   UNL     1       6.240  -6.054  21.542  0.00  0.00    +0.222 HD
ENDBRANCH  18  22
ENDBRANCH  17  18
ENDBRANCH  16  17
ENDBRANCH   3  16
TORSDOF 6
ENDMDL
MODEL 2
REMARK VINA RESULT:      -6.4      4.294      7.265
REMARK  Name = 
REMARK  6 active torsions:
REMARK  status: ('A' for Active; 'I' for Inactive)
REMARK    1  A    between atoms: N_6  and  C_9
REMARK    2  A    between atoms: C_13  and  C_15
REMARK    3  A    between atoms: C_15  and  O_16
REMARK    4  A    between atoms: O_16  and  P_17
REMARK    5  A    between atoms: P_17  and  O_18
REMARK    6  A    between atoms: P_17  and  O_19
REMARK                            x       y       z     vdW  Elec       q    Type
REMARK                         _______ _______ _______ _____ _____    ______ ____
ROOT
ATOM      1  C   UNL     1       9.008  -2.901  23.720  0.00  0.00    +0.224 C 
ATOM      2  O   UNL     1       9.621  -1.833  24.466  0.00  0.00    -0.351 OA
ATOM      3  C   UNL     1       9.845  -0.712  23.591  0.00  0.00    +0.147 C 
ATOM      4  C   UNL     1       9.254  -1.078  22.237  0.00  0.00    +0.038 C 
ATOM      5  C   UNL     1       8.291  -2.184  22.578  0.00  0.00    +0.057 C 
ENDROOT
BRANCH   1  12
ATOM      6  N   UNL     1       6.070  -6.348  26.881  0.00  0.00    -0.343 N 
ATOM      7  H   UNL     1       5.215  -5.999  27.301  0.00  0.00    +0.144 HD
ATOM      8  H   UNL     1       6.666  -6.842  27.539  0.00  0.00    +0.144 HD
ATOM      9  C   UNL     1       6.772  -5.493  26.084  0.00  0.00    +0.123 A 
ATOM     10  C   UNL     1       6.057  -4.453  25.325  0.00  0.00    +0.061 A 
ATOM     11  C   UNL     1       6.814  -3.617  24.631  0.00  0.00    +0.096 A 
ATOM     12  N   UNL     1       8.191  -3.728  24.596  0.00  0.00    -0.273 N 
ATOM     13  C   UNL     1       8.819  -4.819  25.223  0.00  0.00    +0.352 A 
ATOM     14  O   UNL     1      10.008  -5.069  25.048  0.00  0.00    -0.244 OA
ATOM     15  N   UNL     1       8.060  -5.647  26.034  0.00  0.00    -0.178 NA
ENDBRANCH   1  12
BRANCH   3  16
ATOM     16  C   UNL     1       9.218   0.526  24.229  0.00  0.00    +0.204 C 
BRANCH  16  17
ATOM     17  O   UNL     1       9.023   1.541  23.246  0.00  0.00    -0.284 OA
BRANCH  17  18
ATOM     18  P   UNL     1      10.296   2.712  23.262  0.00  0.00    +0.472 P 
ATOM     19  O   UNL     1      11.434   3.761  23.275  0.00  0.00    -0.228 OA
BRANCH  18  20
ATOM     20  O   UNL     1       9.074   3.780  23.081  0.00  0.00    -0.303 OA
ATOM     21  H   UNL     1       8.276   3.269  22.853  0.00  0.00    +0.222 HD
ENDBRANCH  18  20
BRANCH  18  22
ATOM     22  O   UNL     1      10.445   2.367  21.667  0.00  0.00    -0.303 OA
ATOM     23  H   UNL     1       9.820   1.670  21.406  0.00  0.00    +0.222 HD
ENDBRANCH  18  22
ENDBRANCH  17  18
ENDBRANCH  16  17
ENDBRANCH   3  16
TORSDOF 6
ENDMDL
MODEL 3
REMARK VINA RESULT:      -6.3      3.745      6.713
REMARK  Name = 
REMARK  6 active torsions:
REMARK  status: ('A' for Active; 'I' for Inactive)
REMARK    1  A    between atoms: N_6  and  C_9
REMARK    2  A    between atoms: C_13  and  C_15
REMARK    3  A    between atoms: C_15  and  O_16
REMARK    4  A    between atoms: O_16  and  P_17
REMARK    5  A    between atoms: P_17  and  O_18
REMARK    6  A    between atoms: P_17  and  O_19
REMARK                            x       y       z     vdW  Elec       q    Type
REMARK                         _______ _______ _______ _____ _____    ______ ____
ROOT
ATOM      1  C   UNL     1       9.267  -2.437  23.578  0.00  0.00    +0.224 C 
ATOM      2  O   UNL     1       8.894  -1.512  24.616  0.00  0.00    -0.351 OA
ATOM      3  C   UNL     1       9.695  -0.322  24.501  0.00  0.00    +0.147 C 
ATOM      4  C   UNL     1      10.560  -0.486  23.260  0.00  0.00    +0.038 C 
ATOM      5  C   UNL     1       9.828  -1.542  22.476  0.00  0.00    +0.057 C 
ENDROOT
BRANCH   1  12
ATOM      6  N   UNL     1       5.244  -5.949  22.168  0.00  0.00    -0.343 N 
ATOM      7  H   UNL     1       4.343  -5.562  21.907  0.00  0.00    +0.144 HD
ATOM      8  H   UNL     1       5.174  -6.714  22.833  0.00  0.00    +0.144 HD
ATOM      9  C   UNL     1       6.235  -5.069  22.491  0.00  0.00    +0.123 A 
ATOM     10  C   UNL     1       6.260  -3.739  21.860  0.00  0.00    +0.061 A 
ATOM     11  C   UNL     1       7.209  -2.916  22.277  0.00  0.00    +0.096 A 
ATOM     12  N   UNL     1       8.140  -3.290  23.228  0.00  0.00    -0.273 N 
ATOM     13  C   UNL     1       8.162  -4.614  23.700  0.00  0.00    +0.352 A 
ATOM     14  O   UNL     1       9.088  -5.042  24.384  0.00  0.00    -0.244 OA
ATOM     15  N   UNL     1       7.121  -5.461  23.353  0.00  0.00    -0.178 NA
ENDBRANCH   1  12
BRANCH   3  16
ATOM     16  C   UNL     1       8.758   0.883  24.450  0.00  0.00    +0.204 C 
BRANCH  16  17
ATOM     17  O   UNL     1       9.303   1.896  23.608  0.00  0.00    -0.284 OA
BRANCH  17  18
ATOM     18  P   UNL     1       8.094   2.632  22.612  0.00  0.00    +0.472 P 
ATOM     19  O   UNL     1       7.013   3.291  21.721  0.00  0.00    -0.228 OA
BRANCH  18  20
ATOM     20  O   UNL     1       9.078   2.177  21.391  0.00  0.00    -0.303 OA
ATOM     21  H   UNL     1       9.332   1.250  21.555  0.00  0.00    +0.222 HD
ENDBRANCH  18  20
BRANCH  18  22
ATOM     22  O   UNL     1       8.879   4.033  22.937  0.00  0.00    -0.303 OA
ATOM     23  H   UNL     1       8.266   4.695  23.299  0.00  0.00    +0.222 HD
ENDBRANCH  18  22
ENDBRANCH  17  18
ENDBRANCH  16  17
ENDBRANCH   3  16
TORSDOF 6
ENDMDL
MODEL 4
REMARK VINA RESULT:      -6.2      1.457      1.664
REMARK  Name = 
REMARK  6 active torsions:
REMARK  status: ('A' for Active; 'I' for Inactive)
REMARK    1  A    between atoms: N_6  and  C_9
REMARK    2  A    between atoms: C_13  and  C_15
REMARK    3  A    between atoms: C_15  and  O_16
REMARK    4  A    between atoms: O_16  and  P_17
REMARK    5  A    between atoms: P_17  and  O_18
REMARK    6  A    between atoms: P_17  and  O_19
REMARK                            x       y       z     vdW  Elec       q    Type
REMARK                         _______ _______ _______ _____ _____    ______ ____
ROOT
ATOM      1  C   UNL     1       9.333  -2.493  24.480  0.00  0.00    +0.224 C 
ATOM      2  O   UNL     1       8.924  -3.709  23.828  0.00  0.00    -0.351 OA
ATOM      3  C   UNL     1       8.547  -4.677  24.824  0.00  0.00    +0.147 C 
ATOM      4  C   UNL     1       8.648  -3.987  26.177  0.00  0.00    +0.038 C 
ATOM      5  C   UNL     1       8.593  -2.526  25.815  0.00  0.00    +0.057 C 
ENDROOT
BRANCH   1  12
ATOM      6  N   UNL     1       8.775   1.935  21.225  0.00  0.00    -0.343 N 
ATOM      7  H   UNL     1       7.857   2.359  21.150  0.00  0.00    +0.144 HD
ATOM      8  H   UNL     1       9.223   1.788  20.325  0.00  0.00    +0.144 HD
ATOM      9  C   UNL     1       8.903   0.857  22.051  0.00  0.00    +0.123 A 
ATOM     10  C   UNL     1       8.040   0.744  23.238  0.00  0.00    +0.061 A 
ATOM     11  C   UNL     1       8.173  -0.364  23.950  0.00  0.00    +0.096 A 
ATOM     12  N   UNL     1       9.088  -1.346  23.618  0.00  0.00    -0.273 N 
ATOM     13  C   UNL     1       9.986  -1.132  22.557  0.00  0.00    +0.352 A 
ATOM     14  O   UNL     1      10.940  -1.879  22.356  0.00  0.00    -0.244 OA
ATOM     15  N   UNL     1       9.799  -0.028  21.740  0.00  0.00    -0.178 NA
ENDBRANCH   1  12
BRANCH   3  16
ATOM     16  C   UNL     1       7.147  -5.188  24.490  0.00  0.00    +0.204 C 
BRANCH  16  17
ATOM     17  O   UNL     1       6.682  -4.594  23.280  0.00  0.00    -0.284 OA
BRANCH  17  18
ATOM     18  P   UNL     1       4.985  -4.838  23.048  0.00  0.00    +0.472 P 
ATOM     19  O   UNL     1       3.467  -5.057  22.840  0.00  0.00    -0.228 OA
BRANCH  18  20
ATOM     20  O   UNL     1       5.465  -6.218  22.318  0.00  0.00    -0.303 OA
ATOM     21  H   UNL     1       4.800  -6.430  21.638  0.00  0.00    +0.222 HD
ENDBRANCH  18  20
BRANCH  18  22
ATOM     22  O   UNL     1       5.170  -3.885  21.728  0.00  0.00    -0.303 OA
ATOM     23  H   UNL     1       5.437  -2.987  21.987  0.00  0.00    +0.222 HD
ENDBRANCH  18  22
ENDBRANCH  17  18
ENDBRANCH  16  17
ENDBRANCH   3  16
TORSDOF 6
ENDMDL
MODEL 5
REMARK VINA RESULT:      -6.2      2.724      3.345
REMARK  Name = 
REMARK  6 active torsions:
REMARK  status: ('A' for Active; 'I' for Inactive)
REMARK    1  A    between atoms: N_6  and  C_9
REMARK    2  A    between atoms: C_13  and  C_15
REMARK    3  A    between atoms: C_15  and  O_16
REMARK    4  A    between atoms: O_16  and  P_17
REMARK    5  A    between atoms: P_17  and  O_18
REMARK    6  A    between atoms: P_17  and  O_19
REMARK                            x       y       z     vdW  Elec       q    Type
REMARK                         _______ _______ _______ _____ _____    ______ ____
ROOT
ATOM      1  C   UNL     1       8.706  -3.005  23.140  0.00  0.00    +0.224 C 
ATOM      2  O   UNL     1       7.421  -3.541  23.506  0.00  0.00    -0.351 OA
ATOM      3  C   UNL     1       7.601  -4.560  24.506  0.00  0.00    +0.147 C 
ATOM      4  C   UNL     1       9.085  -4.598  24.842  0.00  0.00    +0.038 C 
ATOM      5  C   UNL     1       9.571  -3.252  24.373  0.00  0.00    +0.057 C 
ENDROOT
BRANCH   1  12
ATOM      6  N   UNL     1       8.544   2.296  21.596  0.00  0.00    -0.343 N 
ATOM      7  H   UNL     1       7.638   2.709  21.402  0.00  0.00    +0.144 HD
ATOM      8  H   UNL     1       9.236   2.492  20.878  0.00  0.00    +0.144 HD
ATOM      9  C   UNL     1       8.567   0.994  22.000  0.00  0.00    +0.123 A 
ATOM     10  C   UNL     1       7.431   0.448  22.761  0.00  0.00    +0.061 A 
ATOM     11  C   UNL     1       7.494  -0.841  23.054  0.00  0.00    +0.096 A 
ATOM     12  N   UNL     1       8.572  -1.625  22.693  0.00  0.00    -0.273 N 
ATOM     13  C   UNL     1       9.695  -1.032  22.089  0.00  0.00    +0.352 A 
ATOM     14  O   UNL     1      10.749  -1.645  21.937  0.00  0.00    -0.244 OA
ATOM     15  N   UNL     1       9.611   0.291  21.685  0.00  0.00    -0.178 NA
ENDBRANCH   1  12
BRANCH   3  16
ATOM     16  C   UNL     1       6.703  -4.228  25.696  0.00  0.00    +0.204 C 
BRANCH  16  17
ATOM     17  O   UNL     1       6.093  -5.415  26.198  0.00  0.00    -0.284 OA
BRANCH  17  18
ATOM     18  P   UNL     1       6.151  -5.493  27.926  0.00  0.00    +0.472 P 
ATOM     19  O   UNL     1       6.203  -5.564  29.471  0.00  0.00    -0.228 OA
BRANCH  18  20
ATOM     20  O   UNL     1       7.702  -5.939  27.675  0.00  0.00    -0.303 OA
ATOM     21  H   UNL     1       7.752  -6.901  27.821  0.00  0.00    +0.222 HD
ENDBRANCH  18  20
BRANCH  18  22
ATOM     22  O   UNL     1       5.521  -6.995  27.740  0.00  0.00    -0.303 OA
ATOM     23  H   UNL     1       5.100  -7.295  28.563  0.00  0.00    +0.222 HD
ENDBRANCH  18  22
ENDBRANCH  17  18
ENDBRANCH  16  17
ENDBRANCH   3  16
TORSDOF 6
ENDMDL
MODEL 6
REMARK VINA RESULT:      -6.0      3.898      6.900
REMARK  Name = 
REMARK  6 active torsions:
REMARK  status: ('A' for Active; 'I' for Inactive)
REMARK    1  A    between atoms: N_6  and  C_9
REMARK    2  A    between atoms: C_13  and  C_15
REMARK    3  A    between atoms: C_15  and  O_16
REMARK    4  A    between atoms: O_16  and  P_17
REMARK    5  A    between atoms: P_17  and  O_18
REMARK    6  A    between atoms: P_17  and  O_19
REMARK                            x       y       z     vdW  Elec       q    Type
REMARK                         _______ _______ _______ _____ _____    ______ ____
ROOT
ATOM      1  C   UNL     1       8.191  -2.518  24.181  0.00  0.00    +0.224 C 
ATOM      2  O   UNL     1       7.880  -1.358  23.388  0.00  0.00    -0.351 OA
ATOM      3  C   UNL     1       9.082  -0.596  23.171  0.00  0.00    +0.147 C 
ATOM      4  C   UNL     1      10.225  -1.380  23.800  0.00  0.00    +0.038 C 
ATOM      5  C   UNL     1       9.667  -2.775  23.891  0.00  0.00    +0.057 C 
ENDROOT
BRANCH   1  12
ATOM      6  N   UNL     1       4.871  -6.843  23.298  0.00  0.00    -0.343 N 
ATOM      7  H   UNL     1       4.303  -6.845  22.457  0.00  0.00    +0.144 HD
ATOM      8  H   UNL     1       4.347  -7.082  24.135  0.00  0.00    +0.144 HD
ATOM      9  C   UNL     1       5.704  -5.780  23.490  0.00  0.00    +0.123 A 
ATOM     10  C   UNL     1       6.270  -5.080  22.326  0.00  0.00    +0.061 A 
ATOM     11  C   UNL     1       7.010  -4.015  22.593  0.00  0.00    +0.096 A 
ATOM     12  N   UNL     1       7.262  -3.600  23.887  0.00  0.00    -0.273 N 
ATOM     13  C   UNL     1       6.815  -4.379  24.969  0.00  0.00    +0.352 A 
ATOM     14  O   UNL     1       7.186  -4.162  26.119  0.00  0.00    -0.244 OA
ATOM     15  N   UNL     1       5.958  -5.438  24.716  0.00  0.00    -0.178 NA
ENDBRANCH   1  12
BRANCH   3  16
ATOM     16  C   UNL     1       9.239  -0.364  21.670  0.00  0.00    +0.204 C 
BRANCH  16  17
ATOM     17  O   UNL     1       8.855   0.967  21.335  0.00  0.00    -0.284 OA
BRANCH  17  18
ATOM     18  P   UNL     1       9.228   2.088  22.599  0.00  0.00    +0.472 P 
ATOM     19  O   UNL     1       9.561   3.091  23.730  0.00  0.00    -0.228 OA
BRANCH  18  20
ATOM     20  O   UNL     1       8.186   3.060  21.801  0.00  0.00    -0.303 OA
ATOM     21  H   UNL     1       7.889   2.575  21.010  0.00  0.00    +0.222 HD
ENDBRANCH  18  20
BRANCH  18  22
ATOM     22  O   UNL     1      10.534   2.469  21.687  0.00  0.00    -0.303 OA
ATOM     23  H   UNL     1      10.414   2.167  20.771  0.00  0.00    +0.222 HD
ENDBRANCH  18  22
ENDBRANCH  17  18
ENDBRANCH  16  17
ENDBRANCH   3  16
TORSDOF 6
ENDMDL
MODEL 7
REMARK VINA RESULT:      -5.9      2.906      3.936
REMARK  Name = 
REMARK  6 active torsions:
REMARK  status: ('A' for Active; 'I' for Inactive)
REMARK    1  A    between atoms: N_6  and  C_9
REMARK    2  A    between atoms: C_13  and  C_15
REMARK    3  A    between atoms: C_15  and  O_16
REMARK    4  A    between atoms: O_16  and  P_17
REMARK    5  A    between atoms: P_17  and  O_18
REMARK    6  A    between atoms: P_17  and  O_19
REMARK                            x       y       z     vdW  Elec       q    Type
REMARK                         _______ _______ _______ _____ _____    ______ ____
ROOT
ATOM      1  C   UNL     1       8.230   0.657  24.697  0.00  0.00    +0.224 C 
ATOM      2  O   UNL     1       9.132  -0.450  24.882  0.00  0.00    -0.351 OA
ATOM      3  C   UNL     1       8.458  -1.673  24.533  0.00  0.00    +0.147 C 
ATOM      4  C   UNL     1       7.078  -1.291  24.019  0.00  0.00    +0.038 C 
ATOM      5  C   UNL     1       7.248   0.156  23.640  0.00  0.00    +0.057 C 
ENDROOT
BRANCH   1  12
ATOM      6  N   UNL     1      10.714   5.417  23.401  0.00  0.00    -0.343 N 
ATOM      7  H   UNL     1      11.718   5.406  23.251  0.00  0.00    +0.144 HD
ATOM      8  H   UNL     1      10.410   6.169  24.012  0.00  0.00    +0.144 HD
ATOM      9  C   UNL     1      10.111   4.230  23.697  0.00  0.00    +0.123 A 
ATOM     10  C   UNL     1      10.671   2.977  23.164  0.00  0.00    +0.061 A 
ATOM     11  C   UNL     1      10.073   1.862  23.554  0.00  0.00    +0.096 A 
ATOM     12  N   UNL     1       8.971   1.871  24.387  0.00  0.00    -0.273 N 
ATOM     13  C   UNL     1       8.388   3.095  24.759  0.00  0.00    +0.352 A 
ATOM     14  O   UNL     1       7.299   3.148  25.325  0.00  0.00    -0.244 OA
ATOM     15  N   UNL     1       9.052   4.270  24.446  0.00  0.00    -0.178 NA
ENDBRANCH   1  12
BRANCH   3  16
ATOM     16  C   UNL     1       9.316  -2.419  23.514  0.00  0.00    +0.204 C 
BRANCH  16  17
ATOM     17  O   UNL     1      10.079  -3.435  24.162  0.00  0.00    -0.284 OA
BRANCH  17  18
ATOM     18  P   UNL     1       9.091  -4.462  25.144  0.00  0.00    +0.472 P 
ATOM     19  O   UNL     1       8.207  -5.381  26.021  0.00  0.00    -0.228 OA
BRANCH  18  20
ATOM     20  O   UNL     1      10.425  -5.402  25.189  0.00  0.00    -0.303 OA
ATOM     21  H   UNL     1      10.238  -6.138  25.800  0.00  0.00    +0.222 HD
ENDBRANCH  18  20
BRANCH  18  22
ATOM     22  O   UNL     1       8.529  -5.048  23.720  0.00  0.00    -0.303 OA
ATOM     23  H   UNL     1       7.647  -5.440  23.834  0.00  0.00    +0.222 HD
ENDBRANCH  18  22
ENDBRANCH  17  18
ENDBRANCH  16  17
ENDBRANCH   3  16
TORSDOF 6
ENDMDL
MODEL 8
REMARK VINA RESULT:      -5.9      1.833      2.546
REMARK  Name = 
REMARK  6 active torsions:
REMARK  status: ('A' for Active; 'I' for Inactive)
REMARK    1  A    between atoms: N_6  and  C_9
REMARK    2  A    between atoms: C_13  and  C_15
REMARK    3  A    between atoms: C_15  and  O_16
REMARK    4  A    between atoms: O_16  and  P_17
REMARK    5  A    between atoms: P_17  and  O_18
REMARK    6  A    between atoms: P_17  and  O_19
REMARK                            x       y       z     vdW  Elec       q    Type
REMARK                         _______ _______ _______ _____ _____    ______ ____
ROOT
ATOM      1  C   UNL     1       8.125  -3.112  22.691  0.00  0.00    +0.224 C 
ATOM      2  O   UNL     1       6.797  -3.156  22.138  0.00  0.00    -0.351 OA
ATOM      3  C   UNL     1       6.297  -4.504  22.213  0.00  0.00    +0.147 C 
ATOM      4  C   UNL     1       7.350  -5.331  22.936  0.00  0.00    +0.038 C 
ATOM      5  C   UNL     1       8.155  -4.288  23.666  0.00  0.00    +0.057 C 
ENDROOT
BRANCH   1  12
ATOM      6  N   UNL     1       9.519   1.755  24.898  0.00  0.00    -0.343 N 
ATOM      7  H   UNL     1       8.777   2.417  25.101  0.00  0.00    +0.144 HD
ATOM      8  H   UNL     1      10.303   2.172  24.405  0.00  0.00    +0.144 HD
ATOM      9  C   UNL     1       9.157   0.548  24.376  0.00  0.00    +0.123 A 
ATOM     10  C   UNL     1       7.850  -0.032  24.723  0.00  0.00    +0.061 A 
ATOM     11  C   UNL     1       7.541  -1.170  24.120  0.00  0.00    +0.096 A 
ATOM     12  N   UNL     1       8.405  -1.793  23.240  0.00  0.00    -0.273 N 
ATOM     13  C   UNL     1       9.697  -1.275  23.045  0.00  0.00    +0.352 A 
ATOM     14  O   UNL     1      10.561  -1.900  22.436  0.00  0.00    -0.244 OA
ATOM     15  N   UNL     1      10.005  -0.036  23.586  0.00  0.00    -0.178 NA
ENDBRANCH   1  12
BRANCH   3  16
ATOM     16  C   UNL     1       4.941  -4.474  22.914  0.00  0.00    +0.204 C 
BRANCH  16  17
ATOM     17  O   UNL     1       4.147  -5.583  22.501  0.00  0.00    -0.284 OA
BRANCH  17  18
ATOM     18  P   UNL     1       3.314  -6.316  23.828  0.00  0.00    +0.472 P 
ATOM     19  O   UNL     1       2.569  -6.973  25.015  0.00  0.00    -0.228 OA
BRANCH  18  20
ATOM     20  O   UNL     1       4.571  -7.359  23.809  0.00  0.00    -0.303 OA
ATOM     21  H   UNL     1       4.253  -8.185  23.402  0.00  0.00    +0.222 HD
ENDBRANCH  18  20
BRANCH  18  22
ATOM     22  O   UNL     1       2.445  -7.091  22.674  0.00  0.00    -0.303 OA
ATOM     23  H   UNL     1       1.604  -7.416  23.037  0.00  0.00    +0.222 HD
ENDBRANCH  18  22
ENDBRANCH  17  18
ENDBRANCH  16  17
ENDBRANCH   3  16
TORSDOF 6
ENDMDL
MODEL 9
REMARK VINA RESULT:      -5.8      3.868      6.115
REMARK  Name = 
REMARK  6 active torsions:
REMARK  status: ('A' for Active; 'I' for Inactive)
REMARK    1  A    between atoms: N_6  and  C_9
REMARK    2  A    between atoms: C_13  and  C_15
REMARK    3  A    between atoms: C_15  and  O_16
REMARK    4  A    between atoms: O_16  and  P_17
REMARK    5  A    between atoms: P_17  and  O_18
REMARK    6  A    between atoms: P_17  and  O_19
REMARK                            x       y       z     vdW  Elec       q    Type
REMARK                         _______ _______ _______ _____ _____    ______ ____
ROOT
ATOM      1  C   UNL     1       9.494  -2.578  23.674  0.00  0.00    +0.224 C 
ATOM      2  O   UNL     1       9.822  -1.362  24.370  0.00  0.00    -0.351 OA
ATOM      3  C   UNL     1      10.081  -0.321  23.411  0.00  0.00    +0.147 C 
ATOM      4  C   UNL     1       9.813  -0.909  22.033  0.00  0.00    +0.038 C 
ATOM      5  C   UNL     1       8.936  -2.095  22.337  0.00  0.00    +0.057 C 
ENDROOT
BRANCH   1  12
ATOM      6  N   UNL     1       6.336  -6.048  26.589  0.00  0.00    -0.343 N 
ATOM      7  H   UNL     1       5.495  -5.679  27.021  0.00  0.00    +0.144 HD
ATOM      8  H   UNL     1       6.896  -6.613  27.220  0.00  0.00    +0.144 HD
ATOM      9  C   UNL     1       7.093  -5.185  25.852  0.00  0.00    +0.123 A 
ATOM     10  C   UNL     1       6.444  -4.064  25.153  0.00  0.00    +0.061 A 
ATOM     11  C   UNL     1       7.253  -3.229  24.519  0.00  0.00    +0.096 A 
ATOM     12  N   UNL     1       8.623  -3.413  24.489  0.00  0.00    -0.273 N 
ATOM     13  C   UNL     1       9.184  -4.572  25.053  0.00  0.00    +0.352 A 
ATOM     14  O   UNL     1      10.360  -4.876  24.874  0.00  0.00    -0.244 OA
ATOM     15  N   UNL     1       8.371  -5.406  25.805  0.00  0.00    -0.178 NA
ENDBRANCH   1  12
BRANCH   3  16
ATOM     16  C   UNL     1       9.203   0.879  23.757  0.00  0.00    +0.204 C 
BRANCH  16  17
ATOM     17  O   UNL     1       8.080   0.460  24.529  0.00  0.00    -0.284 OA
BRANCH  17  18
ATOM     18  P   UNL     1       6.647   1.339  24.120  0.00  0.00    +0.472 P 
ATOM     19  O   UNL     1       5.365   2.125  23.753  0.00  0.00    -0.228 OA
BRANCH  18  20
ATOM     20  O   UNL     1       6.261  -0.021  23.302  0.00  0.00    -0.303 OA
ATOM     21  H   UNL     1       6.167   0.224  22.364  0.00  0.00    +0.222 HD
ENDBRANCH  18  20
BRANCH  18  22
ATOM     22  O   UNL     1       7.556   1.993  22.924  0.00  0.00    -0.303 OA
ATOM     23  H   UNL     1       6.993   2.309  22.197  0.00  0.00    +0.222 HD
ENDBRANCH  18  22
ENDBRANCH  17  18
ENDBRANCH  16  17
ENDBRANCH   3  16
TORSDOF 6
ENDMDL
