MODEL 1
REMARK VINA RESULT:      -6.4      0.000      0.000
REMARK  Name = 
REMARK  6 active torsions:
REMARK  status: ('A' for Active; 'I' for Inactive)
REMARK    1  A    between atoms: C_1  and  C_2
REMARK    2  A    between atoms: C_4  and  N_9
REMARK    3  A    between atoms: C_7  and  O_8
REMARK    4  A    between atoms: N_10  and  C_11
REMARK    5  A    between atoms: C_16  and  C_17
REMARK    6  A    between atoms: C_17  and  O_18
REMARK                            x       y       z     vdW  Elec       q    Type
REMARK                         _______ _______ _______ _____ _____    ______ ____
ROOT
ATOM      1  N   UNL     1       8.403  -1.511  22.240  0.00  0.00    -0.149 NA
ATOM      2  N   UNL     1       7.560  -1.971  23.043  0.00  0.00    -0.148 NA
ENDROOT
BRANCH   1   8
ATOM      3  C   UNL     1       8.170   2.499  25.179  0.00  0.00    +0.047 C 
ATOM      4  C   UNL     1       8.682   1.811  23.949  0.00  0.00    -0.007 A 
ATOM      5  C   UNL     1       9.540   2.458  23.056  0.00  0.00    +0.120 A 
ATOM      6  C   UNL     1      10.020   1.806  21.922  0.00  0.00    +0.048 A 
ATOM      7  C   UNL     1       9.639   0.484  21.677  0.00  0.00    +0.033 A 
ATOM      8  C   UNL     1       8.779  -0.190  22.552  0.00  0.00    +0.087 A 
ATOM      9  C   UNL     1       8.293   0.493  23.676  0.00  0.00    +0.036 A 
BRANCH   5  10
ATOM     10  O   UNL     1       9.897   3.751  23.313  0.00  0.00    -0.507 OA
ATOM     11  H   UNL     1      10.758   3.929  22.900  0.00  0.00    +0.292 HD
ENDBRANCH   5  10
ENDBRANCH   1   8
BRANCH   2  12
ATOM     12  C   UNL     1       7.274  -3.325  22.758  0.00  0.00    +0.100 A 
ATOM     13  C   UNL     1       7.932  -4.371  23.428  0.00  0.00    +0.086 A 
ATOM     14  C   UNL     1       7.635  -5.707  23.098  0.00  0.00    +0.017 A 
ATOM     15  C   UNL     1       6.706  -6.007  22.102  0.00  0.00    +0.001 A 
ATOM     16  C   UNL     1       6.067  -4.979  21.421  0.00  0.00    +0.002 A 
ATOM     17  C   UNL     1       6.356  -3.654  21.741  0.00  0.00    +0.030 A 
BRANCH  13  18
ATOM     18  C   UNL     1       8.934  -4.166  24.510  0.00  0.00    +0.339 C 
ATOM     19  O   UNL     1       8.840  -4.713  25.598  0.00  0.00    -0.245 OA
BRANCH  18  20
ATOM     20  O   UNL     1       9.996  -3.400  24.180  0.00  0.00    -0.477 OA
ATOM     21  H   UNL     1      10.583  -3.179  24.931  0.00  0.00    +0.295 HD
ENDBRANCH  18  20
ENDBRANCH  13  18
ENDBRANCH   2  12
TORSDOF 5
ENDMDL
MODEL 2
REMARK VINA RESULT:      -6.3      2.350      2.902
REMARK  Name = 
REMARK  6 active torsions:
REMARK  status: ('A' for Active; 'I' for Inactive)
REMARK    1  A    between atoms: C_1  and  C_2
REMARK    2  A    between atoms: C_4  and  N_9
REMARK    3  A    between atoms: C_7  and  O_8
REMARK    4  A    between atoms: N_10  and  C_11
REMARK    5  A    between atoms: C_16  and  C_17
REMARK    6  A    between atoms: C_17  and  O_18
REMARK                            x       y       z     vdW  Elec       q    Type
REMARK                         _______ _______ _______ _____ _____    ______ ____
ROOT
ATOM      1  N   UNL     1       7.297  -2.074  23.775  0.00  0.00    -0.149 NA
ATOM      2  N   UNL     1       7.767  -3.192  23.465  0.00  0.00    -0.148 NA
ENDROOT
BRANCH   1   8
ATOM      3  C   UNL     1       8.967   2.608  24.029  0.00  0.00    +0.047 C 
ATOM      4  C   UNL     1       8.883   1.290  23.320  0.00  0.00    -0.007 A 
ATOM      5  C   UNL     1       9.538   1.072  22.105  0.00  0.00    +0.120 A 
ATOM      6  C   UNL     1       9.463  -0.160  21.459  0.00  0.00    +0.048 A 
ATOM      7  C   UNL     1       8.724  -1.195  22.038  0.00  0.00    +0.033 A 
ATOM      8  C   UNL     1       8.053  -1.008  23.253  0.00  0.00    +0.087 A 
ATOM      9  C   UNL     1       8.127   0.247  23.874  0.00  0.00    +0.036 A 
BRANCH   5  10
ATOM     10  O   UNL     1      10.253   2.098  21.555  0.00  0.00    -0.507 OA
ATOM     11  H   UNL     1       9.640   2.717  21.126  0.00  0.00    +0.292 HD
ENDBRANCH   5  10
ENDBRANCH   1   8
BRANCH   2  12
ATOM     12  C   UNL     1       6.936  -4.237  23.927  0.00  0.00    +0.100 A 
ATOM     13  C   UNL     1       6.040  -4.897  23.068  0.00  0.00    +0.086 A 
ATOM     14  C   UNL     1       5.212  -5.917  23.571  0.00  0.00    +0.017 A 
ATOM     15  C   UNL     1       5.258  -6.274  24.919  0.00  0.00    +0.001 A 
ATOM     16  C   UNL     1       6.125  -5.613  25.779  0.00  0.00    +0.002 A 
ATOM     17  C   UNL     1       6.948  -4.601  25.288  0.00  0.00    +0.030 A 
BRANCH  13  18
ATOM     18  C   UNL     1       5.914  -4.602  21.613  0.00  0.00    +0.339 C 
ATOM     19  O   UNL     1       5.977  -5.477  20.763  0.00  0.00    -0.245 OA
BRANCH  18  20
ATOM     20  O   UNL     1       5.640  -3.317  21.302  0.00  0.00    -0.477 OA
ATOM     21  H   UNL     1       5.565  -2.722  22.073  0.00  0.00    +0.295 HD
ENDBRANCH  18  20
ENDBRANCH  13  18
ENDBRANCH   2  12
TORSDOF 5
ENDMDL
MODEL 3
REMARK VINA RESULT:      -6.0      2.469      3.041
REMARK  Name = 
REMARK  6 active torsions:
REMARK  status: ('A' for Active; 'I' for Inactive)
REMARK    1  A    between atoms: C_1  and  C_2
REMARK    2  A    between atoms: C_4  and  N_9
REMARK    3  A    between atoms: C_7  and  O_8
REMARK    4  A    between atoms: N_10  and  C_11
REMARK    5  A    between atoms: C_16  and  C_17
REMARK    6  A    between atoms: C_17  and  O_18
REMARK                            x       y       z     vdW  Elec       q    Type
REMARK                         _______ _______ _______ _____ _____    ______ ____
ROOT
ATOM      1  N   UNL     1       8.097  -1.224  25.248  0.00  0.00    -0.149 NA
ATOM      2  N   UNL     1       8.381  -2.417  24.997  0.00  0.00    -0.148 NA
ENDROOT
BRANCH   1   8
ATOM      3  C   UNL     1       9.583   3.358  23.993  0.00  0.00    +0.047 C 
ATOM      4  C   UNL     1       9.406   1.906  23.660  0.00  0.00    -0.007 A 
ATOM      5  C   UNL     1       9.799   1.390  22.423  0.00  0.00    +0.120 A 
ATOM      6  C   UNL     1       9.641   0.037  22.127  0.00  0.00    +0.048 A 
ATOM      7  C   UNL     1       9.085  -0.815  23.084  0.00  0.00    +0.033 A 
ATOM      8  C   UNL     1       8.680  -0.327  24.332  0.00  0.00    +0.087 A 
ATOM      9  C   UNL     1       8.830   1.041  24.599  0.00  0.00    +0.036 A 
BRANCH   5  10
ATOM     10  O   UNL     1      10.337   2.240  21.500  0.00  0.00    -0.507 OA
ATOM     11  H   UNL     1      10.682   1.721  20.754  0.00  0.00    +0.292 HD
ENDBRANCH   5  10
ENDBRANCH   1   8
BRANCH   2  12
ATOM     12  C   UNL     1       7.707  -3.294  25.877  0.00  0.00    +0.100 A 
ATOM     13  C   UNL     1       8.054  -4.653  25.966  0.00  0.00    +0.086 A 
ATOM     14  C   UNL     1       7.344  -5.500  26.839  0.00  0.00    +0.017 A 
ATOM     15  C   UNL     1       6.287  -5.009  27.606  0.00  0.00    +0.001 A 
ATOM     16  C   UNL     1       5.925  -3.672  27.509  0.00  0.00    +0.002 A 
ATOM     17  C   UNL     1       6.623  -2.828  26.646  0.00  0.00    +0.030 A 
BRANCH  13  18
ATOM     18  C   UNL     1       9.166  -5.280  25.200  0.00  0.00    +0.339 C 
ATOM     19  O   UNL     1       9.056  -5.583  24.021  0.00  0.00    -0.245 OA
BRANCH  18  20
ATOM     20  O   UNL     1      10.331  -5.415  25.870  0.00  0.00    -0.477 OA
ATOM     21  H   UNL     1      10.241  -5.802  26.763  0.00  0.00    +0.295 HD
ENDBRANCH  18  20
ENDBRANCH  13  18
ENDBRANCH   2  12
TORSDOF 5
ENDMDL
MODEL 4
REMARK VINA RESULT:      -6.0      1.863      2.155
REMARK  Name = 
REMARK  6 active torsions:
REMARK  status: ('A' for Active; 'I' for Inactive)
REMARK    1  A    between atoms: C_1  and  C_2
REMARK    2  A    between atoms: C_4  and  N_9
REMARK    3  A    between atoms: C_7  and  O_8
REMARK    4  A    between atoms: N_10  and  C_11
REMARK    5  A    between atoms: C_16  and  C_17
REMARK    6  A    between atoms: C_17  and  O_18
REMARK                            x       y       z     vdW  Elec       q    Type
REMARK                         _______ _______ _______ _____ _____    ______ ____
ROOT
ATOM      1  N   UNL     1       7.020  -1.896  23.525  0.00  0.00    -0.149 NA
ATOM      2  N   UNL     1       7.636  -2.986  23.538  0.00  0.00    -0.148 NA
ENDROOT
BRANCH   1   8
ATOM      3  C   UNL     1       7.535   2.851  22.119  0.00  0.00    +0.047 C 
ATOM      4  C   UNL     1       8.102   1.475  22.299  0.00  0.00    -0.007 A 
ATOM      5  C   UNL     1       9.425   1.182  21.959  0.00  0.00    +0.120 A 
ATOM      6  C   UNL     1       9.947  -0.097  22.141  0.00  0.00    +0.048 A 
ATOM      7  C   UNL     1       9.134  -1.101  22.674  0.00  0.00    +0.033 A 
ATOM      8  C   UNL     1       7.804  -0.840  23.021  0.00  0.00    +0.087 A 
ATOM      9  C   UNL     1       7.296   0.450  22.811  0.00  0.00    +0.036 A 
BRANCH   5  10
ATOM     10  O   UNL     1      10.202   2.176  21.437  0.00  0.00    -0.507 OA
ATOM     11  H   UNL     1      10.554   2.718  22.163  0.00  0.00    +0.292 HD
ENDBRANCH   5  10
ENDBRANCH   1   8
BRANCH   2  12
ATOM     12  C   UNL     1       6.794  -4.038  23.962  0.00  0.00    +0.100 A 
ATOM     13  C   UNL     1       6.860  -4.551  25.269  0.00  0.00    +0.086 A 
ATOM     14  C   UNL     1       6.020  -5.615  25.646  0.00  0.00    +0.017 A 
ATOM     15  C   UNL     1       5.131  -6.181  24.732  0.00  0.00    +0.001 A 
ATOM     16  C   UNL     1       5.074  -5.694  23.432  0.00  0.00    +0.002 A 
ATOM     17  C   UNL     1       5.903  -4.641  23.051  0.00  0.00    +0.030 A 
BRANCH  13  18
ATOM     18  C   UNL     1       7.765  -4.019  26.326  0.00  0.00    +0.339 C 
ATOM     19  O   UNL     1       8.411  -4.752  27.059  0.00  0.00    -0.245 OA
BRANCH  18  20
ATOM     20  O   UNL     1       7.889  -2.675  26.363  0.00  0.00    -0.477 OA
ATOM     21  H   UNL     1       7.435  -2.207  25.635  0.00  0.00    +0.295 HD
ENDBRANCH  18  20
ENDBRANCH  13  18
ENDBRANCH   2  12
TORSDOF 5
ENDMDL
MODEL 5
REMARK VINA RESULT:      -6.0      2.402      6.701
REMARK  Name = 
REMARK  6 active torsions:
REMARK  status: ('A' for Active; 'I' for Inactive)
REMARK    1  A    between atoms: C_1  and  C_2
REMARK    2  A    between atoms: C_4  and  N_9
REMARK    3  A    between atoms: C_7  and  O_8
REMARK    4  A    between atoms: N_10  and  C_11
REMARK    5  A    between atoms: C_16  and  C_17
REMARK    6  A    between atoms: C_17  and  O_18
REMARK                            x       y       z     vdW  Elec       q    Type
REMARK                         _______ _______ _______ _____ _____    ______ ____
ROOT
ATOM      1  N   UNL     1       7.358  -2.725  24.812  0.00  0.00    -0.149 NA
ATOM      2  N   UNL     1       7.233  -1.880  23.897  0.00  0.00    -0.148 NA
ENDROOT
BRANCH   1   8
ATOM      3  C   UNL     1       4.817  -6.690  26.424  0.00  0.00    +0.047 C 
ATOM      4  C   UNL     1       5.388  -5.873  25.303  0.00  0.00    -0.007 A 
ATOM      5  C   UNL     1       5.227  -6.255  23.969  0.00  0.00    +0.120 A 
ATOM      6  C   UNL     1       5.750  -5.483  22.933  0.00  0.00    +0.048 A 
ATOM      7  C   UNL     1       6.444  -4.309  23.235  0.00  0.00    +0.033 A 
ATOM      8  C   UNL     1       6.624  -3.901  24.563  0.00  0.00    +0.087 A 
ATOM      9  C   UNL     1       6.105  -4.704  25.588  0.00  0.00    +0.036 A 
BRANCH   5  10
ATOM     10  O   UNL     1       4.548  -7.408  23.695  0.00  0.00    -0.507 OA
ATOM     11  H   UNL     1       3.903  -7.236  22.989  0.00  0.00    +0.292 HD
ENDBRANCH   5  10
ENDBRANCH   1   8
BRANCH   2  12
ATOM     12  C   UNL     1       8.052  -0.753  24.133  0.00  0.00    +0.100 A 
ATOM     13  C   UNL     1       9.426  -0.768  23.836  0.00  0.00    +0.086 A 
ATOM     14  C   UNL     1      10.213   0.367  24.107  0.00  0.00    +0.017 A 
ATOM     15  C   UNL     1       9.648   1.505  24.684  0.00  0.00    +0.001 A 
ATOM     16  C   UNL     1       8.296   1.521  25.000  0.00  0.00    +0.002 A 
ATOM     17  C   UNL     1       7.511   0.401  24.735  0.00  0.00    +0.030 A 
BRANCH  13  18
ATOM     18  C   UNL     1      10.129  -1.924  23.214  0.00  0.00    +0.339 C 
ATOM     19  O   UNL     1      10.703  -1.837  22.140  0.00  0.00    -0.245 OA
BRANCH  18  20
ATOM     20  O   UNL     1      10.161  -3.052  23.956  0.00  0.00    -0.477 OA
ATOM     21  H   UNL     1      11.015  -3.527  23.932  0.00  0.00    +0.295 HD
ENDBRANCH  18  20
ENDBRANCH  13  18
ENDBRANCH   2  12
TORSDOF 5
ENDMDL
MODEL 6
REMARK VINA RESULT:      -5.9      2.322      6.988
REMARK  Name = 
REMARK  6 active torsions:
REMARK  status: ('A' for Active; 'I' for Inactive)
REMARK    1  A    between atoms: C_1  and  C_2
REMARK    2  A    between atoms: C_4  and  N_9
REMARK    3  A    between atoms: C_7  and  O_8
REMARK    4  A    between atoms: N_10  and  C_11
REMARK    5  A    between atoms: C_16  and  C_17
REMARK    6  A    between atoms: C_17  and  O_18
REMARK                            x       y       z     vdW  Elec       q    Type
REMARK                         _______ _______ _______ _____ _____    ______ ____
ROOT
ATOM      1  N   UNL     1       8.491  -2.478  23.721  0.00  0.00    -0.149 NA
ATOM      2  N   UNL     1       7.867  -1.427  23.993  0.00  0.00    -0.148 NA
ENDROOT
BRANCH   1   8
ATOM      3  C   UNL     1       6.176  -5.857  20.893  0.00  0.00    +0.047 C 
ATOM      4  C   UNL     1       6.464  -5.256  22.237  0.00  0.00    -0.007 A 
ATOM      5  C   UNL     1       5.885  -5.767  23.401  0.00  0.00    +0.120 A 
ATOM      6  C   UNL     1       6.168  -5.210  24.647  0.00  0.00    +0.048 A 
ATOM      7  C   UNL     1       7.045  -4.126  24.731  0.00  0.00    +0.033 A 
ATOM      8  C   UNL     1       7.639  -3.590  23.582  0.00  0.00    +0.087 A 
ATOM      9  C   UNL     1       7.324  -4.155  22.338  0.00  0.00    +0.036 A 
BRANCH   5  10
ATOM     10  O   UNL     1       5.028  -6.825  23.297  0.00  0.00    -0.507 OA
ATOM     11  H   UNL     1       5.264  -7.491  23.964  0.00  0.00    +0.292 HD
ENDBRANCH   5  10
ENDBRANCH   1   8
BRANCH   2  12
ATOM     12  C   UNL     1       8.739  -0.316  24.035  0.00  0.00    +0.100 A 
ATOM     13  C   UNL     1       8.357   0.937  23.526  0.00  0.00    +0.086 A 
ATOM     14  C   UNL     1       9.263   2.014  23.565  0.00  0.00    +0.017 A 
ATOM     15  C   UNL     1      10.545   1.848  24.090  0.00  0.00    +0.001 A 
ATOM     16  C   UNL     1      10.938   0.608  24.576  0.00  0.00    +0.002 A 
ATOM     17  C   UNL     1      10.047  -0.463  24.539  0.00  0.00    +0.030 A 
BRANCH  13  18
ATOM     18  C   UNL     1       7.014   1.226  22.951  0.00  0.00    +0.339 C 
ATOM     19  O   UNL     1       6.870   1.864  21.919  0.00  0.00    -0.245 OA
BRANCH  18  20
ATOM     20  O   UNL     1       5.971   0.666  23.600  0.00  0.00    -0.477 OA
ATOM     21  H   UNL     1       6.032   0.706  24.574  0.00  0.00    +0.295 HD
ENDBRANCH  18  20
ENDBRANCH  13  18
ENDBRANCH   2  12
TORSDOF 5
ENDMDL
MODEL 7
REMARK VINA RESULT:      -5.9      2.098      6.749
REMARK  Name = 
REMARK  6 active torsions:
REMARK  status: ('A' for Active; 'I' for Inactive)
REMARK    1  A    between atoms: C_1  and  C_2
REMARK    2  A    between atoms: C_4  and  N_9
REMARK    3  A    between atoms: C_7  and  O_8
REMARK    4  A    between atoms: N_10  and  C_11
REMARK    5  A    between atoms: C_16  and  C_17
REMARK    6  A    between atoms: C_17  and  O_18
REMARK                            x       y       z     vdW  Elec       q    Type
REMARK                         _______ _______ _______ _____ _____    ______ ____
ROOT
ATOM      1  N   UNL     1       7.625  -2.418  24.392  0.00  0.00    -0.149 NA
ATOM      2  N   UNL     1       7.383  -1.528  23.545  0.00  0.00    -0.148 NA
ENDROOT
BRANCH   1   8
ATOM      3  C   UNL     1       6.130  -5.928  21.195  0.00  0.00    +0.047 C 
ATOM      4  C   UNL     1       6.174  -5.361  22.582  0.00  0.00    -0.007 A 
ATOM      5  C   UNL     1       5.536  -5.996  23.651  0.00  0.00    +0.120 A 
ATOM      6  C   UNL     1       5.594  -5.468  24.939  0.00  0.00    +0.048 A 
ATOM      7  C   UNL     1       6.303  -4.285  25.164  0.00  0.00    +0.033 A 
ATOM      8  C   UNL     1       6.950  -3.623  24.114  0.00  0.00    +0.087 A 
ATOM      9  C   UNL     1       6.862  -4.164  22.824  0.00  0.00    +0.036 A 
BRANCH   5  10
ATOM     10  O   UNL     1       4.846  -7.149  23.408  0.00  0.00    -0.507 OA
ATOM     11  H   UNL     1       4.930  -7.737  24.177  0.00  0.00    +0.292 HD
ENDBRANCH   5  10
ENDBRANCH   1   8
BRANCH   2  12
ATOM     12  C   UNL     1       8.145  -0.366  23.801  0.00  0.00    +0.100 A 
ATOM     13  C   UNL     1       9.382  -0.145  23.171  0.00  0.00    +0.086 A 
ATOM     14  C   UNL     1      10.121   1.015  23.469  0.00  0.00    +0.017 A 
ATOM     15  C   UNL     1       9.649   1.943  24.398  0.00  0.00    +0.001 A 
ATOM     16  C   UNL     1       8.438   1.722  25.041  0.00  0.00    +0.002 A 
ATOM     17  C   UNL     1       7.700   0.575  24.751  0.00  0.00    +0.030 A 
BRANCH  13  18
ATOM     18  C   UNL     1       9.976  -1.064  22.161  0.00  0.00    +0.339 C 
ATOM     19  O   UNL     1      10.810  -1.906  22.457  0.00  0.00    -0.245 OA
BRANCH  18  20
ATOM     20  O   UNL     1       9.471  -0.961  20.913  0.00  0.00    -0.477 OA
ATOM     21  H   UNL     1       9.238  -1.816  20.500  0.00  0.00    +0.295 HD
ENDBRANCH  18  20
ENDBRANCH  13  18
ENDBRANCH   2  12
TORSDOF 5
ENDMDL
MODEL 8
REMARK VINA RESULT:      -5.9      1.614      1.844
REMARK  Name = 
REMARK  6 active torsions:
REMARK  status: ('A' for Active; 'I' for Inactive)
REMARK    1  A    between atoms: C_1  and  C_2
REMARK    2  A    between atoms: C_4  and  N_9
REMARK    3  A    between atoms: C_7  and  O_8
REMARK    4  A    between atoms: N_10  and  C_11
REMARK    5  A    between atoms: C_16  and  C_17
REMARK    6  A    between atoms: C_17  and  O_18
REMARK                            x       y       z     vdW  Elec       q    Type
REMARK                         _______ _______ _______ _____ _____    ______ ____
ROOT
ATOM      1  N   UNL     1       6.912  -1.772  23.357  0.00  0.00    -0.149 NA
ATOM      2  N   UNL     1       7.386  -2.912  23.148  0.00  0.00    -0.148 NA
ENDROOT
BRANCH   1   8
ATOM      3  C   UNL     1       7.987   3.057  22.818  0.00  0.00    +0.047 C 
ATOM      4  C   UNL     1       8.334   1.613  22.614  0.00  0.00    -0.007 A 
ATOM      5  C   UNL     1       9.513   1.231  21.970  0.00  0.00    +0.120 A 
ATOM      6  C   UNL     1       9.833  -0.115  21.796  0.00  0.00    +0.048 A 
ATOM      7  C   UNL     1       8.960  -1.095  22.275  0.00  0.00    +0.033 A 
ATOM      8  C   UNL     1       7.769  -0.744  22.921  0.00  0.00    +0.087 A 
ATOM      9  C   UNL     1       7.460   0.616  23.068  0.00  0.00    +0.036 A 
BRANCH   5  10
ATOM     10  O   UNL     1      10.351   2.205  21.506  0.00  0.00    -0.507 OA
ATOM     11  H   UNL     1       9.834   3.007  21.326  0.00  0.00    +0.292 HD
ENDBRANCH   5  10
ENDBRANCH   1   8
BRANCH   2  12
ATOM     12  C   UNL     1       6.463  -3.919  23.512  0.00  0.00    +0.100 A 
ATOM     13  C   UNL     1       6.793  -4.914  24.448  0.00  0.00    +0.086 A 
ATOM     14  C   UNL     1       5.855  -5.913  24.767  0.00  0.00    +0.017 A 
ATOM     15  C   UNL     1       4.602  -5.938  24.152  0.00  0.00    +0.001 A 
ATOM     16  C   UNL     1       4.275  -4.971  23.210  0.00  0.00    +0.002 A 
ATOM     17  C   UNL     1       5.200  -3.979  22.889  0.00  0.00    +0.030 A 
BRANCH  13  18
ATOM     18  C   UNL     1       8.095  -4.979  25.168  0.00  0.00    +0.339 C 
ATOM     19  O   UNL     1       8.164  -5.124  26.379  0.00  0.00    -0.245 OA
BRANCH  18  20
ATOM     20  O   UNL     1       9.195  -4.950  24.385  0.00  0.00    -0.477 OA
ATOM     21  H   UNL     1       9.955  -5.452  24.738  0.00  0.00    +0.295 HD
ENDBRANCH  18  20
ENDBRANCH  13  18
ENDBRANCH   2  12
TORSDOF 5
ENDMDL
MODEL 9
REMARK VINA RESULT:      -5.9      2.030      6.666
REMARK  Name = 
REMARK  6 active torsions:
REMARK  status: ('A' for Active; 'I' for Inactive)
REMARK    1  A    between atoms: C_1  and  C_2
REMARK    2  A    between atoms: C_4  and  N_9
REMARK    3  A    between atoms: C_7  and  O_8
REMARK    4  A    between atoms: N_10  and  C_11
REMARK    5  A    between atoms: C_16  and  C_17
REMARK    6  A    between atoms: C_17  and  O_18
REMARK                            x       y       z     vdW  Elec       q    Type
REMARK                         _______ _______ _______ _____ _____    ______ ____
ROOT
ATOM      1  N   UNL     1       8.435  -2.184  23.440  0.00  0.00    -0.149 NA
ATOM      2  N   UNL     1       7.763  -1.135  23.321  0.00  0.00    -0.148 NA
ENDROOT
BRANCH   1   8
ATOM      3  C   UNL     1       6.192  -5.816  20.882  0.00  0.00    +0.047 C 
ATOM      4  C   UNL     1       6.500  -5.134  22.181  0.00  0.00    -0.007 A 
ATOM      5  C   UNL     1       5.996  -5.613  23.393  0.00  0.00    +0.120 A 
ATOM      6  C   UNL     1       6.298  -4.979  24.597  0.00  0.00    +0.048 A 
ATOM      7  C   UNL     1       7.119  -3.849  24.590  0.00  0.00    +0.033 A 
ATOM      8  C   UNL     1       7.638  -3.343  23.392  0.00  0.00    +0.087 A 
ATOM      9  C   UNL     1       7.304  -3.987  22.192  0.00  0.00    +0.036 A 
BRANCH   5  10
ATOM     10  O   UNL     1       5.192  -6.717  23.377  0.00  0.00    -0.507 OA
ATOM     11  H   UNL     1       5.600  -7.414  23.917  0.00  0.00    +0.292 HD
ENDBRANCH   5  10
ENDBRANCH   1   8
BRANCH   2  12
ATOM     12  C   UNL     1       8.601   0.003  23.281  0.00  0.00    +0.100 A 
ATOM     13  C   UNL     1       8.791   0.815  24.413  0.00  0.00    +0.086 A 
ATOM     14  C   UNL     1       9.615   1.952  24.326  0.00  0.00    +0.017 A 
ATOM     15  C   UNL     1      10.236   2.293  23.124  0.00  0.00    +0.001 A 
ATOM     16  C   UNL     1      10.037   1.508  21.996  0.00  0.00    +0.002 A 
ATOM     17  C   UNL     1       9.221   0.381  22.074  0.00  0.00    +0.030 A 
BRANCH  13  18
ATOM     18  C   UNL     1       8.183   0.540  25.744  0.00  0.00    +0.339 C 
ATOM     19  O   UNL     1       7.495   1.363  26.329  0.00  0.00    -0.245 OA
BRANCH  18  20
ATOM     20  O   UNL     1       8.374  -0.707  26.225  0.00  0.00    -0.477 OA
ATOM     21  H   UNL     1       7.717  -1.363  25.919  0.00  0.00    +0.295 HD
ENDBRANCH  18  20
ENDBRANCH  13  18
ENDBRANCH   2  12
TORSDOF 5
ENDMDL
