MODEL 1
REMARK VINA RESULT:      -6.6      0.000      0.000
REMARK  Name = 
REMARK  11 active torsions:
REMARK  status: ('A' for Active; 'I' for Inactive)
REMARK    1  A    between atoms: C_2  and  C_3
REMARK    2  A    between atoms: C_2  and  O_27
REMARK    3  A    between atoms: C_2  and  C_30
REMARK    4  A    between atoms: C_3  and  C_4
REMARK    5  A    between atoms: C_7  and  O_8
REMARK    6  A    between atoms: O_8  and  C_9
REMARK    7  A    between atoms: C_9  and  C_10
REMARK    8  A    between atoms: C_10  and  N_11
REMARK    9  A    between atoms: O_27  and  C_28
REMARK   10  A    between atoms: C_28  and  C_29
REMARK   11  A    between atoms: C_30  and  O_31
REMARK                            x       y       z     vdW  Elec       q    Type
REMARK                         _______ _______ _______ _____ _____    ______ ____
ROOT
ATOM      1  O   UNL     1       6.151  -0.098  27.063  0.00  0.00    -0.490 OA
ENDROOT
BRANCH   1   5
ATOM      2  C   UNL     1       4.585  -3.633  25.370  0.00  0.00    -0.044 A 
ATOM      3  C   UNL     1       4.636  -3.434  26.759  0.00  0.00    +0.007 A 
ATOM      4  C   UNL     1       5.158  -2.245  27.304  0.00  0.00    +0.046 A 
ATOM      5  C   UNL     1       5.619  -1.227  26.471  0.00  0.00    +0.121 A 
ATOM      6  C   UNL     1       5.520  -1.413  25.082  0.00  0.00    +0.046 A 
ATOM      7  C   UNL     1       5.017  -2.594  24.547  0.00  0.00    +0.007 A 
BRANCH   2   8
ATOM      8  C   UNL     1       4.046  -4.861  24.666  0.00  0.00    +0.078 C 
BRANCH   8   9
ATOM      9  C   UNL     1       4.869  -6.151  24.712  0.00  0.00    +0.230 C 
BRANCH   9  10
ATOM     10  C   UNL     1       4.054  -7.264  25.378  0.00  0.00    +0.334 C 
ATOM     11  O   UNL     1       3.318  -8.044  24.788  0.00  0.00    -0.248 OA
BRANCH  10  12
ATOM     12  O   UNL     1       4.222  -7.276  26.727  0.00  0.00    -0.479 OA
ATOM     13  H   UNL     1       3.336  -7.119  27.130  0.00  0.00    +0.295 HD
ENDBRANCH  10  12
ENDBRANCH   9  10
BRANCH   9  14
ATOM     14  O   UNL     1       5.312  -6.618  23.424  0.00  0.00    -0.365 OA
BRANCH  14  15
ATOM     15  C   UNL     1       5.223  -5.633  22.393  0.00  0.00    +0.157 C 
ATOM     16  C   UNL     1       6.365  -5.880  21.429  0.00  0.00    +0.034 C 
ENDBRANCH  14  15
ENDBRANCH   9  14
ENDBRANCH   8   9
ENDBRANCH   2   8
ENDBRANCH   1   5
BRANCH   1  17
ATOM     17  C   UNL     1       7.338   0.351  26.391  0.00  0.00    +0.248 C 
BRANCH  17  18
ATOM     18  C   UNL     1       8.626  -0.403  26.735  0.00  0.00    +0.152 C 
BRANCH  18  19
ATOM     19  N   UNL     1       9.088  -1.158  25.537  0.00  0.00    -0.291 N 
ATOM     20  C   UNL     1       8.783  -2.543  25.467  0.00  0.00    +0.077 A 
ATOM     21  C   UNL     1       8.449  -3.339  26.575  0.00  0.00    +0.027 A 
ATOM     22  C   UNL     1       8.169  -4.707  26.435  0.00  0.00    +0.002 A 
ATOM     23  C   UNL     1       8.232  -5.316  25.188  0.00  0.00    +0.004 A 
ATOM     24  C   UNL     1       8.555  -4.553  24.073  0.00  0.00    +0.048 A 
ATOM     25  C   UNL     1       8.814  -3.184  24.214  0.00  0.00    +0.150 A 
ATOM     26  O   UNL     1       9.067  -2.516  23.039  0.00  0.00    -0.452 OA
ATOM     27  C   UNL     1       9.319  -1.165  23.114  0.00  0.00    +0.150 A 
ATOM     28  C   UNL     1       9.544  -0.541  21.881  0.00  0.00    +0.048 A 
ATOM     29  C   UNL     1       9.847   0.812  21.836  0.00  0.00    +0.004 A 
ATOM     30  C   UNL     1       9.928   1.530  23.026  0.00  0.00    +0.002 A 
ATOM     31  C   UNL     1       9.682   0.902  24.258  0.00  0.00    +0.027 A 
ATOM     32  C   UNL     1       9.351  -0.458  24.334  0.00  0.00    +0.077 A 
ENDBRANCH  18  19
ENDBRANCH  17  18
ENDBRANCH   1  17
TORSDOF 10
ENDMDL
MODEL 2
REMARK VINA RESULT:      -6.6      2.399      5.166
REMARK  Name = 
REMARK  11 active torsions:
REMARK  status: ('A' for Active; 'I' for Inactive)
REMARK    1  A    between atoms: C_2  and  C_3
REMARK    2  A    between atoms: C_2  and  O_27
REMARK    3  A    between atoms: C_2  and  C_30
REMARK    4  A    between atoms: C_3  and  C_4
REMARK    5  A    between atoms: C_7  and  O_8
REMARK    6  A    between atoms: O_8  and  C_9
REMARK    7  A    between atoms: C_9  and  C_10
REMARK    8  A    between atoms: C_10  and  N_11
REMARK    9  A    between atoms: O_27  and  C_28
REMARK   10  A    between atoms: C_28  and  C_29
REMARK   11  A    between atoms: C_30  and  O_31
REMARK                            x       y       z     vdW  Elec       q    Type
REMARK                         _______ _______ _______ _____ _____    ______ ____
ROOT
ATOM      1  O   UNL     1       5.772   1.397  25.995  0.00  0.00    -0.490 OA
ENDROOT
BRANCH   1   5
ATOM      2  C   UNL     1       7.980  -2.177  26.406  0.00  0.00    -0.044 A 
ATOM      3  C   UNL     1       8.554  -0.918  26.644  0.00  0.00    +0.007 A 
ATOM      4  C   UNL     1       7.799   0.263  26.506  0.00  0.00    +0.046 A 
ATOM      5  C   UNL     1       6.454   0.205  26.148  0.00  0.00    +0.121 A 
ATOM      6  C   UNL     1       5.873  -1.060  25.959  0.00  0.00    +0.046 A 
ATOM      7  C   UNL     1       6.625  -2.224  26.081  0.00  0.00    +0.007 A 
BRANCH   2   8
ATOM      8  C   UNL     1       8.685  -3.512  26.523  0.00  0.00    +0.078 C 
BRANCH   8   9
ATOM      9  C   UNL     1       7.984  -4.761  25.979  0.00  0.00    +0.230 C 
BRANCH   9  10
ATOM     10  C   UNL     1       8.796  -5.347  24.820  0.00  0.00    +0.334 C 
ATOM     11  O   UNL     1       8.458  -5.328  23.645  0.00  0.00    -0.248 OA
BRANCH  10  12
ATOM     12  O   UNL     1       9.949  -5.926  25.252  0.00  0.00    -0.479 OA
ATOM     13  H   UNL     1       9.812  -6.902  25.218  0.00  0.00    +0.295 HD
ENDBRANCH  10  12
ENDBRANCH   9  10
BRANCH   9  14
ATOM     14  O   UNL     1       7.770  -5.795  26.957  0.00  0.00    -0.365 OA
BRANCH  14  15
ATOM     15  C   UNL     1       6.505  -5.712  27.615  0.00  0.00    +0.157 C 
ATOM     16  C   UNL     1       5.432  -5.878  26.559  0.00  0.00    +0.034 C 
ENDBRANCH  14  15
ENDBRANCH   9  14
ENDBRANCH   8   9
ENDBRANCH   2   8
ENDBRANCH   1   5
BRANCH   1  17
ATOM     17  C   UNL     1       6.554   2.376  25.295  0.00  0.00    +0.248 C 
BRANCH  17  18
ATOM     18  C   UNL     1       6.501   2.305  23.766  0.00  0.00    +0.152 C 
BRANCH  18  19
ATOM     19  N   UNL     1       7.874   2.078  23.236  0.00  0.00    -0.291 N 
ATOM     20  C   UNL     1       8.831   3.114  23.409  0.00  0.00    +0.077 A 
ATOM     21  C   UNL     1       8.510   4.457  23.665  0.00  0.00    +0.027 A 
ATOM     22  C   UNL     1       9.507   5.432  23.814  0.00  0.00    +0.002 A 
ATOM     23  C   UNL     1      10.850   5.092  23.696  0.00  0.00    +0.004 A 
ATOM     24  C   UNL     1      11.198   3.770  23.449  0.00  0.00    +0.048 A 
ATOM     25  C   UNL     1      10.200   2.797  23.320  0.00  0.00    +0.150 A 
ATOM     26  O   UNL     1      10.660   1.514  23.134  0.00  0.00    -0.452 OA
ATOM     27  C   UNL     1       9.724   0.512  23.010  0.00  0.00    +0.150 A 
ATOM     28  C   UNL     1      10.258  -0.772  22.848  0.00  0.00    +0.048 A 
ATOM     29  C   UNL     1       9.410  -1.857  22.675  0.00  0.00    +0.004 A 
ATOM     30  C   UNL     1       8.034  -1.647  22.659  0.00  0.00    +0.002 A 
ATOM     31  C   UNL     1       7.504  -0.359  22.842  0.00  0.00    +0.027 A 
ATOM     32  C   UNL     1       8.334   0.752  23.043  0.00  0.00    +0.077 A 
ENDBRANCH  18  19
ENDBRANCH  17  18
ENDBRANCH   1  17
TORSDOF 10
ENDMDL
MODEL 3
REMARK VINA RESULT:      -6.6      2.630      7.620
REMARK  Name = 
REMARK  11 active torsions:
REMARK  status: ('A' for Active; 'I' for Inactive)
REMARK    1  A    between atoms: C_2  and  C_3
REMARK    2  A    between atoms: C_2  and  O_27
REMARK    3  A    between atoms: C_2  and  C_30
REMARK    4  A    between atoms: C_3  and  C_4
REMARK    5  A    between atoms: C_7  and  O_8
REMARK    6  A    between atoms: O_8  and  C_9
REMARK    7  A    between atoms: C_9  and  C_10
REMARK    8  A    between atoms: C_10  and  N_11
REMARK    9  A    between atoms: O_27  and  C_28
REMARK   10  A    between atoms: C_28  and  C_29
REMARK   11  A    between atoms: C_30  and  O_31
REMARK                            x       y       z     vdW  Elec       q    Type
REMARK                         _______ _______ _______ _____ _____    ______ ____
ROOT
ATOM      1  O   UNL     1      10.106  -3.363  24.177  0.00  0.00    -0.490 OA
ENDROOT
BRANCH   1   5
ATOM      2  C   UNL     1       8.670   0.111  22.258  0.00  0.00    -0.044 A 
ATOM      3  C   UNL     1       7.919  -0.563  23.234  0.00  0.00    +0.007 A 
ATOM      4  C   UNL     1       8.418  -1.718  23.866  0.00  0.00    +0.046 A 
ATOM      5  C   UNL     1       9.683  -2.207  23.549  0.00  0.00    +0.121 A 
ATOM      6  C   UNL     1      10.449  -1.501  22.608  0.00  0.00    +0.046 A 
ATOM      7  C   UNL     1       9.948  -0.369  21.974  0.00  0.00    +0.007 A 
BRANCH   2   8
ATOM      8  C   UNL     1       8.246   1.359  21.513  0.00  0.00    +0.078 C 
BRANCH   8   9
ATOM      9  C   UNL     1       8.202   2.687  22.273  0.00  0.00    +0.230 C 
BRANCH   9  10
ATOM     10  C   UNL     1       6.802   3.300  22.165  0.00  0.00    +0.334 C 
ATOM     11  O   UNL     1       5.754   2.692  22.333  0.00  0.00    -0.248 OA
BRANCH  10  12
ATOM     12  O   UNL     1       6.851   4.619  21.834  0.00  0.00    -0.479 OA
ATOM     13  H   UNL     1       7.211   4.673  20.917  0.00  0.00    +0.295 HD
ENDBRANCH  10  12
ENDBRANCH   9  10
BRANCH   9  14
ATOM     14  O   UNL     1       8.550   2.585  23.666  0.00  0.00    -0.365 OA
BRANCH  14  15
ATOM     15  C   UNL     1       9.559   3.510  24.076  0.00  0.00    +0.157 C 
ATOM     16  C   UNL     1      10.831   3.150  23.338  0.00  0.00    +0.034 C 
ENDBRANCH  14  15
ENDBRANCH   9  14
ENDBRANCH   8   9
ENDBRANCH   2   8
ENDBRANCH   1   5
BRANCH   1  17
ATOM     17  C   UNL     1       9.273  -3.701  25.296  0.00  0.00    +0.248 C 
BRANCH  17  18
ATOM     18  C   UNL     1       8.838  -5.167  25.387  0.00  0.00    +0.152 C 
BRANCH  18  19
ATOM     19  N   UNL     1       7.362  -5.254  25.208  0.00  0.00    -0.291 N 
ATOM     20  C   UNL     1       6.863  -5.435  23.890  0.00  0.00    +0.077 A 
ATOM     21  C   UNL     1       7.585  -5.143  22.721  0.00  0.00    +0.027 A 
ATOM     22  C   UNL     1       7.026  -5.337  21.449  0.00  0.00    +0.002 A 
ATOM     23  C   UNL     1       5.726  -5.811  21.314  0.00  0.00    +0.004 A 
ATOM     24  C   UNL     1       4.990  -6.114  22.452  0.00  0.00    +0.048 A 
ATOM     25  C   UNL     1       5.559  -5.938  23.720  0.00  0.00    +0.150 A 
ATOM     26  O   UNL     1       4.762  -6.322  24.773  0.00  0.00    -0.452 OA
ATOM     27  C   UNL     1       5.273  -6.182  26.044  0.00  0.00    +0.150 A 
ATOM     28  C   UNL     1       4.421  -6.613  27.068  0.00  0.00    +0.048 A 
ATOM     29  C   UNL     1       4.814  -6.485  28.393  0.00  0.00    +0.004 A 
ATOM     30  C   UNL     1       6.052  -5.920  28.683  0.00  0.00    +0.002 A 
ATOM     31  C   UNL     1       6.910  -5.507  27.650  0.00  0.00    +0.027 A 
ATOM     32  C   UNL     1       6.552  -5.645  26.301  0.00  0.00    +0.077 A 
ENDBRANCH  18  19
ENDBRANCH  17  18
ENDBRANCH   1  17
TORSDOF 10
ENDMDL
MODEL 4
REMARK VINA RESULT:      -6.5      2.904      8.279
REMARK  Name = 
REMARK  11 active torsions:
REMARK  status: ('A' for Active; 'I' for Inactive)
REMARK    1  A    between atoms: C_2  and  C_3
REMARK    2  A    between atoms: C_2  and  O_27
REMARK    3  A    between atoms: C_2  and  C_30
REMARK    4  A    between atoms: C_3  and  C_4
REMARK    5  A    between atoms: C_7  and  O_8
REMARK    6  A    between atoms: O_8  and  C_9
REMARK    7  A    between atoms: C_9  and  C_10
REMARK    8  A    between atoms: C_10  and  N_11
REMARK    9  A    between atoms: O_27  and  C_28
REMARK   10  A    between atoms: C_28  and  C_29
REMARK   11  A    between atoms: C_30  and  O_31
REMARK                            x       y       z     vdW  Elec       q    Type
REMARK                         _______ _______ _______ _____ _____    ______ ____
ROOT
ATOM      1  O   UNL     1      10.013  -3.215  24.031  0.00  0.00    -0.490 OA
ENDROOT
BRANCH   1   5
ATOM      2  C   UNL     1       9.993   0.849  22.893  0.00  0.00    -0.044 A 
ATOM      3  C   UNL     1       9.949  -0.187  21.947  0.00  0.00    +0.007 A 
ATOM      4  C   UNL     1       9.952  -1.538  22.347  0.00  0.00    +0.046 A 
ATOM      5  C   UNL     1       9.978  -1.875  23.699  0.00  0.00    +0.121 A 
ATOM      6  C   UNL     1       9.973  -0.833  24.641  0.00  0.00    +0.046 A 
ATOM      7  C   UNL     1       9.985   0.500  24.243  0.00  0.00    +0.007 A 
BRANCH   2   8
ATOM      8  C   UNL     1       9.993   2.333  22.589  0.00  0.00    +0.078 C 
BRANCH   8   9
ATOM      9  C   UNL     1       9.711   3.314  23.729  0.00  0.00    +0.230 C 
BRANCH   9  10
ATOM     10  C   UNL     1      10.627   4.535  23.601  0.00  0.00    +0.334 C 
ATOM     11  O   UNL     1      10.401   5.637  24.084  0.00  0.00    -0.248 OA
BRANCH  10  12
ATOM     12  O   UNL     1      11.733   4.262  22.858  0.00  0.00    -0.479 OA
ATOM     13  H   UNL     1      11.514   3.490  22.286  0.00  0.00    +0.295 HD
ENDBRANCH  10  12
ENDBRANCH   9  10
BRANCH   9  14
ATOM     14  O   UNL     1       8.347   3.772  23.796  0.00  0.00    -0.365 OA
BRANCH  14  15
ATOM     15  C   UNL     1       7.668   3.739  22.540  0.00  0.00    +0.157 C 
ATOM     16  C   UNL     1       7.188   5.145  22.246  0.00  0.00    +0.034 C 
ENDBRANCH  14  15
ENDBRANCH   9  14
ENDBRANCH   8   9
ENDBRANCH   2   8
ENDBRANCH   1   5
BRANCH   1  17
ATOM     17  C   UNL     1       9.172  -3.511  25.155  0.00  0.00    +0.248 C 
BRANCH  17  18
ATOM     18  C   UNL     1       8.815  -4.987  25.354  0.00  0.00    +0.152 C 
BRANCH  18  19
ATOM     19  N   UNL     1       7.347  -5.166  25.179  0.00  0.00    -0.291 N 
ATOM     20  C   UNL     1       6.858  -5.381  23.862  0.00  0.00    +0.077 A 
ATOM     21  C   UNL     1       7.557  -5.047  22.691  0.00  0.00    +0.027 A 
ATOM     22  C   UNL     1       7.009  -5.278  21.421  0.00  0.00    +0.002 A 
ATOM     23  C   UNL     1       5.741  -5.832  21.289  0.00  0.00    +0.004 A 
ATOM     24  C   UNL     1       5.028  -6.178  22.430  0.00  0.00    +0.048 A 
ATOM     25  C   UNL     1       5.587  -5.964  23.696  0.00  0.00    +0.150 A 
ATOM     26  O   UNL     1       4.818  -6.396  24.751  0.00  0.00    -0.452 OA
ATOM     27  C   UNL     1       5.322  -6.221  26.021  0.00  0.00    +0.150 A 
ATOM     28  C   UNL     1       4.501  -6.703  27.048  0.00  0.00    +0.048 A 
ATOM     29  C   UNL     1       4.887  -6.547  28.372  0.00  0.00    +0.004 A 
ATOM     30  C   UNL     1       6.088  -5.905  28.658  0.00  0.00    +0.002 A 
ATOM     31  C   UNL     1       6.916  -5.442  27.622  0.00  0.00    +0.027 A 
ATOM     32  C   UNL     1       6.565  -5.605  26.275  0.00  0.00    +0.077 A 
ENDBRANCH  18  19
ENDBRANCH  17  18
ENDBRANCH   1  17
TORSDOF 10
ENDMDL
MODEL 5
REMARK VINA RESULT:      -6.5      1.967      3.984
REMARK  Name = 
REMARK  11 active torsions:
REMARK  status: ('A' for Active; 'I' for Inactive)
REMARK    1  A    between atoms: C_2  and  C_3
REMARK    2  A    between atoms: C_2  and  O_27
REMARK    3  A    between atoms: C_2  and  C_30
REMARK    4  A    between atoms: C_3  and  C_4
REMARK    5  A    between atoms: C_7  and  O_8
REMARK    6  A    between atoms: O_8  and  C_9
REMARK    7  A    between atoms: C_9  and  C_10
REMARK    8  A    between atoms: C_10  and  N_11
REMARK    9  A    between atoms: O_27  and  C_28
REMARK   10  A    between atoms: C_28  and  C_29
REMARK   11  A    between atoms: C_30  and  O_31
REMARK                            x       y       z     vdW  Elec       q    Type
REMARK                         _______ _______ _______ _____ _____    ______ ____
ROOT
ATOM      1  O   UNL     1      10.164  -3.480  24.107  0.00  0.00    -0.490 OA
ENDROOT
BRANCH   1   5
ATOM      2  C   UNL     1       6.984  -4.563  26.663  0.00  0.00    -0.044 A 
ATOM      3  C   UNL     1       7.584  -5.486  25.791  0.00  0.00    +0.007 A 
ATOM      4  C   UNL     1       8.647  -5.106  24.949  0.00  0.00    +0.046 A 
ATOM      5  C   UNL     1       9.142  -3.804  24.979  0.00  0.00    +0.121 A 
ATOM      6  C   UNL     1       8.570  -2.899  25.888  0.00  0.00    +0.046 A 
ATOM      7  C   UNL     1       7.510  -3.273  26.708  0.00  0.00    +0.007 A 
BRANCH   2   8
ATOM      8  C   UNL     1       5.841  -4.851  27.614  0.00  0.00    +0.078 C 
BRANCH   8   9
ATOM      9  C   UNL     1       5.066  -6.161  27.453  0.00  0.00    +0.230 C 
BRANCH   9  10
ATOM     10  C   UNL     1       5.314  -7.063  28.665  0.00  0.00    +0.334 C 
ATOM     11  O   UNL     1       6.416  -7.415  29.065  0.00  0.00    -0.248 OA
BRANCH  10  12
ATOM     12  O   UNL     1       4.151  -7.459  29.249  0.00  0.00    -0.479 OA
ATOM     13  H   UNL     1       3.427  -6.932  28.836  0.00  0.00    +0.295 HD
ENDBRANCH  10  12
ENDBRANCH   9  10
BRANCH   9  14
ATOM     14  O   UNL     1       3.645  -5.994  27.291  0.00  0.00    -0.365 OA
BRANCH  14  15
ATOM     15  C   UNL     1       3.091  -6.780  26.235  0.00  0.00    +0.157 C 
ATOM     16  C   UNL     1       4.223  -7.142  25.296  0.00  0.00    +0.034 C 
ENDBRANCH  14  15
ENDBRANCH   9  14
ENDBRANCH   8   9
ENDBRANCH   2   8
ENDBRANCH   1   5
BRANCH   1  17
ATOM     17  C   UNL     1      10.065  -2.125  23.646  0.00  0.00    +0.248 C 
BRANCH  17  18
ATOM     18  C   UNL     1       9.256  -1.911  22.363  0.00  0.00    +0.152 C 
BRANCH  18  19
ATOM     19  N   UNL     1       7.833  -1.654  22.717  0.00  0.00    -0.291 N 
ATOM     20  C   UNL     1       6.937  -2.756  22.709  0.00  0.00    +0.077 A 
ATOM     21  C   UNL     1       7.168  -3.962  22.026  0.00  0.00    +0.027 A 
ATOM     22  C   UNL     1       6.234  -5.008  22.051  0.00  0.00    +0.002 A 
ATOM     23  C   UNL     1       5.038  -4.869  22.746  0.00  0.00    +0.004 A 
ATOM     24  C   UNL     1       4.785  -3.691  23.436  0.00  0.00    +0.048 A 
ATOM     25  C   UNL     1       5.728  -2.656  23.424  0.00  0.00    +0.150 A 
ATOM     26  O   UNL     1       5.399  -1.560  24.186  0.00  0.00    -0.452 OA
ATOM     27  C   UNL     1       6.295  -0.514  24.220  0.00  0.00    +0.150 A 
ATOM     28  C   UNL     1       5.910   0.560  25.033  0.00  0.00    +0.048 A 
ATOM     29  C   UNL     1       6.716   1.686  25.115  0.00  0.00    +0.004 A 
ATOM     30  C   UNL     1       7.897   1.732  24.380  0.00  0.00    +0.002 A 
ATOM     31  C   UNL     1       8.286   0.644  23.582  0.00  0.00    +0.027 A 
ATOM     32  C   UNL     1       7.505  -0.518  23.497  0.00  0.00    +0.077 A 
ENDBRANCH  18  19
ENDBRANCH  17  18
ENDBRANCH   1  17
TORSDOF 10
ENDMDL
MODEL 6
REMARK VINA RESULT:      -6.4      2.754      5.276
REMARK  Name = 
REMARK  11 active torsions:
REMARK  status: ('A' for Active; 'I' for Inactive)
REMARK    1  A    between atoms: C_2  and  C_3
REMARK    2  A    between atoms: C_2  and  O_27
REMARK    3  A    between atoms: C_2  and  C_30
REMARK    4  A    between atoms: C_3  and  C_4
REMARK    5  A    between atoms: C_7  and  O_8
REMARK    6  A    between atoms: O_8  and  C_9
REMARK    7  A    between atoms: C_9  and  C_10
REMARK    8  A    between atoms: C_10  and  N_11
REMARK    9  A    between atoms: O_27  and  C_28
REMARK   10  A    between atoms: C_28  and  C_29
REMARK   11  A    between atoms: C_30  and  O_31
REMARK                            x       y       z     vdW  Elec       q    Type
REMARK                         _______ _______ _______ _____ _____    ______ ____
ROOT
ATOM      1  O   UNL     1       6.544   2.244  26.761  0.00  0.00    -0.490 OA
ENDROOT
BRANCH   1   5
ATOM      2  C   UNL     1       7.054  -1.831  25.787  0.00  0.00    -0.044 A 
ATOM      3  C   UNL     1       8.102  -1.055  26.307  0.00  0.00    +0.007 A 
ATOM      4  C   UNL     1       7.910   0.303  26.630  0.00  0.00    +0.046 A 
ATOM      5  C   UNL     1       6.664   0.901  26.459  0.00  0.00    +0.121 A 
ATOM      6  C   UNL     1       5.608   0.106  25.985  0.00  0.00    +0.046 A 
ATOM      7  C   UNL     1       5.803  -1.230  25.653  0.00  0.00    +0.007 A 
BRANCH   2   8
ATOM      8  C   UNL     1       7.135  -3.295  25.406  0.00  0.00    +0.078 C 
BRANCH   8   9
ATOM      9  C   UNL     1       8.514  -3.910  25.154  0.00  0.00    +0.230 C 
BRANCH   9  10
ATOM     10  C   UNL     1       8.749  -5.072  26.124  0.00  0.00    +0.334 C 
ATOM     11  O   UNL     1       8.144  -5.243  27.174  0.00  0.00    -0.248 OA
BRANCH  10  12
ATOM     12  O   UNL     1       9.739  -5.899  25.694  0.00  0.00    -0.479 OA
ATOM     13  H   UNL     1      10.549  -5.348  25.587  0.00  0.00    +0.295 HD
ENDBRANCH  10  12
ENDBRANCH   9  10
BRANCH   9  14
ATOM     14  O   UNL     1       8.714  -4.389  23.811  0.00  0.00    -0.365 OA
BRANCH  14  15
ATOM     15  C   UNL     1       7.558  -4.271  22.980  0.00  0.00    +0.157 C 
ATOM     16  C   UNL     1       7.257  -5.646  22.422  0.00  0.00    +0.034 C 
ENDBRANCH  14  15
ENDBRANCH   9  14
ENDBRANCH   8   9
ENDBRANCH   2   8
ENDBRANCH   1   5
BRANCH   1  17
ATOM     17  C   UNL     1       7.519   3.039  26.070  0.00  0.00    +0.248 C 
BRANCH  17  18
ATOM     18  C   UNL     1       7.150   3.459  24.644  0.00  0.00    +0.152 C 
BRANCH  18  19
ATOM     19  N   UNL     1       8.304   3.197  23.740  0.00  0.00    -0.291 N 
ATOM     20  C   UNL     1       9.421   4.072  23.820  0.00  0.00    +0.077 A 
ATOM     21  C   UNL     1       9.379   5.364  24.367  0.00  0.00    +0.027 A 
ATOM     22  C   UNL     1      10.520   6.180  24.405  0.00  0.00    +0.002 A 
ATOM     23  C   UNL     1      11.726   5.731  23.881  0.00  0.00    +0.004 A 
ATOM     24  C   UNL     1      11.799   4.454  23.339  0.00  0.00    +0.048 A 
ATOM     25  C   UNL     1      10.663   3.636  23.321  0.00  0.00    +0.150 A 
ATOM     26  O   UNL     1      10.864   2.373  22.813  0.00  0.00    -0.452 OA
ATOM     27  C   UNL     1       9.784   1.520  22.780  0.00  0.00    +0.150 A 
ATOM     28  C   UNL     1      10.061   0.244  22.274  0.00  0.00    +0.048 A 
ATOM     29  C   UNL     1       9.041  -0.690  22.158  0.00  0.00    +0.004 A 
ATOM     30  C   UNL     1       7.750  -0.337  22.541  0.00  0.00    +0.002 A 
ATOM     31  C   UNL     1       7.483   0.938  23.066  0.00  0.00    +0.027 A 
ATOM     32  C   UNL     1       8.497   1.894  23.219  0.00  0.00    +0.077 A 
ENDBRANCH  18  19
ENDBRANCH  17  18
ENDBRANCH   1  17
TORSDOF 10
ENDMDL
MODEL 7
REMARK VINA RESULT:      -6.4      2.996      7.872
REMARK  Name = 
REMARK  11 active torsions:
REMARK  status: ('A' for Active; 'I' for Inactive)
REMARK    1  A    between atoms: C_2  and  C_3
REMARK    2  A    between atoms: C_2  and  O_27
REMARK    3  A    between atoms: C_2  and  C_30
REMARK    4  A    between atoms: C_3  and  C_4
REMARK    5  A    between atoms: C_7  and  O_8
REMARK    6  A    between atoms: O_8  and  C_9
REMARK    7  A    between atoms: C_9  and  C_10
REMARK    8  A    between atoms: C_10  and  N_11
REMARK    9  A    between atoms: O_27  and  C_28
REMARK   10  A    between atoms: C_28  and  C_29
REMARK   11  A    between atoms: C_30  and  O_31
REMARK                            x       y       z     vdW  Elec       q    Type
REMARK                         _______ _______ _______ _____ _____    ______ ____
ROOT
ATOM      1  O   UNL     1       9.589  -2.184  22.948  0.00  0.00    -0.490 OA
ENDROOT
BRANCH   1   5
ATOM      2  C   UNL     1      10.368   1.959  23.142  0.00  0.00    -0.044 A 
ATOM      3  C   UNL     1       9.790   1.364  22.009  0.00  0.00    +0.007 A 
ATOM      4  C   UNL     1       9.533  -0.020  21.966  0.00  0.00    +0.046 A 
ATOM      5  C   UNL     1       9.831  -0.829  23.060  0.00  0.00    +0.121 A 
ATOM      6  C   UNL     1      10.364  -0.220  24.208  0.00  0.00    +0.046 A 
ATOM      7  C   UNL     1      10.630   1.145  24.243  0.00  0.00    +0.007 A 
BRANCH   2   8
ATOM      8  C   UNL     1      10.688   3.430  23.309  0.00  0.00    +0.078 C 
BRANCH   8   9
ATOM      9  C   UNL     1       9.659   4.330  23.999  0.00  0.00    +0.230 C 
BRANCH   9  10
ATOM     10  C   UNL     1      10.006   5.801  23.750  0.00  0.00    +0.334 C 
ATOM     11  O   UNL     1      10.863   6.432  24.354  0.00  0.00    -0.248 OA
BRANCH  10  12
ATOM     12  O   UNL     1       9.228   6.348  22.778  0.00  0.00    -0.479 OA
ATOM     13  H   UNL     1       8.389   5.830  22.755  0.00  0.00    +0.295 HD
ENDBRANCH  10  12
ENDBRANCH   9  10
BRANCH   9  14
ATOM     14  O   UNL     1       8.299   4.105  23.582  0.00  0.00    -0.365 OA
BRANCH  14  15
ATOM     15  C   UNL     1       7.363   4.089  24.661  0.00  0.00    +0.157 C 
ATOM     16  C   UNL     1       7.771   2.974  25.600  0.00  0.00    +0.034 C 
ENDBRANCH  14  15
ENDBRANCH   9  14
ENDBRANCH   8   9
ENDBRANCH   2   8
ENDBRANCH   1   5
BRANCH   1  17
ATOM     17  C   UNL     1      10.115  -2.917  24.064  0.00  0.00    +0.248 C 
BRANCH  17  18
ATOM     18  C   UNL     1       9.094  -3.706  24.888  0.00  0.00    +0.152 C 
BRANCH  18  19
ATOM     19  N   UNL     1       7.719  -3.292  24.495  0.00  0.00    -0.291 N 
ATOM     20  C   UNL     1       6.968  -4.178  23.677  0.00  0.00    +0.077 A 
ATOM     21  C   UNL     1       7.526  -5.196  22.888  0.00  0.00    +0.027 A 
ATOM     22  C   UNL     1       6.725  -6.030  22.094  0.00  0.00    +0.002 A 
ATOM     23  C   UNL     1       5.347  -5.855  22.055  0.00  0.00    +0.004 A 
ATOM     24  C   UNL     1       4.765  -4.859  22.829  0.00  0.00    +0.048 A 
ATOM     25  C   UNL     1       5.567  -4.042  23.636  0.00  0.00    +0.150 A 
ATOM     26  O   UNL     1       4.881  -3.128  24.402  0.00  0.00    -0.452 OA
ATOM     27  C   UNL     1       5.617  -2.304  25.223  0.00  0.00    +0.150 A 
ATOM     28  C   UNL     1       4.857  -1.414  25.992  0.00  0.00    +0.048 A 
ATOM     29  C   UNL     1       5.493  -0.508  26.830  0.00  0.00    +0.004 A 
ATOM     30  C   UNL     1       6.883  -0.494  26.885  0.00  0.00    +0.002 A 
ATOM     31  C   UNL     1       7.639  -1.402  26.125  0.00  0.00    +0.027 A 
ATOM     32  C   UNL     1       7.025  -2.345  25.288  0.00  0.00    +0.077 A 
ENDBRANCH  18  19
ENDBRANCH  17  18
ENDBRANCH   1  17
TORSDOF 10
ENDMDL
MODEL 8
REMARK VINA RESULT:      -6.4      3.374      7.956
REMARK  Name = 
REMARK  11 active torsions:
REMARK  status: ('A' for Active; 'I' for Inactive)
REMARK    1  A    between atoms: C_2  and  C_3
REMARK    2  A    between atoms: C_2  and  O_27
REMARK    3  A    between atoms: C_2  and  C_30
REMARK    4  A    between atoms: C_3  and  C_4
REMARK    5  A    between atoms: C_7  and  O_8
REMARK    6  A    between atoms: O_8  and  C_9
REMARK    7  A    between atoms: C_9  and  C_10
REMARK    8  A    between atoms: C_10  and  N_11
REMARK    9  A    between atoms: O_27  and  C_28
REMARK   10  A    between atoms: C_28  and  C_29
REMARK   11  A    between atoms: C_30  and  O_31
REMARK                            x       y       z     vdW  Elec       q    Type
REMARK                         _______ _______ _______ _____ _____    ______ ____
ROOT
ATOM      1  O   UNL     1      10.524  -1.263  22.575  0.00  0.00    -0.490 OA
ENDROOT
BRANCH   1   5
ATOM      2  C   UNL     1       9.616   2.609  23.988  0.00  0.00    -0.044 A 
ATOM      3  C   UNL     1       9.810   1.527  24.861  0.00  0.00    +0.007 A 
ATOM      4  C   UNL     1      10.117   0.243  24.369  0.00  0.00    +0.046 A 
ATOM      5  C   UNL     1      10.255   0.024  23.001  0.00  0.00    +0.121 A 
ATOM      6  C   UNL     1      10.106   1.121  22.136  0.00  0.00    +0.046 A 
ATOM      7  C   UNL     1       9.789   2.385  22.623  0.00  0.00    +0.007 A 
BRANCH   2   8
ATOM      8  C   UNL     1       9.286   4.031  24.393  0.00  0.00    +0.078 C 
BRANCH   8   9
ATOM      9  C   UNL     1       9.715   5.174  23.470  0.00  0.00    +0.230 C 
BRANCH   9  10
ATOM     10  C   UNL     1       8.478   5.904  22.939  0.00  0.00    +0.334 C 
ATOM     11  O   UNL     1       8.134   7.032  23.266  0.00  0.00    -0.248 OA
BRANCH  10  12
ATOM     12  O   UNL     1       7.775   5.138  22.062  0.00  0.00    -0.479 OA
ATOM     13  H   UNL     1       7.336   5.754  21.429  0.00  0.00    +0.295 HD
ENDBRANCH  10  12
ENDBRANCH   9  10
BRANCH   9  14
ATOM     14  O   UNL     1      10.586   6.140  24.087  0.00  0.00    -0.365 OA
BRANCH  14  15
ATOM     15  C   UNL     1      11.943   5.707  24.192  0.00  0.00    +0.157 C 
ATOM     16  C   UNL     1      12.423   5.373  22.794  0.00  0.00    +0.034 C 
ENDBRANCH  14  15
ENDBRANCH   9  14
ENDBRANCH   8   9
ENDBRANCH   2   8
ENDBRANCH   1   5
BRANCH   1  17
ATOM     17  C   UNL     1       9.750  -2.237  23.290  0.00  0.00    +0.248 C 
BRANCH  17  18
ATOM     18  C   UNL     1       8.366  -2.549  22.712  0.00  0.00    +0.152 C 
BRANCH  18  19
ATOM     19  N   UNL     1       7.332  -2.306  23.755  0.00  0.00    -0.291 N 
ATOM     20  C   UNL     1       7.253  -3.223  24.837  0.00  0.00    +0.077 A 
ATOM     21  C   UNL     1       7.773  -4.527  24.812  0.00  0.00    +0.027 A 
ATOM     22  C   UNL     1       7.650  -5.386  25.915  0.00  0.00    +0.002 A 
ATOM     23  C   UNL     1       6.990  -4.967  27.064  0.00  0.00    +0.004 A 
ATOM     24  C   UNL     1       6.471  -3.680  27.121  0.00  0.00    +0.048 A 
ATOM     25  C   UNL     1       6.612  -2.820  26.025  0.00  0.00    +0.150 A 
ATOM     26  O   UNL     1       6.111  -1.554  26.211  0.00  0.00    -0.452 OA
ATOM     27  C   UNL     1       6.231  -0.660  25.170  0.00  0.00    +0.150 A 
ATOM     28  C   UNL     1       5.722   0.618  25.434  0.00  0.00    +0.048 A 
ATOM     29  C   UNL     1       5.753   1.591  24.445  0.00  0.00    +0.004 A 
ATOM     30  C   UNL     1       6.287   1.276  23.199  0.00  0.00    +0.002 A 
ATOM     31  C   UNL     1       6.813  -0.001  22.947  0.00  0.00    +0.027 A 
ATOM     32  C   UNL     1       6.818  -0.998  23.933  0.00  0.00    +0.077 A 
ENDBRANCH  18  19
ENDBRANCH  17  18
ENDBRANCH   1  17
TORSDOF 10
ENDMDL
MODEL 9
REMARK VINA RESULT:      -6.4      3.476      8.525
REMARK  Name = 
REMARK  11 active torsions:
REMARK  status: ('A' for Active; 'I' for Inactive)
REMARK    1  A    between atoms: C_2  and  C_3
REMARK    2  A    between atoms: C_2  and  O_27
REMARK    3  A    between atoms: C_2  and  C_30
REMARK    4  A    between atoms: C_3  and  C_4
REMARK    5  A    between atoms: C_7  and  O_8
REMARK    6  A    between atoms: O_8  and  C_9
REMARK    7  A    between atoms: C_9  and  C_10
REMARK    8  A    between atoms: C_10  and  N_11
REMARK    9  A    between atoms: O_27  and  C_28
REMARK   10  A    between atoms: C_28  and  C_29
REMARK   11  A    between atoms: C_30  and  O_31
REMARK                            x       y       z     vdW  Elec       q    Type
REMARK                         _______ _______ _______ _____ _____    ______ ____
ROOT
ATOM      1  O   UNL     1      10.149  -0.651  21.766  0.00  0.00    -0.490 OA
ENDROOT
BRANCH   1   5
ATOM      2  C   UNL     1       9.084   3.098  23.387  0.00  0.00    -0.044 A 
ATOM      3  C   UNL     1      10.237   2.411  23.799  0.00  0.00    +0.007 A 
ATOM      4  C   UNL     1      10.578   1.163  23.242  0.00  0.00    +0.046 A 
ATOM      5  C   UNL     1       9.784   0.590  22.251  0.00  0.00    +0.121 A 
ATOM      6  C   UNL     1       8.658   1.305  21.810  0.00  0.00    +0.046 A 
ATOM      7  C   UNL     1       8.316   2.530  22.372  0.00  0.00    +0.007 A 
BRANCH   2   8
ATOM      8  C   UNL     1       8.615   4.441  23.907  0.00  0.00    +0.078 C 
BRANCH   8   9
ATOM      9  C   UNL     1       8.852   5.683  23.043  0.00  0.00    +0.230 C 
BRANCH   9  10
ATOM     10  C   UNL     1       7.509   6.251  22.573  0.00  0.00    +0.334 C 
ATOM     11  O   UNL     1       6.597   6.598  23.311  0.00  0.00    -0.248 OA
BRANCH  10  12
ATOM     12  O   UNL     1       7.431   6.309  21.217  0.00  0.00    -0.479 OA
ATOM     13  H   UNL     1       7.331   5.383  20.894  0.00  0.00    +0.295 HD
ENDBRANCH  10  12
ENDBRANCH   9  10
BRANCH   9  14
ATOM     14  O   UNL     1       9.587   6.732  23.701  0.00  0.00    -0.365 OA
BRANCH  14  15
ATOM     15  C   UNL     1      10.498   6.260  24.694  0.00  0.00    +0.157 C 
ATOM     16  C   UNL     1      11.830   6.021  24.013  0.00  0.00    +0.034 C 
ENDBRANCH  14  15
ENDBRANCH   9  14
ENDBRANCH   8   9
ENDBRANCH   2   8
ENDBRANCH   1   5
BRANCH   1  17
ATOM     17  C   UNL     1       9.158  -1.650  22.048  0.00  0.00    +0.248 C 
BRANCH  17  18
ATOM     18  C   UNL     1       9.286  -2.356  23.401  0.00  0.00    +0.152 C 
BRANCH  18  19
ATOM     19  N   UNL     1       7.933  -2.526  23.997  0.00  0.00    -0.291 N 
ATOM     20  C   UNL     1       7.366  -1.419  24.684  0.00  0.00    +0.077 A 
ATOM     21  C   UNL     1       8.103  -0.338  25.192  0.00  0.00    +0.027 A 
ATOM     22  C   UNL     1       7.479   0.719  25.871  0.00  0.00    +0.002 A 
ATOM     23  C   UNL     1       6.104   0.714  26.073  0.00  0.00    +0.004 A 
ATOM     24  C   UNL     1       5.347  -0.340  25.576  0.00  0.00    +0.048 A 
ATOM     25  C   UNL     1       5.972  -1.384  24.883  0.00  0.00    +0.150 A 
ATOM     26  O   UNL     1       5.121  -2.343  24.387  0.00  0.00    -0.452 OA
ATOM     27  C   UNL     1       5.678  -3.390  23.686  0.00  0.00    +0.150 A 
ATOM     28  C   UNL     1       4.756  -4.319  23.189  0.00  0.00    +0.048 A 
ATOM     29  C   UNL     1       5.204  -5.436  22.499  0.00  0.00    +0.004 A 
ATOM     30  C   UNL     1       6.572  -5.619  22.318  0.00  0.00    +0.002 A 
ATOM     31  C   UNL     1       7.491  -4.674  22.803  0.00  0.00    +0.027 A 
ATOM     32  C   UNL     1       7.067  -3.523  23.483  0.00  0.00    +0.077 A 
ENDBRANCH  18  19
ENDBRANCH  17  18
ENDBRANCH   1  17
TORSDOF 10
ENDMDL
