MODEL 1
REMARK VINA RESULT:      -8.2      0.000      0.000
REMARK  Name = 
REMARK  5 active torsions:
REMARK  status: ('A' for Active; 'I' for Inactive)
REMARK    1  A    between atoms: C_1  and  O_2
REMARK    2  A    between atoms: O_2  and  C_3
REMARK    3  A    between atoms: C_5  and  C_24
REMARK    4  A    between atoms: C_8  and  C_10
REMARK    5  A    between atoms: C_14  and  C_19
REMARK                            x       y       z     vdW  Elec       q    Type
REMARK                         _______ _______ _______ _____ _____    ______ ____
ROOT
ATOM      1  C   UNL     1       6.499  -3.030  23.627  0.00  0.00    +0.047 A 
ATOM      2  N   UNL     1       7.638  -3.171  22.864  0.00  0.00    -0.354 N 
ATOM      3  H   UNL     1       8.058  -4.095  22.751  0.00  0.00    +0.166 HD
ATOM      4  C   UNL     1       8.150  -1.954  22.497  0.00  0.00    +0.047 A 
ATOM      5  C   UNL     1       7.241  -0.995  22.925  0.00  0.00    +0.001 A 
ATOM      6  C   UNL     1       7.540   0.362  22.702  0.00  0.00    +0.025 A 
ATOM      7  C   UNL     1       8.779   0.727  22.132  0.00  0.00    +0.061 A 
ATOM      8  C   UNL     1       9.657  -0.285  21.705  0.00  0.00    +0.018 A 
ATOM      9  C   UNL     1       9.348  -1.641  21.857  0.00  0.00    +0.027 A 
ATOM     10  C   UNL     1       6.175  -1.685  23.574  0.00  0.00    +0.036 A 
ENDROOT
BRANCH   1  13
ATOM     11  C   UNL     1       6.132  -5.734  26.217  0.00  0.00    +0.121 A 
ATOM     12  C   UNL     1       6.568  -4.631  25.505  0.00  0.00    +0.055 A 
ATOM     13  C   UNL     1       5.913  -4.207  24.333  0.00  0.00    -0.005 A 
ATOM     14  C   UNL     1       4.764  -4.927  23.801  0.00  0.00    -0.091 A 
ATOM     15  O   UNL     1       4.194  -4.566  22.703  0.00  0.00    -0.873 OA
ATOM     16  C   UNL     1       4.328  -6.078  24.566  0.00  0.00    -0.022 A 
ATOM     17  C   UNL     1       5.024  -6.432  25.759  0.00  0.00    +0.053 A 
BRANCH  16  18
ATOM     18  C   UNL     1       3.165  -6.968  24.170  0.00  0.00    -0.018 A 
ATOM     19  C   UNL     1       2.780  -8.073  24.963  0.00  0.00    +0.008 A 
ATOM     20  C   UNL     1       1.670  -8.869  24.649  0.00  0.00    +0.001 A 
ATOM     21  C   UNL     1       0.927  -8.607  23.504  0.00  0.00    +0.000 A 
ATOM     22  C   UNL     1       1.294  -7.546  22.684  0.00  0.00    +0.001 A 
ATOM     23  C   UNL     1       2.384  -6.733  23.026  0.00  0.00    +0.008 A 
ENDBRANCH  16  18
BRANCH  11  25
ATOM     24  C   UNL     1       6.191  -6.116  28.554  0.00  0.00    +0.277 C 
ATOM     25  O   UNL     1       6.887  -6.058  27.314  0.00  0.00    -0.495 OA
ENDBRANCH  11  25
ENDBRANCH   1  13
BRANCH   7  26
ATOM     26  C   UNL     1       9.163   2.146  22.040  0.00  0.00    +0.266 C 
ATOM     27  N   UNL     1       8.250   3.089  22.136  0.00  0.00    -0.288 N 
ATOM     28  H   UNL     1       8.472   4.070  22.059  0.00  0.00    +0.301 HD
ATOM     29  H   UNL     1       7.282   2.839  22.305  0.00  0.00    +0.301 HD
ATOM     30  N   UNL     1      10.426   2.469  21.846  0.00  0.00    -0.250 N 
ATOM     31  H   UNL     1      10.743   3.425  21.781  0.00  0.00    +0.288 HD
ATOM     32  H   UNL     1      11.118   1.738  21.720  0.00  0.00    +0.288 HD
ENDBRANCH   7  26
TORSDOF 4
ENDMDL
MODEL 2
REMARK VINA RESULT:      -8.0      2.843      4.430
REMARK  Name = 
REMARK  5 active torsions:
REMARK  status: ('A' for Active; 'I' for Inactive)
REMARK    1  A    between atoms: C_1  and  O_2
REMARK    2  A    between atoms: O_2  and  C_3
REMARK    3  A    between atoms: C_5  and  C_24
REMARK    4  A    between atoms: C_8  and  C_10
REMARK    5  A    between atoms: C_14  and  C_19
REMARK                            x       y       z     vdW  Elec       q    Type
REMARK                         _______ _______ _______ _____ _____    ______ ____
ROOT
ATOM      1  C   UNL     1       8.546  -1.245  24.513  0.00  0.00    +0.047 A 
ATOM      2  N   UNL     1       7.867  -0.246  25.178  0.00  0.00    -0.354 N 
ATOM      3  H   UNL     1       6.995  -0.464  25.661  0.00  0.00    +0.166 HD
ATOM      4  C   UNL     1       8.417   0.984  24.929  0.00  0.00    +0.047 A 
ATOM      5  C   UNL     1       9.568   0.762  24.184  0.00  0.00    +0.001 A 
ATOM      6  C   UNL     1      10.319   1.874  23.759  0.00  0.00    +0.025 A 
ATOM      7  C   UNL     1       9.854   3.181  24.019  0.00  0.00    +0.061 A 
ATOM      8  C   UNL     1       8.689   3.349  24.788  0.00  0.00    +0.018 A 
ATOM      9  C   UNL     1       7.965   2.256  25.277  0.00  0.00    +0.027 A 
ATOM     10  C   UNL     1       9.676  -0.646  23.985  0.00  0.00    +0.036 A 
ENDROOT
BRANCH   1  13
ATOM     11  C   UNL     1       7.443  -4.510  23.003  0.00  0.00    +0.121 A 
ATOM     12  C   UNL     1       7.976  -3.247  23.184  0.00  0.00    +0.055 A 
ATOM     13  C   UNL     1       7.981  -2.625  24.448  0.00  0.00    -0.005 A 
ATOM     14  C   UNL     1       7.399  -3.272  25.616  0.00  0.00    -0.091 A 
ATOM     15  O   UNL     1       7.362  -2.684  26.762  0.00  0.00    -0.873 OA
ATOM     16  C   UNL     1       6.847  -4.594  25.399  0.00  0.00    -0.022 A 
ATOM     17  C   UNL     1       6.903  -5.172  24.096  0.00  0.00    +0.053 A 
BRANCH  16  18
ATOM     18  C   UNL     1       6.182  -5.424  26.481  0.00  0.00    -0.018 A 
ATOM     19  C   UNL     1       6.800  -5.631  27.735  0.00  0.00    +0.008 A 
ATOM     20  C   UNL     1       6.175  -6.340  28.770  0.00  0.00    +0.001 A 
ATOM     21  C   UNL     1       4.920  -6.901  28.569  0.00  0.00    +0.000 A 
ATOM     22  C   UNL     1       4.293  -6.743  27.338  0.00  0.00    +0.001 A 
ATOM     23  C   UNL     1       4.911  -6.001  26.321  0.00  0.00    +0.008 A 
ENDBRANCH  16  18
BRANCH  11  25
ATOM     24  C   UNL     1       6.272  -5.601  21.257  0.00  0.00    +0.277 C 
ATOM     25  O   UNL     1       7.466  -4.976  21.715  0.00  0.00    -0.495 OA
ENDBRANCH  11  25
ENDBRANCH   1  13
BRANCH   7  26
ATOM     26  C   UNL     1      10.550   4.344  23.443  0.00  0.00    +0.266 C 
ATOM     27  N   UNL     1      11.789   4.231  23.012  0.00  0.00    -0.288 N 
ATOM     28  H   UNL     1      12.304   5.009  22.630  0.00  0.00    +0.301 HD
ATOM     29  H   UNL     1      12.256   3.331  23.049  0.00  0.00    +0.301 HD
ATOM     30  N   UNL     1       9.932   5.506  23.372  0.00  0.00    -0.250 N 
ATOM     31  H   UNL     1      10.361   6.332  22.983  0.00  0.00    +0.288 HD
ATOM     32  H   UNL     1       8.996   5.601  23.753  0.00  0.00    +0.288 HD
ENDBRANCH   7  26
TORSDOF 4
ENDMDL
MODEL 3
REMARK VINA RESULT:      -7.9      3.945      5.322
REMARK  Name = 
REMARK  5 active torsions:
REMARK  status: ('A' for Active; 'I' for Inactive)
REMARK    1  A    between atoms: C_1  and  O_2
REMARK    2  A    between atoms: O_2  and  C_3
REMARK    3  A    between atoms: C_5  and  C_24
REMARK    4  A    between atoms: C_8  and  C_10
REMARK    5  A    between atoms: C_14  and  C_19
REMARK                            x       y       z     vdW  Elec       q    Type
REMARK                         _______ _______ _______ _____ _____    ______ ____
ROOT
ATOM      1  C   UNL     1       8.407   1.072  24.333  0.00  0.00    +0.047 A 
ATOM      2  N   UNL     1       7.979   2.338  24.672  0.00  0.00    -0.354 N 
ATOM      3  H   UNL     1       7.007   2.485  24.947  0.00  0.00    +0.166 HD
ATOM      4  C   UNL     1       8.940   3.278  24.409  0.00  0.00    +0.047 A 
ATOM      5  C   UNL     1      10.076   2.585  24.010  0.00  0.00    +0.001 A 
ATOM      6  C   UNL     1      11.219   3.322  23.643  0.00  0.00    +0.025 A 
ATOM      7  C   UNL     1      11.168   4.732  23.607  0.00  0.00    +0.061 A 
ATOM      8  C   UNL     1       9.997   5.383  24.034  0.00  0.00    +0.018 A 
ATOM      9  C   UNL     1       8.874   4.670  24.466  0.00  0.00    +0.027 A 
ATOM     10  C   UNL     1       9.751   1.197  24.029  0.00  0.00    +0.036 A 
ENDROOT
BRANCH   1  13
ATOM     11  C   UNL     1       5.382  -0.977  25.235  0.00  0.00    +0.121 A 
ATOM     12  C   UNL     1       6.319   0.038  25.151  0.00  0.00    +0.055 A 
ATOM     13  C   UNL     1       7.443  -0.068  24.309  0.00  0.00    -0.005 A 
ATOM     14  C   UNL     1       7.686  -1.261  23.510  0.00  0.00    -0.091 A 
ATOM     15  O   UNL     1       8.738  -1.376  22.775  0.00  0.00    -0.873 OA
ATOM     16  C   UNL     1       6.689  -2.307  23.616  0.00  0.00    -0.022 A 
ATOM     17  C   UNL     1       5.562  -2.119  24.469  0.00  0.00    +0.053 A 
BRANCH  16  18
ATOM     18  C   UNL     1       6.768  -3.631  22.880  0.00  0.00    -0.018 A 
ATOM     19  C   UNL     1       7.553  -4.701  23.369  0.00  0.00    +0.008 A 
ATOM     20  C   UNL     1       7.589  -5.952  22.739  0.00  0.00    +0.001 A 
ATOM     21  C   UNL     1       6.868  -6.164  21.571  0.00  0.00    +0.000 A 
ATOM     22  C   UNL     1       6.107  -5.126  21.043  0.00  0.00    +0.001 A 
ATOM     23  C   UNL     1       6.048  -3.889  21.700  0.00  0.00    +0.008 A 
ENDBRANCH  16  18
BRANCH  11  25
ATOM     24  C   UNL     1       4.385  -1.555  27.304  0.00  0.00    +0.277 C 
ATOM     25  O   UNL     1       4.363  -0.759  26.124  0.00  0.00    -0.495 OA
ENDBRANCH  11  25
ENDBRANCH   1  13
BRANCH   7  26
ATOM     26  C   UNL     1      12.306   5.501  23.076  0.00  0.00    +0.266 C 
ATOM     27  N   UNL     1      12.699   5.333  21.831  0.00  0.00    -0.288 N 
ATOM     28  H   UNL     1      13.485   5.827  21.438  0.00  0.00    +0.301 HD
ATOM     29  H   UNL     1      12.196   4.694  21.226  0.00  0.00    +0.301 HD
ATOM     30  N   UNL     1      12.941   6.351  23.857  0.00  0.00    -0.250 N 
ATOM     31  H   UNL     1      13.724   6.906  23.543  0.00  0.00    +0.288 HD
ATOM     32  H   UNL     1      12.669   6.439  24.832  0.00  0.00    +0.288 HD
ENDBRANCH   7  26
TORSDOF 4
ENDMDL
MODEL 4
REMARK VINA RESULT:      -7.8      4.010     10.276
REMARK  Name = 
REMARK  5 active torsions:
REMARK  status: ('A' for Active; 'I' for Inactive)
REMARK    1  A    between atoms: C_1  and  O_2
REMARK    2  A    between atoms: O_2  and  C_3
REMARK    3  A    between atoms: C_5  and  C_24
REMARK    4  A    between atoms: C_8  and  C_10
REMARK    5  A    between atoms: C_14  and  C_19
REMARK                            x       y       z     vdW  Elec       q    Type
REMARK                         _______ _______ _______ _____ _____    ______ ____
ROOT
ATOM      1  C   UNL     1       8.013  -0.312  24.170  0.00  0.00    +0.047 A 
ATOM      2  N   UNL     1       7.491  -1.238  23.292  0.00  0.00    -0.354 N 
ATOM      3  H   UNL     1       7.189  -0.938  22.364  0.00  0.00    +0.166 HD
ATOM      4  C   UNL     1       7.293  -2.450  23.900  0.00  0.00    +0.047 A 
ATOM      5  C   UNL     1       7.827  -2.344  25.179  0.00  0.00    +0.001 A 
ATOM      6  C   UNL     1       7.728  -3.452  26.042  0.00  0.00    +0.025 A 
ATOM      7  C   UNL     1       7.025  -4.606  25.632  0.00  0.00    +0.061 A 
ATOM      8  C   UNL     1       6.516  -4.664  24.322  0.00  0.00    +0.018 A 
ATOM      9  C   UNL     1       6.663  -3.599  23.427  0.00  0.00    +0.027 A 
ATOM     10  C   UNL     1       8.336  -1.020  25.315  0.00  0.00    +0.036 A 
ENDROOT
BRANCH   1  13
ATOM     11  C   UNL     1       6.954   2.969  22.663  0.00  0.00    +0.121 A 
ATOM     12  C   UNL     1       6.978   1.654  23.095  0.00  0.00    +0.055 A 
ATOM     13  C   UNL     1       8.083   1.130  23.791  0.00  0.00    -0.005 A 
ATOM     14  C   UNL     1       9.263   1.938  24.065  0.00  0.00    -0.091 A 
ATOM     15  O   UNL     1      10.293   1.445  24.662  0.00  0.00    -0.873 OA
ATOM     16  C   UNL     1       9.212   3.311  23.603  0.00  0.00    -0.022 A 
ATOM     17  C   UNL     1       8.047   3.780  22.928  0.00  0.00    +0.053 A 
BRANCH  16  18
ATOM     18  C   UNL     1      10.344   4.306  23.774  0.00  0.00    -0.018 A 
ATOM     19  C   UNL     1      11.629   4.060  23.238  0.00  0.00    +0.008 A 
ATOM     20  C   UNL     1      12.670   4.994  23.330  0.00  0.00    +0.001 A 
ATOM     21  C   UNL     1      12.469   6.196  23.997  0.00  0.00    +0.000 A 
ATOM     22  C   UNL     1      11.227   6.460  24.563  0.00  0.00    +0.001 A 
ATOM     23  C   UNL     1      10.181   5.536  24.435  0.00  0.00    +0.008 A 
ENDBRANCH  16  18
BRANCH  11  25
ATOM     24  C   UNL     1       4.609   3.303  22.685  0.00  0.00    +0.277 C 
ATOM     25  O   UNL     1       5.835   3.334  21.962  0.00  0.00    -0.495 OA
ENDBRANCH  11  25
ENDBRANCH   1  13
BRANCH   7  26
ATOM     26  C   UNL     1       6.784  -5.704  26.583  0.00  0.00    +0.266 C 
ATOM     27  N   UNL     1       7.678  -5.994  27.504  0.00  0.00    -0.288 N 
ATOM     28  H   UNL     1       7.557  -6.750  28.160  0.00  0.00    +0.301 HD
ATOM     29  H   UNL     1       8.524  -5.439  27.579  0.00  0.00    +0.301 HD
ATOM     30  N   UNL     1       5.672  -6.406  26.501  0.00  0.00    -0.250 N 
ATOM     31  H   UNL     1       5.455  -7.165  27.130  0.00  0.00    +0.288 HD
ATOM     32  H   UNL     1       5.009  -6.213  25.757  0.00  0.00    +0.288 HD
ENDBRANCH   7  26
TORSDOF 4
ENDMDL
MODEL 5
REMARK VINA RESULT:      -7.8      4.655      9.939
REMARK  Name = 
REMARK  5 active torsions:
REMARK  status: ('A' for Active; 'I' for Inactive)
REMARK    1  A    between atoms: C_1  and  O_2
REMARK    2  A    between atoms: O_2  and  C_3
REMARK    3  A    between atoms: C_5  and  C_24
REMARK    4  A    between atoms: C_8  and  C_10
REMARK    5  A    between atoms: C_14  and  C_19
REMARK                            x       y       z     vdW  Elec       q    Type
REMARK                         _______ _______ _______ _____ _____    ______ ____
ROOT
ATOM      1  C   UNL     1       9.453   0.494  23.719  0.00  0.00    +0.047 A 
ATOM      2  N   UNL     1       8.707  -0.268  22.845  0.00  0.00    -0.354 N 
ATOM      3  H   UNL     1       8.197   0.188  22.087  0.00  0.00    +0.166 HD
ATOM      4  C   UNL     1       8.630  -1.572  23.257  0.00  0.00    +0.047 A 
ATOM      5  C   UNL     1       9.461  -1.689  24.364  0.00  0.00    +0.001 A 
ATOM      6  C   UNL     1       9.545  -2.935  25.014  0.00  0.00    +0.025 A 
ATOM      7  C   UNL     1       8.732  -4.008  24.589  0.00  0.00    +0.061 A 
ATOM      8  C   UNL     1       7.917  -3.840  23.456  0.00  0.00    +0.018 A 
ATOM      9  C   UNL     1       7.871  -2.629  22.755  0.00  0.00    +0.027 A 
ATOM     10  C   UNL     1      10.025  -0.402  24.605  0.00  0.00    +0.036 A 
ENDROOT
BRANCH   1  13
ATOM     11  C   UNL     1      10.865   3.974  23.484  0.00  0.00    +0.121 A 
ATOM     12  C   UNL     1      10.734   2.598  23.559  0.00  0.00    +0.055 A 
ATOM     13  C   UNL     1       9.469   1.982  23.597  0.00  0.00    -0.005 A 
ATOM     14  C   UNL     1       8.241   2.764  23.588  0.00  0.00    -0.091 A 
ATOM     15  O   UNL     1       7.084   2.201  23.670  0.00  0.00    -0.873 OA
ATOM     16  C   UNL     1       8.406   4.201  23.509  0.00  0.00    -0.022 A 
ATOM     17  C   UNL     1       9.719   4.754  23.446  0.00  0.00    +0.053 A 
BRANCH  16  18
ATOM     18  C   UNL     1       7.254   5.188  23.507  0.00  0.00    -0.018 A 
ATOM     19  C   UNL     1       6.921   5.929  22.350  0.00  0.00    +0.008 A 
ATOM     20  C   UNL     1       5.822   6.798  22.307  0.00  0.00    +0.001 A 
ATOM     21  C   UNL     1       5.039   6.984  23.440  0.00  0.00    +0.000 A 
ATOM     22  C   UNL     1       5.353   6.295  24.606  0.00  0.00    +0.001 A 
ATOM     23  C   UNL     1       6.433   5.401  24.628  0.00  0.00    +0.008 A 
ENDBRANCH  16  18
BRANCH  11  25
ATOM     24  C   UNL     1      12.318   5.805  23.867  0.00  0.00    +0.277 C 
ATOM     25  O   UNL     1      12.153   4.440  23.496  0.00  0.00    -0.495 OA
ENDBRANCH  11  25
ENDBRANCH   1  13
BRANCH   7  26
ATOM     26  C   UNL     1       8.699  -5.263  25.360  0.00  0.00    +0.266 C 
ATOM     27  N   UNL     1       7.592  -5.644  25.962  0.00  0.00    -0.288 N 
ATOM     28  H   UNL     1       7.536  -6.486  26.514  0.00  0.00    +0.301 HD
ATOM     29  H   UNL     1       6.750  -5.087  25.869  0.00  0.00    +0.301 HD
ATOM     30  N   UNL     1       9.787  -5.998  25.457  0.00  0.00    -0.250 N 
ATOM     31  H   UNL     1       9.818  -6.868  25.969  0.00  0.00    +0.288 HD
ATOM     32  H   UNL     1      10.653  -5.674  25.036  0.00  0.00    +0.288 HD
ENDBRANCH   7  26
TORSDOF 4
ENDMDL
MODEL 6
REMARK VINA RESULT:      -7.6      2.579      4.027
REMARK  Name = 
REMARK  5 active torsions:
REMARK  status: ('A' for Active; 'I' for Inactive)
REMARK    1  A    between atoms: C_1  and  O_2
REMARK    2  A    between atoms: O_2  and  C_3
REMARK    3  A    between atoms: C_5  and  C_24
REMARK    4  A    between atoms: C_8  and  C_10
REMARK    5  A    between atoms: C_14  and  C_19
REMARK                            x       y       z     vdW  Elec       q    Type
REMARK                         _______ _______ _______ _____ _____    ______ ____
ROOT
ATOM      1  C   UNL     1       7.767  -2.021  23.890  0.00  0.00    +0.047 A 
ATOM      2  N   UNL     1       9.070  -1.829  24.300  0.00  0.00    -0.354 N 
ATOM      3  H   UNL     1       9.550  -2.566  24.817  0.00  0.00    +0.166 HD
ATOM      4  C   UNL     1       9.479  -0.539  24.081  0.00  0.00    +0.047 A 
ATOM      5  C   UNL     1       8.454   0.091  23.387  0.00  0.00    +0.001 A 
ATOM      6  C   UNL     1       8.601   1.452  23.058  0.00  0.00    +0.025 A 
ATOM      7  C   UNL     1       9.733   2.167  23.505  0.00  0.00    +0.061 A 
ATOM      8  C   UNL     1      10.747   1.477  24.194  0.00  0.00    +0.018 A 
ATOM      9  C   UNL     1      10.650   0.109  24.471  0.00  0.00    +0.027 A 
ATOM     10  C   UNL     1       7.412  -0.867  23.213  0.00  0.00    +0.036 A 
ENDROOT
BRANCH   1  13
ATOM     11  C   UNL     1       5.898  -5.249  23.399  0.00  0.00    +0.121 A 
ATOM     12  C   UNL     1       6.611  -4.084  23.180  0.00  0.00    +0.055 A 
ATOM     13  C   UNL     1       7.041  -3.274  24.249  0.00  0.00    -0.005 A 
ATOM     14  C   UNL     1       6.731  -3.611  25.632  0.00  0.00    -0.091 A 
ATOM     15  O   UNL     1       7.085  -2.846  26.607  0.00  0.00    -0.873 OA
ATOM     16  C   UNL     1       5.983  -4.836  25.832  0.00  0.00    -0.022 A 
ATOM     17  C   UNL     1       5.604  -5.620  24.703  0.00  0.00    +0.053 A 
BRANCH  16  18
ATOM     18  C   UNL     1       5.547  -5.350  27.191  0.00  0.00    -0.018 A 
ATOM     19  C   UNL     1       4.194  -5.299  27.599  0.00  0.00    +0.008 A 
ATOM     20  C   UNL     1       3.760  -5.826  28.823  0.00  0.00    +0.001 A 
ATOM     21  C   UNL     1       4.677  -6.391  29.701  0.00  0.00    +0.000 A 
ATOM     22  C   UNL     1       6.021  -6.433  29.347  0.00  0.00    +0.001 A 
ATOM     23  C   UNL     1       6.440  -5.935  28.105  0.00  0.00    +0.008 A 
ENDBRANCH  16  18
BRANCH  11  25
ATOM     24  C   UNL     1       6.307  -5.700  21.110  0.00  0.00    +0.277 C 
ATOM     25  O   UNL     1       5.507  -5.916  22.268  0.00  0.00    -0.495 OA
ENDBRANCH  11  25
ENDBRANCH   1  13
BRANCH   7  26
ATOM     26  C   UNL     1       9.819   3.623  23.300  0.00  0.00    +0.266 C 
ATOM     27  N   UNL     1       8.736   4.320  23.028  0.00  0.00    -0.288 N 
ATOM     28  H   UNL     1       8.758   5.315  22.862  0.00  0.00    +0.301 HD
ATOM     29  H   UNL     1       7.834   3.858  22.989  0.00  0.00    +0.301 HD
ATOM     30  N   UNL     1      10.988   4.225  23.377  0.00  0.00    -0.250 N 
ATOM     31  H   UNL     1      11.101   5.220  23.250  0.00  0.00    +0.288 HD
ATOM     32  H   UNL     1      11.827   3.677  23.536  0.00  0.00    +0.288 HD
ENDBRANCH   7  26
TORSDOF 4
ENDMDL
MODEL 7
REMARK VINA RESULT:      -7.6      3.140      8.662
REMARK  Name = 
REMARK  5 active torsions:
REMARK  status: ('A' for Active; 'I' for Inactive)
REMARK    1  A    between atoms: C_1  and  O_2
REMARK    2  A    between atoms: O_2  and  C_3
REMARK    3  A    between atoms: C_5  and  C_24
REMARK    4  A    between atoms: C_8  and  C_10
REMARK    5  A    between atoms: C_14  and  C_19
REMARK                            x       y       z     vdW  Elec       q    Type
REMARK                         _______ _______ _______ _____ _____    ______ ____
ROOT
ATOM      1  C   UNL     1       5.750  -4.063  23.387  0.00  0.00    +0.047 A 
ATOM      2  N   UNL     1       4.679  -3.602  24.123  0.00  0.00    -0.354 N 
ATOM      3  H   UNL     1       4.804  -2.807  24.751  0.00  0.00    +0.166 HD
ATOM      4  C   UNL     1       3.598  -4.436  24.012  0.00  0.00    +0.047 A 
ATOM      5  C   UNL     1       3.935  -5.400  23.069  0.00  0.00    +0.001 A 
ATOM      6  C   UNL     1       3.003  -6.416  22.783  0.00  0.00    +0.025 A 
ATOM      7  C   UNL     1       1.794  -6.487  23.507  0.00  0.00    +0.061 A 
ATOM      8  C   UNL     1       1.497  -5.479  24.441  0.00  0.00    +0.018 A 
ATOM      9  C   UNL     1       2.381  -4.424  24.691  0.00  0.00    +0.027 A 
ATOM     10  C   UNL     1       5.263  -5.118  22.634  0.00  0.00    +0.036 A 
ENDROOT
BRANCH   1  13
ATOM     11  C   UNL     1       9.390  -3.790  24.302  0.00  0.00    +0.121 A 
ATOM     12  C   UNL     1       8.112  -4.271  24.074  0.00  0.00    +0.055 A 
ATOM     13  C   UNL     1       7.099  -3.446  23.551  0.00  0.00    -0.005 A 
ATOM     14  C   UNL     1       7.341  -2.041  23.250  0.00  0.00    -0.091 A 
ATOM     15  O   UNL     1       6.402  -1.275  22.814  0.00  0.00    -0.873 OA
ATOM     16  C   UNL     1       8.687  -1.564  23.497  0.00  0.00    -0.022 A 
ATOM     17  C   UNL     1       9.669  -2.465  24.004  0.00  0.00    +0.053 A 
BRANCH  16  18
ATOM     18  C   UNL     1       9.134  -0.133  23.267  0.00  0.00    -0.018 A 
ATOM     19  C   UNL     1       9.344   0.757  24.346  0.00  0.00    +0.008 A 
ATOM     20  C   UNL     1       9.818   2.062  24.158  0.00  0.00    +0.001 A 
ATOM     21  C   UNL     1      10.064   2.536  22.876  0.00  0.00    +0.000 A 
ATOM     22  C   UNL     1       9.841   1.699  21.788  0.00  0.00    +0.001 A 
ATOM     23  C   UNL     1       9.401   0.383  21.987  0.00  0.00    +0.008 A 
ENDBRANCH  16  18
BRANCH  11  25
ATOM     24  C   UNL     1       9.860  -5.274  26.087  0.00  0.00    +0.277 C 
ATOM     25  O   UNL     1      10.264  -4.690  24.853  0.00  0.00    -0.495 OA
ENDBRANCH  11  25
ENDBRANCH   1  13
BRANCH   7  26
ATOM     26  C   UNL     1       0.887  -7.634  23.324  0.00  0.00    +0.266 C 
ATOM     27  N   UNL     1       0.508  -7.995  22.116  0.00  0.00    -0.288 N 
ATOM     28  H   UNL     1      -0.127  -8.761  21.953  0.00  0.00    +0.301 HD
ATOM     29  H   UNL     1       0.866  -7.501  21.306  0.00  0.00    +0.301 HD
ATOM     30  N   UNL     1       0.444  -8.291  24.376  0.00  0.00    -0.250 N 
ATOM     31  H   UNL     1      -0.175  -9.085  24.307  0.00  0.00    +0.288 HD
ATOM     32  H   UNL     1       0.697  -7.977  25.309  0.00  0.00    +0.288 HD
ENDBRANCH   7  26
TORSDOF 4
ENDMDL
MODEL 8
REMARK VINA RESULT:      -7.6      3.646     10.064
REMARK  Name = 
REMARK  5 active torsions:
REMARK  status: ('A' for Active; 'I' for Inactive)
REMARK    1  A    between atoms: C_1  and  O_2
REMARK    2  A    between atoms: O_2  and  C_3
REMARK    3  A    between atoms: C_5  and  C_24
REMARK    4  A    between atoms: C_8  and  C_10
REMARK    5  A    between atoms: C_14  and  C_19
REMARK                            x       y       z     vdW  Elec       q    Type
REMARK                         _______ _______ _______ _____ _____    ______ ____
ROOT
ATOM      1  C   UNL     1       7.082  -0.107  23.750  0.00  0.00    +0.047 A 
ATOM      2  N   UNL     1       7.929  -1.009  23.142  0.00  0.00    -0.354 N 
ATOM      3  H   UNL     1       8.720  -0.668  22.595  0.00  0.00    +0.166 HD
ATOM      4  C   UNL     1       7.449  -2.289  23.236  0.00  0.00    +0.047 A 
ATOM      5  C   UNL     1       6.320  -2.231  24.044  0.00  0.00    +0.001 A 
ATOM      6  C   UNL     1       5.603  -3.419  24.283  0.00  0.00    +0.025 A 
ATOM      7  C   UNL     1       5.986  -4.616  23.639  0.00  0.00    +0.061 A 
ATOM      8  C   UNL     1       7.143  -4.621  22.841  0.00  0.00    +0.018 A 
ATOM      9  C   UNL     1       7.908  -3.465  22.647  0.00  0.00    +0.027 A 
ATOM     10  C   UNL     1       6.137  -0.867  24.416  0.00  0.00    +0.036 A 
ENDROOT
BRANCH   1  13
ATOM     11  C   UNL     1       6.271   3.450  22.827  0.00  0.00    +0.121 A 
ATOM     12  C   UNL     1       6.183   2.091  23.073  0.00  0.00    +0.055 A 
ATOM     13  C   UNL     1       7.283   1.360  23.562  0.00  0.00    -0.005 A 
ATOM     14  C   UNL     1       8.571   1.995  23.804  0.00  0.00    -0.091 A 
ATOM     15  O   UNL     1       9.590   1.317  24.208  0.00  0.00    -0.873 OA
ATOM     16  C   UNL     1       8.636   3.418  23.539  0.00  0.00    -0.022 A 
ATOM     17  C   UNL     1       7.473   4.098  23.071  0.00  0.00    +0.053 A 
BRANCH  16  18
ATOM     18  C   UNL     1       9.888   4.257  23.711  0.00  0.00    -0.018 A 
ATOM     19  C   UNL     1      11.142   3.817  23.228  0.00  0.00    +0.008 A 
ATOM     20  C   UNL     1      12.298   4.604  23.320  0.00  0.00    +0.001 A 
ATOM     21  C   UNL     1      12.245   5.848  23.935  0.00  0.00    +0.000 A 
ATOM     22  C   UNL     1      11.035   6.302  24.449  0.00  0.00    +0.001 A 
ATOM     23  C   UNL     1       9.877   5.524  24.320  0.00  0.00    +0.008 A 
ENDBRANCH  16  18
BRANCH  11  25
ATOM     24  C   UNL     1       3.906   3.425  22.697  0.00  0.00    +0.277 C 
ATOM     25  O   UNL     1       5.138   4.026  22.314  0.00  0.00    -0.495 OA
ENDBRANCH  11  25
ENDBRANCH   1  13
BRANCH   7  26
ATOM     26  C   UNL     1       5.149  -5.822  23.760  0.00  0.00    +0.266 C 
ATOM     27  N   UNL     1       4.576  -6.343  22.695  0.00  0.00    -0.288 N 
ATOM     28  H   UNL     1       3.982  -7.156  22.741  0.00  0.00    +0.301 HD
ATOM     29  H   UNL     1       4.736  -5.929  21.783  0.00  0.00    +0.301 HD
ATOM     30  N   UNL     1       4.965  -6.373  24.942  0.00  0.00    -0.250 N 
ATOM     31  H   UNL     1       4.406  -7.202  25.080  0.00  0.00    +0.288 HD
ATOM     32  H   UNL     1       5.366  -5.939  25.768  0.00  0.00    +0.288 HD
ENDBRANCH   7  26
TORSDOF 4
ENDMDL
MODEL 9
REMARK VINA RESULT:      -7.5      2.786      3.854
REMARK  Name = 
REMARK  5 active torsions:
REMARK  status: ('A' for Active; 'I' for Inactive)
REMARK    1  A    between atoms: C_1  and  O_2
REMARK    2  A    between atoms: O_2  and  C_3
REMARK    3  A    between atoms: C_5  and  C_24
REMARK    4  A    between atoms: C_8  and  C_10
REMARK    5  A    between atoms: C_14  and  C_19
REMARK                            x       y       z     vdW  Elec       q    Type
REMARK                         _______ _______ _______ _____ _____    ______ ____
ROOT
ATOM      1  C   UNL     1       8.268  -0.546  24.682  0.00  0.00    +0.047 A 
ATOM      2  N   UNL     1       7.620   0.500  25.304  0.00  0.00    -0.354 N 
ATOM      3  H   UNL     1       6.734   0.332  25.782  0.00  0.00    +0.166 HD
ATOM      4  C   UNL     1       8.220   1.699  25.022  0.00  0.00    +0.047 A 
ATOM      5  C   UNL     1       9.371   1.408  24.300  0.00  0.00    +0.001 A 
ATOM      6  C   UNL     1      10.170   2.476  23.849  0.00  0.00    +0.025 A 
ATOM      7  C   UNL     1       9.751   3.808  24.060  0.00  0.00    +0.061 A 
ATOM      8  C   UNL     1       8.585   4.046  24.807  0.00  0.00    +0.018 A 
ATOM      9  C   UNL     1       7.813   2.999  25.322  0.00  0.00    +0.027 A 
ATOM     10  C   UNL     1       9.427  -0.009  24.150  0.00  0.00    +0.036 A 
ENDROOT
BRANCH   1  13
ATOM     11  C   UNL     1       8.069  -4.300  24.520  0.00  0.00    +0.121 A 
ATOM     12  C   UNL     1       8.535  -2.999  24.587  0.00  0.00    +0.055 A 
ATOM     13  C   UNL     1       7.651  -1.905  24.655  0.00  0.00    -0.005 A 
ATOM     14  C   UNL     1       6.207  -2.091  24.628  0.00  0.00    -0.091 A 
ATOM     15  O   UNL     1       5.398  -1.087  24.644  0.00  0.00    -0.873 OA
ATOM     16  C   UNL     1       5.746  -3.463  24.558  0.00  0.00    -0.022 A 
ATOM     17  C   UNL     1       6.700  -4.522  24.520  0.00  0.00    +0.053 A 
BRANCH  16  18
ATOM     18  C   UNL     1       4.285  -3.865  24.502  0.00  0.00    -0.018 A 
ATOM     19  C   UNL     1       3.352  -3.389  25.453  0.00  0.00    +0.008 A 
ATOM     20  C   UNL     1       1.987  -3.697  25.382  0.00  0.00    +0.001 A 
ATOM     21  C   UNL     1       1.513  -4.528  24.374  0.00  0.00    +0.000 A 
ATOM     22  C   UNL     1       2.404  -5.040  23.439  0.00  0.00    +0.001 A 
ATOM     23  C   UNL     1       3.763  -4.697  23.496  0.00  0.00    +0.008 A 
ENDBRANCH  16  18
BRANCH  11  25
ATOM     24  C   UNL     1       9.962  -5.336  25.497  0.00  0.00    +0.277 C 
ATOM     25  O   UNL     1       9.038  -5.263  24.416  0.00  0.00    -0.495 OA
ENDBRANCH  11  25
ENDBRANCH   1  13
BRANCH   7  26
ATOM     26  C   UNL     1      10.499   4.924  23.455  0.00  0.00    +0.266 C 
ATOM     27  N   UNL     1       9.914   6.086  23.257  0.00  0.00    -0.288 N 
ATOM     28  H   UNL     1      10.387   6.866  22.828  0.00  0.00    +0.301 HD
ATOM     29  H   UNL     1       8.953   6.223  23.550  0.00  0.00    +0.301 HD
ATOM     30  N   UNL     1      11.756   4.751  23.100  0.00  0.00    -0.250 N 
ATOM     31  H   UNL     1      12.315   5.482  22.686  0.00  0.00    +0.288 HD
ATOM     32  H   UNL     1      12.188   3.838  23.206  0.00  0.00    +0.288 HD
ENDBRANCH   7  26
TORSDOF 4
ENDMDL
