MODEL 1
REMARK VINA RESULT:      -7.5      0.000      0.000
REMARK  Name = 
REMARK  9 active torsions:
REMARK  status: ('A' for Active; 'I' for Inactive)
REMARK    1  A    between atoms: C_1  and  O_2
REMARK    2  A    between atoms: O_2  and  C_3
REMARK    3  A    between atoms: C_5  and  N_6
REMARK    4  A    between atoms: N_12  and  C_13
REMARK    5  A    between atoms: C_17  and  C_18
REMARK    6  A    between atoms: C_25  and  O_26
REMARK    7  A    between atoms: O_26  and  C_27
REMARK    8  A    between atoms: C_28  and  O_29
REMARK    9  A    between atoms: O_29  and  C_30
REMARK                            x       y       z     vdW  Elec       q    Type
REMARK                         _______ _______ _______ _____ _____    ______ ____
ROOT
ATOM      1  N   UNL     1       6.613  -2.066  23.285  0.00  0.00    -0.283 N 
ATOM      2  H   UNL     1       6.044  -1.294  23.612  0.00  0.00    +0.155 HD
ATOM      3  C   UNL     1       7.942  -1.624  23.261  0.00  0.00    +0.221 A 
ATOM      4  N   UNL     1       8.140  -0.362  23.650  0.00  0.00    -0.199 NA
ATOM      5  C   UNL     1       9.399   0.110  23.704  0.00  0.00    +0.128 A 
ATOM      6  N   UNL     1       9.635   1.422  24.199  0.00  0.00    -0.299 N 
ATOM      7  H   UNL     1      10.530   1.774  23.870  0.00  0.00    +0.154 HD
ATOM      8  C   UNL     1      10.484  -0.673  23.370  0.00  0.00    +0.063 A 
ATOM      9  C   UNL     1      10.193  -1.942  22.942  0.00  0.00    +0.118 A 
ATOM     10  N   UNL     1       8.946  -2.430  22.878  0.00  0.00    -0.223 NA
ENDROOT
BRANCH   6  11
ATOM     11  C   UNL     1       8.693   2.482  24.110  0.00  0.00    +0.034 A 
ATOM     12  C   UNL     1       8.509   3.193  22.913  0.00  0.00    +0.051 A 
ATOM     13  C   UNL     1       7.628   4.276  22.921  0.00  0.00    +0.068 A 
ATOM     14  C   UNL     1       6.951   4.694  24.057  0.00  0.00    +0.023 A 
ATOM     15  C   UNL     1       6.187   5.814  23.623  0.00  0.00    +0.067 A 
ATOM     16  N   UNL     1       6.371   6.073  22.320  0.00  0.00    -0.178 NA
ATOM     17  C   UNL     1       5.285   6.680  24.415  0.00  0.00    +0.068 C 
ATOM     18  C   UNL     1       7.159   4.000  25.263  0.00  0.00    +0.013 A 
ATOM     19  N   UNL     1       7.239   5.129  21.926  0.00  0.00    -0.277 N 
ATOM     20  H   UNL     1       7.534   5.119  20.957  0.00  0.00    +0.189 HD
ATOM     21  C   UNL     1       8.043   2.908  25.274  0.00  0.00    +0.024 A 
ENDBRANCH   6  11
BRANCH   1  26
ATOM     22  C   UNL     1       4.512  -5.163  23.331  0.00  0.00    +0.167 A 
ATOM     23  C   UNL     1       5.139  -5.921  24.337  0.00  0.00    +0.204 A 
ATOM     24  C   UNL     1       6.205  -5.339  25.053  0.00  0.00    +0.167 A 
ATOM     25  C   UNL     1       6.674  -4.061  24.680  0.00  0.00    +0.073 A 
ATOM     26  C   UNL     1       6.106  -3.334  23.629  0.00  0.00    +0.041 A 
ATOM     27  C   UNL     1       4.986  -3.888  23.014  0.00  0.00    +0.073 A 
BRANCH  22  29
ATOM     28  C   UNL     1       2.144  -5.255  23.278  0.00  0.00    +0.277 C 
ATOM     29  O   UNL     1       3.388  -5.672  22.712  0.00  0.00    -0.491 OA
ENDBRANCH  22  29
BRANCH  23  30
ATOM     30  O   UNL     1       4.660  -7.154  24.708  0.00  0.00    -0.488 OA
ATOM     31  C   UNL     1       3.846  -7.167  25.885  0.00  0.00    +0.277 C 
ENDBRANCH  23  30
BRANCH  24  32
ATOM     32  O   UNL     1       6.921  -5.850  26.103  0.00  0.00    -0.491 OA
ATOM     33  C   UNL     1       7.866  -5.028  26.769  0.00  0.00    +0.277 C 
ENDBRANCH  24  32
ENDBRANCH   1  26
TORSDOF 5
ENDMDL
MODEL 2
REMARK VINA RESULT:      -7.4      4.265      9.442
REMARK  Name = 
REMARK  9 active torsions:
REMARK  status: ('A' for Active; 'I' for Inactive)
REMARK    1  A    between atoms: C_1  and  O_2
REMARK    2  A    between atoms: O_2  and  C_3
REMARK    3  A    between atoms: C_5  and  N_6
REMARK    4  A    between atoms: N_12  and  C_13
REMARK    5  A    between atoms: C_17  and  C_18
REMARK    6  A    between atoms: C_25  and  O_26
REMARK    7  A    between atoms: O_26  and  C_27
REMARK    8  A    between atoms: C_28  and  O_29
REMARK    9  A    between atoms: O_29  and  C_30
REMARK                            x       y       z     vdW  Elec       q    Type
REMARK                         _______ _______ _______ _____ _____    ______ ____
ROOT
ATOM      1  N   UNL     1       8.019   1.146  24.508  0.00  0.00    -0.283 N 
ATOM      2  H   UNL     1       7.334   0.665  25.079  0.00  0.00    +0.155 HD
ATOM      3  C   UNL     1       8.513   0.220  23.581  0.00  0.00    +0.221 A 
ATOM      4  N   UNL     1       8.001  -1.011  23.662  0.00  0.00    -0.199 NA
ATOM      5  C   UNL     1       8.391  -1.936  22.765  0.00  0.00    +0.128 A 
ATOM      6  N   UNL     1       7.792  -3.224  22.782  0.00  0.00    -0.299 N 
ATOM      7  H   UNL     1       8.391  -3.905  22.323  0.00  0.00    +0.154 HD
ATOM      8  C   UNL     1       9.302  -1.645  21.771  0.00  0.00    +0.063 A 
ATOM      9  C   UNL     1       9.811  -0.373  21.783  0.00  0.00    +0.118 A 
ATOM     10  N   UNL     1       9.437   0.562  22.668  0.00  0.00    -0.223 NA
ENDROOT
BRANCH   6  11
ATOM     11  C   UNL     1       7.261  -3.835  23.951  0.00  0.00    +0.034 A 
ATOM     12  C   UNL     1       8.103  -4.382  24.932  0.00  0.00    +0.051 A 
ATOM     13  C   UNL     1       7.511  -5.040  26.012  0.00  0.00    +0.068 A 
ATOM     14  C   UNL     1       6.139  -5.198  26.145  0.00  0.00    +0.023 A 
ATOM     15  C   UNL     1       5.981  -5.921  27.360  0.00  0.00    +0.067 A 
ATOM     16  N   UNL     1       7.159  -6.190  27.941  0.00  0.00    -0.178 NA
ATOM     17  C   UNL     1       4.731  -6.394  27.998  0.00  0.00    +0.068 C 
ATOM     18  C   UNL     1       5.298  -4.675  25.145  0.00  0.00    +0.013 A 
ATOM     19  N   UNL     1       8.058  -5.644  27.109  0.00  0.00    -0.277 N 
ATOM     20  H   UNL     1       9.041  -5.720  27.344  0.00  0.00    +0.189 HD
ATOM     21  C   UNL     1       5.876  -4.011  24.051  0.00  0.00    +0.024 A 
ENDBRANCH   6  11
BRANCH   1  26
ATOM     22  C   UNL     1       8.428   4.866  24.431  0.00  0.00    +0.167 A 
ATOM     23  C   UNL     1       7.179   5.283  23.934  0.00  0.00    +0.204 A 
ATOM     24  C   UNL     1       6.181   4.309  23.720  0.00  0.00    +0.167 A 
ATOM     25  C   UNL     1       6.489   2.946  23.916  0.00  0.00    +0.073 A 
ATOM     26  C   UNL     1       7.753   2.518  24.335  0.00  0.00    +0.041 A 
ATOM     27  C   UNL     1       8.682   3.509  24.643  0.00  0.00    +0.073 A 
BRANCH  22  29
ATOM     28  C   UNL     1      10.397   6.022  23.795  0.00  0.00    +0.277 C 
ATOM     29  O   UNL     1       9.367   5.820  24.765  0.00  0.00    -0.491 OA
ENDBRANCH  22  29
BRANCH  23  30
ATOM     30  O   UNL     1       6.882   6.613  23.770  0.00  0.00    -0.488 OA
ATOM     31  C   UNL     1       6.979   7.102  22.429  0.00  0.00    +0.277 C 
ENDBRANCH  23  30
BRANCH  24  32
ATOM     32  O   UNL     1       4.887   4.478  23.307  0.00  0.00    -0.491 OA
ATOM     33  C   UNL     1       4.199   3.392  22.705  0.00  0.00    +0.277 C 
ENDBRANCH  24  32
ENDBRANCH   1  26
TORSDOF 5
ENDMDL
MODEL 3
REMARK VINA RESULT:      -7.4      0.581      2.403
REMARK  Name = 
REMARK  9 active torsions:
REMARK  status: ('A' for Active; 'I' for Inactive)
REMARK    1  A    between atoms: C_1  and  O_2
REMARK    2  A    between atoms: O_2  and  C_3
REMARK    3  A    between atoms: C_5  and  N_6
REMARK    4  A    between atoms: N_12  and  C_13
REMARK    5  A    between atoms: C_17  and  C_18
REMARK    6  A    between atoms: C_25  and  O_26
REMARK    7  A    between atoms: O_26  and  C_27
REMARK    8  A    between atoms: C_28  and  O_29
REMARK    9  A    between atoms: O_29  and  C_30
REMARK                            x       y       z     vdW  Elec       q    Type
REMARK                         _______ _______ _______ _____ _____    ______ ____
ROOT
ATOM      1  N   UNL     1       6.400  -1.773  23.308  0.00  0.00    -0.283 N 
ATOM      2  H   UNL     1       5.923  -1.031  23.807  0.00  0.00    +0.155 HD
ATOM      3  C   UNL     1       7.662  -1.287  22.944  0.00  0.00    +0.221 A 
ATOM      4  N   UNL     1       7.928  -0.032  23.315  0.00  0.00    -0.199 NA
ATOM      5  C   UNL     1       9.144   0.480  23.046  0.00  0.00    +0.128 A 
ATOM      6  N   UNL     1       9.475   1.781  23.511  0.00  0.00    -0.299 N 
ATOM      7  H   UNL     1      10.238   2.173  22.967  0.00  0.00    +0.154 HD
ATOM      8  C   UNL     1      10.115  -0.257  22.401  0.00  0.00    +0.063 A 
ATOM      9  C   UNL     1       9.749  -1.520  22.017  0.00  0.00    +0.118 A 
ATOM     10  N   UNL     1       8.543  -2.046  22.273  0.00  0.00    -0.223 NA
ENDROOT
BRANCH   6  11
ATOM     11  C   UNL     1       8.519   2.812  23.721  0.00  0.00    +0.034 A 
ATOM     12  C   UNL     1       7.911   3.471  22.641  0.00  0.00    +0.051 A 
ATOM     13  C   UNL     1       7.045   4.531  22.922  0.00  0.00    +0.068 A 
ATOM     14  C   UNL     1       6.782   4.974  24.209  0.00  0.00    +0.023 A 
ATOM     15  C   UNL     1       5.874   6.056  24.034  0.00  0.00    +0.067 A 
ATOM     16  N   UNL     1       5.592   6.269  22.740  0.00  0.00    -0.178 NA
ATOM     17  C   UNL     1       5.265   6.928  25.064  0.00  0.00    +0.068 C 
ATOM     18  C   UNL     1       7.416   4.332  25.289  0.00  0.00    +0.013 A 
ATOM     19  N   UNL     1       6.308   5.334  22.099  0.00  0.00    -0.277 N 
ATOM     20  H   UNL     1       6.254   5.295  21.087  0.00  0.00    +0.189 HD
ATOM     21  C   UNL     1       8.291   3.265  25.026  0.00  0.00    +0.024 A 
ENDBRANCH   6  11
BRANCH   1  26
ATOM     22  C   UNL     1       6.362  -5.047  25.123  0.00  0.00    +0.167 A 
ATOM     23  C   UNL     1       5.232  -5.672  24.564  0.00  0.00    +0.204 A 
ATOM     24  C   UNL     1       4.552  -5.021  23.515  0.00  0.00    +0.167 A 
ATOM     25  C   UNL     1       4.960  -3.728  23.121  0.00  0.00    +0.073 A 
ATOM     26  C   UNL     1       6.034  -3.067  23.725  0.00  0.00    +0.041 A 
ATOM     27  C   UNL     1       6.753  -3.780  24.682  0.00  0.00    +0.073 A 
BRANCH  22  29
ATOM     28  C   UNL     1       8.121  -4.956  26.708  0.00  0.00    +0.277 C 
ATOM     29  O   UNL     1       7.110  -5.730  26.060  0.00  0.00    -0.491 OA
ENDBRANCH  22  29
BRANCH  23  30
ATOM     30  O   UNL     1       4.858  -6.940  24.938  0.00  0.00    -0.488 OA
ATOM     31  C   UNL     1       3.965  -7.012  26.053  0.00  0.00    +0.277 C 
ENDBRANCH  23  30
BRANCH  24  32
ATOM     32  O   UNL     1       3.479  -5.453  22.782  0.00  0.00    -0.491 OA
ATOM     33  C   UNL     1       2.170  -5.309  23.309  0.00  0.00    +0.277 C 
ENDBRANCH  24  32
ENDBRANCH   1  26
TORSDOF 5
ENDMDL
MODEL 4
REMARK VINA RESULT:      -7.4      4.259      9.159
REMARK  Name = 
REMARK  9 active torsions:
REMARK  status: ('A' for Active; 'I' for Inactive)
REMARK    1  A    between atoms: C_1  and  O_2
REMARK    2  A    between atoms: O_2  and  C_3
REMARK    3  A    between atoms: C_5  and  N_6
REMARK    4  A    between atoms: N_12  and  C_13
REMARK    5  A    between atoms: C_17  and  C_18
REMARK    6  A    between atoms: C_25  and  O_26
REMARK    7  A    between atoms: O_26  and  C_27
REMARK    8  A    between atoms: C_28  and  O_29
REMARK    9  A    between atoms: O_29  and  C_30
REMARK                            x       y       z     vdW  Elec       q    Type
REMARK                         _______ _______ _______ _____ _____    ______ ____
ROOT
ATOM      1  N   UNL     1       7.699   1.187  24.309  0.00  0.00    -0.283 N 
ATOM      2  H   UNL     1       7.019   0.676  24.861  0.00  0.00    +0.155 HD
ATOM      3  C   UNL     1       8.312   0.268  23.448  0.00  0.00    +0.221 A 
ATOM      4  N   UNL     1       7.887  -0.994  23.549  0.00  0.00    -0.199 NA
ATOM      5  C   UNL     1       8.395  -1.918  22.712  0.00  0.00    +0.128 A 
ATOM      6  N   UNL     1       7.890  -3.246  22.746  0.00  0.00    -0.299 N 
ATOM      7  H   UNL     1       8.562  -3.896  22.348  0.00  0.00    +0.154 HD
ATOM      8  C   UNL     1       9.338  -1.595  21.759  0.00  0.00    +0.063 A 
ATOM      9  C   UNL     1       9.752  -0.289  21.749  0.00  0.00    +0.118 A 
ATOM     10  N   UNL     1       9.260   0.646  22.575  0.00  0.00    -0.223 NA
ENDROOT
BRANCH   6  11
ATOM     11  C   UNL     1       7.338  -3.853  23.907  0.00  0.00    +0.034 A 
ATOM     12  C   UNL     1       8.162  -4.380  24.914  0.00  0.00    +0.051 A 
ATOM     13  C   UNL     1       7.552  -5.037  25.985  0.00  0.00    +0.068 A 
ATOM     14  C   UNL     1       6.179  -5.212  26.085  0.00  0.00    +0.023 A 
ATOM     15  C   UNL     1       6.000  -5.926  27.302  0.00  0.00    +0.067 A 
ATOM     16  N   UNL     1       7.167  -6.175  27.915  0.00  0.00    -0.178 NA
ATOM     17  C   UNL     1       4.741  -6.410  27.913  0.00  0.00    +0.068 C 
ATOM     18  C   UNL     1       5.357  -4.709  25.060  0.00  0.00    +0.013 A 
ATOM     19  N   UNL     1       8.079  -5.624  27.101  0.00  0.00    -0.277 N 
ATOM     20  H   UNL     1       9.057  -5.685  27.361  0.00  0.00    +0.189 HD
ATOM     21  C   UNL     1       5.953  -4.047  23.974  0.00  0.00    +0.024 A 
ENDBRANCH   6  11
BRANCH   1  26
ATOM     22  C   UNL     1       5.798   4.224  23.226  0.00  0.00    +0.167 A 
ATOM     23  C   UNL     1       6.655   5.261  23.638  0.00  0.00    +0.204 A 
ATOM     24  C   UNL     1       7.907   4.921  24.192  0.00  0.00    +0.167 A 
ATOM     25  C   UNL     1       8.224   3.563  24.405  0.00  0.00    +0.073 A 
ATOM     26  C   UNL     1       7.345   2.528  24.069  0.00  0.00    +0.041 A 
ATOM     27  C   UNL     1       6.165   2.890  23.424  0.00  0.00    +0.073 A 
BRANCH  22  29
ATOM     28  C   UNL     1       3.720   3.457  22.384  0.00  0.00    +0.277 C 
ATOM     29  O   UNL     1       4.629   4.544  22.567  0.00  0.00    -0.491 OA
ENDBRANCH  22  29
BRANCH  23  30
ATOM     30  O   UNL     1       6.347   6.579  23.405  0.00  0.00    -0.488 OA
ATOM     31  C   UNL     1       6.816   7.108  22.161  0.00  0.00    +0.277 C 
ENDBRANCH  23  30
BRANCH  24  32
ATOM     32  O   UNL     1       8.921   5.744  24.603  0.00  0.00    -0.491 OA
ATOM     33  C   UNL     1      10.018   5.987  23.736  0.00  0.00    +0.277 C 
ENDBRANCH  24  32
ENDBRANCH   1  26
TORSDOF 5
ENDMDL
MODEL 5
REMARK VINA RESULT:      -7.1      4.542      9.455
REMARK  Name = 
REMARK  9 active torsions:
REMARK  status: ('A' for Active; 'I' for Inactive)
REMARK    1  A    between atoms: C_1  and  O_2
REMARK    2  A    between atoms: O_2  and  C_3
REMARK    3  A    between atoms: C_5  and  N_6
REMARK    4  A    between atoms: N_12  and  C_13
REMARK    5  A    between atoms: C_17  and  C_18
REMARK    6  A    between atoms: C_25  and  O_26
REMARK    7  A    between atoms: O_26  and  C_27
REMARK    8  A    between atoms: C_28  and  O_29
REMARK    9  A    between atoms: O_29  and  C_30
REMARK                            x       y       z     vdW  Elec       q    Type
REMARK                         _______ _______ _______ _____ _____    ______ ____
ROOT
ATOM      1  N   UNL     1       9.273   0.778  24.533  0.00  0.00    -0.283 N 
ATOM      2  H   UNL     1       8.695   0.546  25.333  0.00  0.00    +0.155 HD
ATOM      3  C   UNL     1       9.095  -0.234  23.582  0.00  0.00    +0.221 A 
ATOM      4  N   UNL     1       8.257  -1.215  23.929  0.00  0.00    -0.199 NA
ATOM      5  C   UNL     1       7.996  -2.191  23.039  0.00  0.00    +0.128 A 
ATOM      6  N   UNL     1       7.040  -3.193  23.358  0.00  0.00    -0.299 N 
ATOM      7  H   UNL     1       7.190  -4.024  22.793  0.00  0.00    +0.154 HD
ATOM      8  C   UNL     1       8.572  -2.203  21.786  0.00  0.00    +0.063 A 
ATOM      9  C   UNL     1       9.452  -1.186  21.524  0.00  0.00    +0.118 A 
ATOM     10  N   UNL     1       9.726  -0.206  22.397  0.00  0.00    -0.223 NA
ENDROOT
BRANCH   6  11
ATOM     11  C   UNL     1       6.750  -3.616  24.683  0.00  0.00    +0.034 A 
ATOM     12  C   UNL     1       7.468  -4.662  25.286  0.00  0.00    +0.051 A 
ATOM     13  C   UNL     1       7.073  -5.081  26.559  0.00  0.00    +0.068 A 
ATOM     14  C   UNL     1       5.996  -4.531  27.238  0.00  0.00    +0.023 A 
ATOM     15  C   UNL     1       5.946  -5.248  28.466  0.00  0.00    +0.067 A 
ATOM     16  N   UNL     1       6.917  -6.170  28.548  0.00  0.00    -0.178 NA
ATOM     17  C   UNL     1       4.984  -5.104  29.582  0.00  0.00    +0.068 C 
ATOM     18  C   UNL     1       5.259  -3.503  26.620  0.00  0.00    +0.013 A 
ATOM     19  N   UNL     1       7.578  -6.041  27.389  0.00  0.00    -0.277 N 
ATOM     20  H   UNL     1       8.374  -6.646  27.218  0.00  0.00    +0.189 HD
ATOM     21  C   UNL     1       5.641  -3.070  25.339  0.00  0.00    +0.024 A 
ENDBRANCH   6  11
BRANCH   1  26
ATOM     22  C   UNL     1       8.566   4.443  24.255  0.00  0.00    +0.167 A 
ATOM     23  C   UNL     1       9.842   4.960  23.962  0.00  0.00    +0.204 A 
ATOM     24  C   UNL     1      10.907   4.056  23.768  0.00  0.00    +0.167 A 
ATOM     25  C   UNL     1      10.689   2.676  23.967  0.00  0.00    +0.073 A 
ATOM     26  C   UNL     1       9.442   2.162  24.335  0.00  0.00    +0.041 A 
ATOM     27  C   UNL     1       8.386   3.067  24.411  0.00  0.00    +0.073 A 
BRANCH  22  29
ATOM     28  C   UNL     1       6.651   5.316  23.166  0.00  0.00    +0.277 C 
ATOM     29  O   UNL     1       7.492   5.307  24.320  0.00  0.00    -0.491 OA
ENDBRANCH  22  29
BRANCH  23  30
ATOM     30  O   UNL     1      10.037   6.303  23.747  0.00  0.00    -0.488 OA
ATOM     31  C   UNL     1      10.355   7.070  24.912  0.00  0.00    +0.277 C 
ENDBRANCH  23  30
BRANCH  24  32
ATOM     32  O   UNL     1      12.205   4.315  23.418  0.00  0.00    -0.491 OA
ATOM     33  C   UNL     1      12.477   5.266  22.401  0.00  0.00    +0.277 C 
ENDBRANCH  24  32
ENDBRANCH   1  26
TORSDOF 5
ENDMDL
MODEL 6
REMARK VINA RESULT:      -6.7      1.588      1.813
REMARK  Name = 
REMARK  9 active torsions:
REMARK  status: ('A' for Active; 'I' for Inactive)
REMARK    1  A    between atoms: C_1  and  O_2
REMARK    2  A    between atoms: O_2  and  C_3
REMARK    3  A    between atoms: C_5  and  N_6
REMARK    4  A    between atoms: N_12  and  C_13
REMARK    5  A    between atoms: C_17  and  C_18
REMARK    6  A    between atoms: C_25  and  O_26
REMARK    7  A    between atoms: O_26  and  C_27
REMARK    8  A    between atoms: C_28  and  O_29
REMARK    9  A    between atoms: O_29  and  C_30
REMARK                            x       y       z     vdW  Elec       q    Type
REMARK                         _______ _______ _______ _____ _____    ______ ____
ROOT
ATOM      1  N   UNL     1       6.389  -1.659  23.917  0.00  0.00    -0.283 N 
ATOM      2  H   UNL     1       6.117  -0.880  24.506  0.00  0.00    +0.155 HD
ATOM      3  C   UNL     1       7.491  -1.242  23.159  0.00  0.00    +0.221 A 
ATOM      4  N   UNL     1       7.901   0.011  23.373  0.00  0.00    -0.199 NA
ATOM      5  C   UNL     1       8.989   0.458  22.719  0.00  0.00    +0.128 A 
ATOM      6  N   UNL     1       9.491   1.757  23.000  0.00  0.00    -0.299 N 
ATOM      7  H   UNL     1      10.060   2.097  22.230  0.00  0.00    +0.154 HD
ATOM      8  C   UNL     1       9.686  -0.342  21.837  0.00  0.00    +0.063 A 
ATOM      9  C   UNL     1       9.176  -1.598  21.642  0.00  0.00    +0.118 A 
ATOM     10  N   UNL     1       8.093  -2.061  22.282  0.00  0.00    -0.223 NA
ENDROOT
BRANCH   6  11
ATOM     11  C   UNL     1       8.684   2.837  23.450  0.00  0.00    +0.034 A 
ATOM     12  C   UNL     1       8.656   3.210  24.803  0.00  0.00    +0.051 A 
ATOM     13  C   UNL     1       7.776   4.225  25.187  0.00  0.00    +0.068 A 
ATOM     14  C   UNL     1       6.916   4.858  24.302  0.00  0.00    +0.023 A 
ATOM     15  C   UNL     1       6.209   5.797  25.103  0.00  0.00    +0.067 A 
ATOM     16  N   UNL     1       6.598   5.755  26.386  0.00  0.00    -0.178 NA
ATOM     17  C   UNL     1       5.143   6.740  24.698  0.00  0.00    +0.068 C 
ATOM     18  C   UNL     1       6.924   4.462  22.951  0.00  0.00    +0.013 A 
ATOM     19  N   UNL     1       7.543   4.803  26.403  0.00  0.00    -0.277 N 
ATOM     20  H   UNL     1       7.996   4.589  27.284  0.00  0.00    +0.189 HD
ATOM     21  C   UNL     1       7.802   3.443  22.547  0.00  0.00    +0.024 A 
ENDBRANCH   6  11
BRANCH   1  26
ATOM     22  C   UNL     1       4.687  -4.865  24.830  0.00  0.00    +0.167 A 
ATOM     23  C   UNL     1       5.664  -5.493  25.624  0.00  0.00    +0.204 A 
ATOM     24  C   UNL     1       6.848  -4.786  25.920  0.00  0.00    +0.167 A 
ATOM     25  C   UNL     1       7.062  -3.518  25.338  0.00  0.00    +0.073 A 
ATOM     26  C   UNL     1       6.129  -2.921  24.484  0.00  0.00    +0.041 A 
ATOM     27  C   UNL     1       4.924  -3.595  24.299  0.00  0.00    +0.073 A 
BRANCH  22  29
ATOM     28  C   UNL     1       3.100  -5.689  23.275  0.00  0.00    +0.277 C 
ATOM     29  O   UNL     1       3.474  -5.494  24.640  0.00  0.00    -0.491 OA
ENDBRANCH  22  29
BRANCH  23  30
ATOM     30  O   UNL     1       5.436  -6.716  26.205  0.00  0.00    -0.488 OA
ATOM     31  C   UNL     1       4.926  -6.676  27.541  0.00  0.00    +0.277 C 
ENDBRANCH  23  30
BRANCH  24  32
ATOM     32  O   UNL     1       7.901  -5.159  26.712  0.00  0.00    -0.491 OA
ATOM     33  C   UNL     1       9.178  -4.578  26.495  0.00  0.00    +0.277 C 
ENDBRANCH  24  32
ENDBRANCH   1  26
TORSDOF 5
ENDMDL
MODEL 7
REMARK VINA RESULT:      -6.7      1.662      2.462
REMARK  Name = 
REMARK  9 active torsions:
REMARK  status: ('A' for Active; 'I' for Inactive)
REMARK    1  A    between atoms: C_1  and  O_2
REMARK    2  A    between atoms: O_2  and  C_3
REMARK    3  A    between atoms: C_5  and  N_6
REMARK    4  A    between atoms: N_12  and  C_13
REMARK    5  A    between atoms: C_17  and  C_18
REMARK    6  A    between atoms: C_25  and  O_26
REMARK    7  A    between atoms: O_26  and  C_27
REMARK    8  A    between atoms: C_28  and  O_29
REMARK    9  A    between atoms: O_29  and  C_30
REMARK                            x       y       z     vdW  Elec       q    Type
REMARK                         _______ _______ _______ _____ _____    ______ ____
ROOT
ATOM      1  N   UNL     1       6.340  -1.374  23.368  0.00  0.00    -0.283 N 
ATOM      2  H   UNL     1       5.806  -0.519  23.479  0.00  0.00    +0.155 HD
ATOM      3  C   UNL     1       7.672  -1.077  23.683  0.00  0.00    +0.221 A 
ATOM      4  N   UNL     1       7.917   0.189  24.032  0.00  0.00    -0.199 NA
ATOM      5  C   UNL     1       9.165   0.530  24.401  0.00  0.00    +0.128 A 
ATOM      6  N   UNL     1       9.425   1.850  24.860  0.00  0.00    -0.299 N 
ATOM      7  H   UNL     1      10.411   2.075  24.768  0.00  0.00    +0.154 HD
ATOM      8  C   UNL     1      10.192  -0.390  24.426  0.00  0.00    +0.063 A 
ATOM      9  C   UNL     1       9.869  -1.655  24.013  0.00  0.00    +0.118 A 
ATOM     10  N   UNL     1       8.632  -2.015  23.640  0.00  0.00    -0.223 NA
ENDROOT
BRANCH   6  11
ATOM     11  C   UNL     1       8.681   2.990  24.450  0.00  0.00    +0.034 A 
ATOM     12  C   UNL     1       7.847   3.676  25.347  0.00  0.00    +0.051 A 
ATOM     13  C   UNL     1       7.082   4.736  24.854  0.00  0.00    +0.068 A 
ATOM     14  C   UNL     1       7.090   5.121  23.522  0.00  0.00    +0.023 A 
ATOM     15  C   UNL     1       6.178   6.211  23.461  0.00  0.00    +0.067 A 
ATOM     16  N   UNL     1       5.644   6.485  24.661  0.00  0.00    -0.178 NA
ATOM     17  C   UNL     1       5.766   7.008  22.284  0.00  0.00    +0.068 C 
ATOM     18  C   UNL     1       7.904   4.413  22.617  0.00  0.00    +0.013 A 
ATOM     19  N   UNL     1       6.211   5.585  25.477  0.00  0.00    -0.277 N 
ATOM     20  H   UNL     1       5.959   5.596  26.459  0.00  0.00    +0.189 HD
ATOM     21  C   UNL     1       8.679   3.344  23.095  0.00  0.00    +0.024 A 
ENDBRANCH   6  11
BRANCH   1  26
ATOM     22  C   UNL     1       4.190  -3.904  25.096  0.00  0.00    +0.167 A 
ATOM     23  C   UNL     1       4.097  -4.916  24.121  0.00  0.00    +0.204 A 
ATOM     24  C   UNL     1       4.839  -4.773  22.930  0.00  0.00    +0.167 A 
ATOM     25  C   UNL     1       5.571  -3.588  22.707  0.00  0.00    +0.073 A 
ATOM     26  C   UNL     1       5.605  -2.544  23.637  0.00  0.00    +0.041 A 
ATOM     27  C   UNL     1       4.953  -2.760  24.849  0.00  0.00    +0.073 A 
BRANCH  22  29
ATOM     28  C   UNL     1       4.378  -3.786  27.455  0.00  0.00    +0.277 C 
ATOM     29  O   UNL     1       3.573  -4.091  26.315  0.00  0.00    -0.491 OA
ENDBRANCH  22  29
BRANCH  23  30
ATOM     30  O   UNL     1       3.401  -6.076  24.358  0.00  0.00    -0.488 OA
ATOM     31  C   UNL     1       4.163  -7.141  24.934  0.00  0.00    +0.277 C 
ENDBRANCH  23  30
BRANCH  24  32
ATOM     32  O   UNL     1       4.956  -5.641  21.878  0.00  0.00    -0.491 OA
ATOM     33  C   UNL     1       6.151  -5.655  21.114  0.00  0.00    +0.277 C 
ENDBRANCH  24  32
ENDBRANCH   1  26
TORSDOF 5
ENDMDL
MODEL 8
REMARK VINA RESULT:      -6.7      4.167      9.184
REMARK  Name = 
REMARK  9 active torsions:
REMARK  status: ('A' for Active; 'I' for Inactive)
REMARK    1  A    between atoms: C_1  and  O_2
REMARK    2  A    between atoms: O_2  and  C_3
REMARK    3  A    between atoms: C_5  and  N_6
REMARK    4  A    between atoms: N_12  and  C_13
REMARK    5  A    between atoms: C_17  and  C_18
REMARK    6  A    between atoms: C_25  and  O_26
REMARK    7  A    between atoms: O_26  and  C_27
REMARK    8  A    between atoms: C_28  and  O_29
REMARK    9  A    between atoms: O_29  and  C_30
REMARK                            x       y       z     vdW  Elec       q    Type
REMARK                         _______ _______ _______ _____ _____    ______ ____
ROOT
ATOM      1  N   UNL     1       7.628   1.239  24.736  0.00  0.00    -0.283 N 
ATOM      2  H   UNL     1       6.841   0.652  24.988  0.00  0.00    +0.155 HD
ATOM      3  C   UNL     1       8.377   0.543  23.780  0.00  0.00    +0.221 A 
ATOM      4  N   UNL     1       7.911  -0.662  23.443  0.00  0.00    -0.199 NA
ATOM      5  C   UNL     1       8.552  -1.362  22.489  0.00  0.00    +0.128 A 
ATOM      6  N   UNL     1       8.020  -2.607  22.056  0.00  0.00    -0.299 N 
ATOM      7  H   UNL     1       8.742  -3.175  21.622  0.00  0.00    +0.154 HD
ATOM      8  C   UNL     1       9.672  -0.868  21.854  0.00  0.00    +0.063 A 
ATOM      9  C   UNL     1      10.110   0.356  22.286  0.00  0.00    +0.118 A 
ATOM     10  N   UNL     1       9.488   1.068  23.236  0.00  0.00    -0.223 NA
ENDROOT
BRANCH   6  11
ATOM     11  C   UNL     1       7.236  -3.461  22.879  0.00  0.00    +0.034 A 
ATOM     12  C   UNL     1       7.725  -3.940  24.104  0.00  0.00    +0.051 A 
ATOM     13  C   UNL     1       6.933  -4.841  24.820  0.00  0.00    +0.068 A 
ATOM     14  C   UNL     1       5.706  -5.300  24.364  0.00  0.00    +0.023 A 
ATOM     15  C   UNL     1       5.260  -6.190  25.381  0.00  0.00    +0.067 A 
ATOM     16  N   UNL     1       6.138  -6.279  26.390  0.00  0.00    -0.178 NA
ATOM     17  C   UNL     1       4.017  -6.993  25.426  0.00  0.00    +0.068 C 
ATOM     18  C   UNL     1       5.230  -4.841  23.122  0.00  0.00    +0.013 A 
ATOM     19  N   UNL     1       7.130  -5.454  26.025  0.00  0.00    -0.277 N 
ATOM     20  H   UNL     1       7.925  -5.351  26.645  0.00  0.00    +0.189 HD
ATOM     21  C   UNL     1       6.014  -3.935  22.388  0.00  0.00    +0.024 A 
ENDBRANCH   6  11
BRANCH   1  26
ATOM     22  C   UNL     1       6.634   4.732  23.826  0.00  0.00    +0.167 A 
ATOM     23  C   UNL     1       6.794   5.405  25.052  0.00  0.00    +0.204 A 
ATOM     24  C   UNL     1       7.326   4.692  26.147  0.00  0.00    +0.167 A 
ATOM     25  C   UNL     1       7.590   3.312  26.014  0.00  0.00    +0.073 A 
ATOM     26  C   UNL     1       7.360   2.619  24.821  0.00  0.00    +0.041 A 
ATOM     27  C   UNL     1       6.939   3.372  23.727  0.00  0.00    +0.073 A 
BRANCH  22  29
ATOM     28  C   UNL     1       7.301   5.917  21.885  0.00  0.00    +0.277 C 
ATOM     29  O   UNL     1       6.237   5.449  22.716  0.00  0.00    -0.491 OA
ENDBRANCH  22  29
BRANCH  23  30
ATOM     30  O   UNL     1       6.557   6.752  25.164  0.00  0.00    -0.488 OA
ATOM     31  C   UNL     1       5.269   7.108  25.676  0.00  0.00    +0.277 C 
ENDBRANCH  23  30
BRANCH  24  32
ATOM     32  O   UNL     1       7.627   5.142  27.405  0.00  0.00    -0.491 OA
ATOM     33  C   UNL     1       6.839   4.715  28.505  0.00  0.00    +0.277 C 
ENDBRANCH  24  32
ENDBRANCH   1  26
TORSDOF 5
ENDMDL
MODEL 9
REMARK VINA RESULT:      -6.5      4.086      9.370
REMARK  Name = 
REMARK  9 active torsions:
REMARK  status: ('A' for Active; 'I' for Inactive)
REMARK    1  A    between atoms: C_1  and  O_2
REMARK    2  A    between atoms: O_2  and  C_3
REMARK    3  A    between atoms: C_5  and  N_6
REMARK    4  A    between atoms: N_12  and  C_13
REMARK    5  A    between atoms: C_17  and  C_18
REMARK    6  A    between atoms: C_25  and  O_26
REMARK    7  A    between atoms: O_26  and  C_27
REMARK    8  A    between atoms: C_28  and  O_29
REMARK    9  A    between atoms: O_29  and  C_30
REMARK                            x       y       z     vdW  Elec       q    Type
REMARK                         _______ _______ _______ _____ _____    ______ ____
ROOT
ATOM      1  N   UNL     1       7.578   0.912  25.506  0.00  0.00    -0.283 N 
ATOM      2  H   UNL     1       6.743   0.345  25.607  0.00  0.00    +0.155 HD
ATOM      3  C   UNL     1       8.487   0.181  24.732  0.00  0.00    +0.221 A 
ATOM      4  N   UNL     1       8.071  -1.023  24.332  0.00  0.00    -0.199 NA
ATOM      5  C   UNL     1       8.874  -1.756  23.538  0.00  0.00    +0.128 A 
ATOM      6  N   UNL     1       8.412  -3.000  23.031  0.00  0.00    -0.299 N 
ATOM      7  H   UNL     1       9.193  -3.591  22.760  0.00  0.00    +0.154 HD
ATOM      8  C   UNL     1      10.109  -1.296  23.131  0.00  0.00    +0.063 A 
ATOM      9  C   UNL     1      10.479  -0.070  23.619  0.00  0.00    +0.118 A 
ATOM     10  N   UNL     1       9.695   0.674  24.412  0.00  0.00    -0.223 NA
ENDROOT
BRANCH   6  11
ATOM     11  C   UNL     1       7.460  -3.821  23.696  0.00  0.00    +0.034 A 
ATOM     12  C   UNL     1       7.735  -4.380  24.954  0.00  0.00    +0.051 A 
ATOM     13  C   UNL     1       6.789  -5.244  25.510  0.00  0.00    +0.068 A 
ATOM     14  C   UNL     1       5.609  -5.591  24.867  0.00  0.00    +0.023 A 
ATOM     15  C   UNL     1       4.962  -6.481  25.769  0.00  0.00    +0.067 A 
ATOM     16  N   UNL     1       5.679  -6.672  26.886  0.00  0.00    -0.178 NA
ATOM     17  C   UNL     1       3.672  -7.188  25.604  0.00  0.00    +0.068 C 
ATOM     18  C   UNL     1       5.348  -5.052  23.593  0.00  0.00    +0.013 A 
ATOM     19  N   UNL     1       6.768  -5.912  26.701  0.00  0.00    -0.277 N 
ATOM     20  H   UNL     1       7.472  -5.893  27.430  0.00  0.00    +0.189 HD
ATOM     21  C   UNL     1       6.290  -4.183  23.018  0.00  0.00    +0.024 A 
ENDBRANCH   6  11
BRANCH   1  26
ATOM     22  C   UNL     1       7.170   4.450  26.660  0.00  0.00    +0.167 A 
ATOM     23  C   UNL     1       6.851   5.109  25.459  0.00  0.00    +0.204 A 
ATOM     24  C   UNL     1       6.685   4.337  24.290  0.00  0.00    +0.167 A 
ATOM     25  C   UNL     1       6.935   2.949  24.335  0.00  0.00    +0.073 A 
ATOM     26  C   UNL     1       7.328   2.298  25.510  0.00  0.00    +0.041 A 
ATOM     27  C   UNL     1       7.377   3.068  26.669  0.00  0.00    +0.073 A 
BRANCH  22  29
ATOM     28  C   UNL     1       6.804   4.462  29.002  0.00  0.00    +0.277 C 
ATOM     29  O   UNL     1       7.208   5.177  27.832  0.00  0.00    -0.491 OA
ENDBRANCH  22  29
BRANCH  23  30
ATOM     30  O   UNL     1       6.587   6.456  25.430  0.00  0.00    -0.488 OA
ATOM     31  C   UNL     1       5.205   6.813  25.536  0.00  0.00    +0.277 C 
ENDBRANCH  23  30
BRANCH  24  32
ATOM     32  O   UNL     1       6.320   4.741  23.034  0.00  0.00    -0.491 OA
ATOM     33  C   UNL     1       7.265   5.407  22.212  0.00  0.00    +0.277 C 
ENDBRANCH  24  32
ENDBRANCH   1  26
TORSDOF 5
ENDMDL
