MODEL 1
REMARK VINA RESULT:      -7.1      0.000      0.000
REMARK  Name = 
REMARK  4 active torsions:
REMARK  status: ('A' for Active; 'I' for Inactive)
REMARK    1  A    between atoms: O_1  and  C_2
REMARK    2  A    between atoms: C_4  and  O_5
REMARK    3  A    between atoms: C_9  and  C_10
REMARK    4  A    between atoms: C_11  and  N_15
REMARK                            x       y       z     vdW  Elec       q    Type
REMARK                         _______ _______ _______ _____ _____    ______ ____
ROOT
ATOM      1  C   UNL     1       8.593  -2.641  23.504  0.00  0.00    +0.090 A 
ATOM      2  N   UNL     1       9.744  -2.996  24.177  0.00  0.00    -0.275 N 
ATOM      3  H   UNL     1      10.538  -2.389  24.352  0.00  0.00    +0.189 HD
ATOM      4  N   UNL     1       9.768  -4.242  24.667  0.00  0.00    -0.180 NA
ATOM      5  C   UNL     1       8.555  -4.696  24.359  0.00  0.00    +0.157 A 
ATOM      6  C   UNL     1       7.760  -3.750  23.652  0.00  0.00    +0.076 A 
ENDROOT
BRANCH   1   8
ATOM      7  C   UNL     1       9.454  -0.831  21.968  0.00  0.00    +0.130 A 
ATOM      8  C   UNL     1       8.491  -1.304  22.886  0.00  0.00    +0.045 A 
ATOM      9  C   UNL     1       7.427  -0.448  23.194  0.00  0.00    +0.037 A 
ATOM     10  C   UNL     1       7.414   0.878  22.752  0.00  0.00    +0.083 A 
ATOM     11 CL   UNL     1       6.153   1.920  23.305  0.00  0.00    -0.080 Cl
ATOM     12  C   UNL     1       8.426   1.347  21.914  0.00  0.00    +0.139 A 
ATOM     13  C   UNL     1       9.432   0.484  21.487  0.00  0.00    +0.093 A 
BRANCH   7  14
ATOM     14  O   UNL     1      10.435  -1.679  21.513  0.00  0.00    -0.506 OA
ATOM     15  H   UNL     1      10.090  -2.204  20.771  0.00  0.00    +0.292 HD
ENDBRANCH   7  14
BRANCH  12  16
ATOM     16  O   UNL     1       8.429   2.652  21.504  0.00  0.00    -0.505 OA
ATOM     17  H   UNL     1       9.273   2.864  21.073  0.00  0.00    +0.292 HD
ENDBRANCH  12  16
ENDBRANCH   1   8
BRANCH   6  18
ATOM     18  N   UNL     1       6.451  -3.949  23.303  0.00  0.00    -0.325 N 
ATOM     19  C   UNL     1       5.328  -3.183  23.857  0.00  0.00    +0.120 C 
ATOM     20  C   UNL     1       4.101  -4.081  24.124  0.00  0.00    +0.100 C 
ATOM     21  N   UNL     1       3.691  -4.888  22.960  0.00  0.00    -0.313 NA
ATOM     22  H   UNL     1       2.942  -5.518  23.241  0.00  0.00    +0.122 HD
ATOM     23  C   UNL     1       4.850  -5.680  22.505  0.00  0.00    +0.100 C 
ATOM     24  C   UNL     1       6.081  -4.813  22.167  0.00  0.00    +0.120 C 
ENDBRANCH   6  18
TORSDOF 4
ENDMDL
MODEL 2
REMARK VINA RESULT:      -6.6      2.484      3.544
REMARK  Name = 
REMARK  4 active torsions:
REMARK  status: ('A' for Active; 'I' for Inactive)
REMARK    1  A    between atoms: O_1  and  C_2
REMARK    2  A    between atoms: C_4  and  O_5
REMARK    3  A    between atoms: C_9  and  C_10
REMARK    4  A    between atoms: C_11  and  N_15
REMARK                            x       y       z     vdW  Elec       q    Type
REMARK                         _______ _______ _______ _____ _____    ______ ____
ROOT
ATOM      1  C   UNL     1       7.320  -3.147  23.078  0.00  0.00    +0.090 A 
ATOM      2  N   UNL     1       6.828  -3.067  21.791  0.00  0.00    -0.275 N 
ATOM      3  H   UNL     1       7.063  -2.353  21.111  0.00  0.00    +0.189 HD
ATOM      4  N   UNL     1       6.005  -4.058  21.424  0.00  0.00    -0.180 NA
ATOM      5  C   UNL     1       6.015  -4.851  22.493  0.00  0.00    +0.157 A 
ATOM      6  C   UNL     1       6.826  -4.360  23.555  0.00  0.00    +0.076 A 
ENDROOT
BRANCH   1   8
ATOM      7  C   UNL     1       9.254  -1.542  22.821  0.00  0.00    +0.130 A 
ATOM      8  C   UNL     1       8.197  -2.076  23.591  0.00  0.00    +0.045 A 
ATOM      9  C   UNL     1       8.011  -1.548  24.875  0.00  0.00    +0.037 A 
ATOM     10  C   UNL     1       8.938  -0.663  25.434  0.00  0.00    +0.083 A 
ATOM     11 CL   UNL     1       8.730  -0.181  27.079  0.00  0.00    -0.080 Cl
ATOM     12  C   UNL     1      10.024  -0.217  24.680  0.00  0.00    +0.139 A 
ATOM     13  C   UNL     1      10.167  -0.625  23.357  0.00  0.00    +0.093 A 
BRANCH   7  14
ATOM     14  O   UNL     1       9.390  -1.911  21.505  0.00  0.00    -0.506 OA
ATOM     15  H   UNL     1       8.529  -2.200  21.159  0.00  0.00    +0.292 HD
ENDBRANCH   7  14
BRANCH  12  16
ATOM     16  O   UNL     1      10.946   0.627  25.235  0.00  0.00    -0.505 OA
ATOM     17  H   UNL     1      11.624   0.857  24.580  0.00  0.00    +0.292 HD
ENDBRANCH  12  16
ENDBRANCH   1   8
BRANCH   6  18
ATOM     18  N   UNL     1       7.065  -5.038  24.720  0.00  0.00    -0.325 N 
ATOM     19  C   UNL     1       6.033  -5.749  25.483  0.00  0.00    +0.120 C 
ATOM     20  C   UNL     1       6.219  -5.566  27.004  0.00  0.00    +0.100 C 
ATOM     21  N   UNL     1       7.575  -5.894  27.481  0.00  0.00    -0.313 NA
ATOM     22  H   UNL     1       7.645  -5.658  28.469  0.00  0.00    +0.122 HD
ATOM     23  C   UNL     1       8.549  -5.091  26.718  0.00  0.00    +0.100 C 
ATOM     24  C   UNL     1       8.438  -5.294  25.192  0.00  0.00    +0.120 C 
ENDBRANCH   6  18
TORSDOF 4
ENDMDL
MODEL 3
REMARK VINA RESULT:      -6.4      4.618      6.627
REMARK  Name = 
REMARK  4 active torsions:
REMARK  status: ('A' for Active; 'I' for Inactive)
REMARK    1  A    between atoms: O_1  and  C_2
REMARK    2  A    between atoms: C_4  and  O_5
REMARK    3  A    between atoms: C_9  and  C_10
REMARK    4  A    between atoms: C_11  and  N_15
REMARK                            x       y       z     vdW  Elec       q    Type
REMARK                         _______ _______ _______ _____ _____    ______ ____
ROOT
ATOM      1  C   UNL     1       7.395  -5.387  25.783  0.00  0.00    +0.090 A 
ATOM      2  N   UNL     1       8.472  -5.561  26.628  0.00  0.00    -0.275 N 
ATOM      3  H   UNL     1       8.448  -6.029  27.528  0.00  0.00    +0.189 HD
ATOM      4  N   UNL     1       9.645  -5.103  26.173  0.00  0.00    -0.180 NA
ATOM      5  C   UNL     1       9.332  -4.672  24.953  0.00  0.00    +0.157 A 
ATOM      6  C   UNL     1       7.954  -4.833  24.632  0.00  0.00    +0.076 A 
ENDROOT
BRANCH   1   8
ATOM      7  C   UNL     1       5.627  -5.704  27.559  0.00  0.00    +0.130 A 
ATOM      8  C   UNL     1       6.050  -5.816  26.216  0.00  0.00    +0.045 A 
ATOM      9  C   UNL     1       5.138  -6.357  25.301  0.00  0.00    +0.037 A 
ATOM     10  C   UNL     1       3.934  -6.925  25.730  0.00  0.00    +0.083 A 
ATOM     11 CL   UNL     1       2.936  -7.718  24.566  0.00  0.00    -0.080 Cl
ATOM     12  C   UNL     1       3.579  -6.878  27.079  0.00  0.00    +0.139 A 
ATOM     13  C   UNL     1       4.406  -6.234  27.994  0.00  0.00    +0.093 A 
BRANCH   7  14
ATOM     14  O   UNL     1       6.418  -5.045  28.469  0.00  0.00    -0.506 OA
ATOM     15  H   UNL     1       6.047  -5.156  29.360  0.00  0.00    +0.292 HD
ENDBRANCH   7  14
BRANCH  12  16
ATOM     16  O   UNL     1       2.415  -7.458  27.502  0.00  0.00    -0.505 OA
ATOM     17  H   UNL     1       1.750  -6.774  27.686  0.00  0.00    +0.292 HD
ENDBRANCH  12  16
ENDBRANCH   1   8
BRANCH   6  18
ATOM     18  N   UNL     1       7.409  -4.548  23.409  0.00  0.00    -0.325 N 
ATOM     19  C   UNL     1       7.016  -3.201  22.980  0.00  0.00    +0.120 C 
ATOM     20  C   UNL     1       5.695  -3.218  22.181  0.00  0.00    +0.100 C 
ATOM     21  N   UNL     1       5.692  -4.172  21.058  0.00  0.00    -0.313 NA
ATOM     22  H   UNL     1       4.762  -4.194  20.644  0.00  0.00    +0.122 HD
ATOM     23  C   UNL     1       6.025  -5.512  21.578  0.00  0.00    +0.100 C 
ATOM     24  C   UNL     1       7.373  -5.552  22.330  0.00  0.00    +0.120 C 
ENDBRANCH   6  18
TORSDOF 4
ENDMDL
MODEL 4
REMARK VINA RESULT:      -6.4      3.293      5.694
REMARK  Name = 
REMARK  4 active torsions:
REMARK  status: ('A' for Active; 'I' for Inactive)
REMARK    1  A    between atoms: O_1  and  C_2
REMARK    2  A    between atoms: C_4  and  O_5
REMARK    3  A    between atoms: C_9  and  C_10
REMARK    4  A    between atoms: C_11  and  N_15
REMARK                            x       y       z     vdW  Elec       q    Type
REMARK                         _______ _______ _______ _____ _____    ______ ____
ROOT
ATOM      1  C   UNL     1       8.052  -2.076  25.151  0.00  0.00    +0.090 A 
ATOM      2  N   UNL     1       8.363  -2.079  26.495  0.00  0.00    -0.275 N 
ATOM      3  H   UNL     1       8.312  -2.882  27.113  0.00  0.00    +0.189 HD
ATOM      4  N   UNL     1       8.810  -0.917  26.988  0.00  0.00    -0.180 NA
ATOM      5  C   UNL     1       8.856  -0.143  25.906  0.00  0.00    +0.157 A 
ATOM      6  C   UNL     1       8.417  -0.800  24.722  0.00  0.00    +0.076 A 
ENDROOT
BRANCH   1   8
ATOM      7  C   UNL     1       8.335  -4.362  24.114  0.00  0.00    +0.130 A 
ATOM      8  C   UNL     1       7.504  -3.296  24.526  0.00  0.00    +0.045 A 
ATOM      9  C   UNL     1       6.128  -3.440  24.314  0.00  0.00    +0.037 A 
ATOM     10  C   UNL     1       5.619  -4.508  23.568  0.00  0.00    +0.083 A 
ATOM     11 CL   UNL     1       3.930  -4.534  23.210  0.00  0.00    -0.080 Cl
ATOM     12  C   UNL     1       6.475  -5.505  23.097  0.00  0.00    +0.139 A 
ATOM     13  C   UNL     1       7.833  -5.456  23.400  0.00  0.00    +0.093 A 
BRANCH   7  14
ATOM     14  O   UNL     1       9.672  -4.343  24.431  0.00  0.00    -0.506 OA
ATOM     15  H   UNL     1       9.802  -3.843  25.254  0.00  0.00    +0.292 HD
ENDBRANCH   7  14
BRANCH  12  16
ATOM     16  O   UNL     1       5.982  -6.535  22.345  0.00  0.00    -0.505 OA
ATOM     17  H   UNL     1       6.627  -6.790  21.666  0.00  0.00    +0.292 HD
ENDBRANCH  12  16
ENDBRANCH   1   8
BRANCH   6  18
ATOM     18  N   UNL     1       8.454  -0.244  23.472  0.00  0.00    -0.325 N 
ATOM     19  C   UNL     1       9.602  -0.342  22.563  0.00  0.00    +0.120 C 
ATOM     20  C   UNL     1       9.846   0.981  21.805  0.00  0.00    +0.100 C 
ATOM     21  N   UNL     1       8.649   1.503  21.120  0.00  0.00    -0.313 NA
ATOM     22  H   UNL     1       8.864   2.417  20.728  0.00  0.00    +0.122 HD
ATOM     23  C   UNL     1       7.563   1.640  22.109  0.00  0.00    +0.100 C 
ATOM     24  C   UNL     1       7.244   0.321  22.845  0.00  0.00    +0.120 C 
ENDBRANCH   6  18
TORSDOF 4
ENDMDL
MODEL 5
REMARK VINA RESULT:      -6.4      1.624      1.819
REMARK  Name = 
REMARK  4 active torsions:
REMARK  status: ('A' for Active; 'I' for Inactive)
REMARK    1  A    between atoms: O_1  and  C_2
REMARK    2  A    between atoms: C_4  and  O_5
REMARK    3  A    between atoms: C_9  and  C_10
REMARK    4  A    between atoms: C_11  and  N_15
REMARK                            x       y       z     vdW  Elec       q    Type
REMARK                         _______ _______ _______ _____ _____    ______ ____
ROOT
ATOM      1  C   UNL     1       8.860  -2.248  24.016  0.00  0.00    +0.090 A 
ATOM      2  N   UNL     1       9.965  -3.061  24.160  0.00  0.00    -0.275 N 
ATOM      3  H   UNL     1      10.930  -2.778  24.024  0.00  0.00    +0.189 HD
ATOM      4  N   UNL     1       9.714  -4.315  24.558  0.00  0.00    -0.180 NA
ATOM      5  C   UNL     1       8.396  -4.299  24.745  0.00  0.00    +0.157 A 
ATOM      6  C   UNL     1       7.798  -3.042  24.447  0.00  0.00    +0.076 A 
ENDROOT
BRANCH   1   8
ATOM      7  C   UNL     1       9.629  -0.573  22.288  0.00  0.00    +0.130 A 
ATOM      8  C   UNL     1       9.031  -0.863  23.534  0.00  0.00    +0.045 A 
ATOM      9  C   UNL     1       8.604   0.225  24.306  0.00  0.00    +0.037 A 
ATOM     10  C   UNL     1       8.917   1.538  23.942  0.00  0.00    +0.083 A 
ATOM     11 CL   UNL     1       8.499   2.817  25.024  0.00  0.00    -0.080 Cl
ATOM     12  C   UNL     1       9.587   1.792  22.744  0.00  0.00    +0.139 A 
ATOM     13  C   UNL     1       9.913   0.739  21.893  0.00  0.00    +0.093 A 
BRANCH   7  14
ATOM     14  O   UNL     1       9.929  -1.598  21.424  0.00  0.00    -0.506 OA
ATOM     15  H   UNL     1      10.612  -1.304  20.798  0.00  0.00    +0.292 HD
ENDBRANCH   7  14
BRANCH  12  16
ATOM     16  O   UNL     1       9.919   3.073  22.401  0.00  0.00    -0.505 OA
ATOM     17  H   UNL     1      10.628   3.068  21.738  0.00  0.00    +0.292 HD
ENDBRANCH  12  16
ENDBRANCH   1   8
BRANCH   6  18
ATOM     18  N   UNL     1       6.475  -2.751  24.644  0.00  0.00    -0.325 N 
ATOM     19  C   UNL     1       5.976  -1.888  25.721  0.00  0.00    +0.120 C 
ATOM     20  C   UNL     1       4.667  -2.434  26.331  0.00  0.00    +0.100 C 
ATOM     21  N   UNL     1       3.621  -2.724  25.334  0.00  0.00    -0.313 NA
ATOM     22  H   UNL     1       2.832  -3.167  25.800  0.00  0.00    +0.122 HD
ATOM     23  C   UNL     1       4.175  -3.650  24.327  0.00  0.00    +0.100 C 
ATOM     24  C   UNL     1       5.451  -3.112  23.646  0.00  0.00    +0.120 C 
ENDBRANCH   6  18
TORSDOF 4
ENDMDL
MODEL 6
REMARK VINA RESULT:      -6.4      2.685      3.981
REMARK  Name = 
REMARK  4 active torsions:
REMARK  status: ('A' for Active; 'I' for Inactive)
REMARK    1  A    between atoms: O_1  and  C_2
REMARK    2  A    between atoms: C_4  and  O_5
REMARK    3  A    between atoms: C_9  and  C_10
REMARK    4  A    between atoms: C_11  and  N_15
REMARK                            x       y       z     vdW  Elec       q    Type
REMARK                         _______ _______ _______ _____ _____    ______ ____
ROOT
ATOM      1  C   UNL     1       6.571  -2.530  23.381  0.00  0.00    +0.090 A 
ATOM      2  N   UNL     1       5.920  -2.419  22.169  0.00  0.00    -0.275 N 
ATOM      3  H   UNL     1       5.860  -1.578  21.605  0.00  0.00    +0.189 HD
ATOM      4  N   UNL     1       5.366  -3.545  21.703  0.00  0.00    -0.180 NA
ATOM      5  C   UNL     1       5.729  -4.443  22.616  0.00  0.00    +0.157 A 
ATOM      6  C   UNL     1       6.497  -3.890  23.680  0.00  0.00    +0.076 A 
ENDROOT
BRANCH   1   8
ATOM      7  C   UNL     1       6.383  -0.337  24.621  0.00  0.00    +0.130 A 
ATOM      8  C   UNL     1       7.171  -1.332  24.000  0.00  0.00    +0.045 A 
ATOM      9  C   UNL     1       8.557  -1.136  23.991  0.00  0.00    +0.037 A 
ATOM     10  C   UNL     1       9.120   0.072  24.417  0.00  0.00    +0.083 A 
ATOM     11 CL   UNL     1      10.820   0.303  24.225  0.00  0.00    -0.080 Cl
ATOM     12  C   UNL     1       8.307   1.075  24.947  0.00  0.00    +0.139 A 
ATOM     13  C   UNL     1       6.939   0.860  25.086  0.00  0.00    +0.093 A 
BRANCH   7  14
ATOM     14  O   UNL     1       5.036  -0.547  24.793  0.00  0.00    -0.506 OA
ATOM     15  H   UNL     1       4.554  -0.209  24.019  0.00  0.00    +0.292 HD
ENDBRANCH   7  14
BRANCH  12  16
ATOM     16  O   UNL     1       8.853   2.266  25.337  0.00  0.00    -0.505 OA
ATOM     17  H   UNL     1       9.407   2.627  24.626  0.00  0.00    +0.292 HD
ENDBRANCH  12  16
ENDBRANCH   1   8
BRANCH   6  18
ATOM     18  N   UNL     1       7.058  -4.625  24.690  0.00  0.00    -0.325 N 
ATOM     19  C   UNL     1       6.287  -5.414  25.657  0.00  0.00    +0.120 C 
ATOM     20  C   UNL     1       6.879  -5.312  27.079  0.00  0.00    +0.100 C 
ATOM     21  N   UNL     1       8.320  -5.619  27.147  0.00  0.00    -0.313 NA
ATOM     22  H   UNL     1       8.653  -5.437  28.092  0.00  0.00    +0.122 HD
ATOM     23  C   UNL     1       9.033  -4.740  26.201  0.00  0.00    +0.100 C 
ATOM     24  C   UNL     1       8.512  -4.859  24.753  0.00  0.00    +0.120 C 
ENDBRANCH   6  18
TORSDOF 4
ENDMDL
MODEL 7
REMARK VINA RESULT:      -6.3      3.559      6.035
REMARK  Name = 
REMARK  4 active torsions:
REMARK  status: ('A' for Active; 'I' for Inactive)
REMARK    1  A    between atoms: O_1  and  C_2
REMARK    2  A    between atoms: C_4  and  O_5
REMARK    3  A    between atoms: C_9  and  C_10
REMARK    4  A    between atoms: C_11  and  N_15
REMARK                            x       y       z     vdW  Elec       q    Type
REMARK                         _______ _______ _______ _____ _____    ______ ____
ROOT
ATOM      1  C   UNL     1       7.490  -1.923  24.858  0.00  0.00    +0.090 A 
ATOM      2  N   UNL     1       7.772  -2.161  26.188  0.00  0.00    -0.275 N 
ATOM      3  H   UNL     1       7.505  -2.987  26.711  0.00  0.00    +0.189 HD
ATOM      4  N   UNL     1       8.502  -1.221  26.801  0.00  0.00    -0.180 NA
ATOM      5  C   UNL     1       8.763  -0.368  25.813  0.00  0.00    +0.157 A 
ATOM      6  C   UNL     1       8.182  -0.748  24.570  0.00  0.00    +0.076 A 
ENDROOT
BRANCH   1   8
ATOM      7  C   UNL     1       5.256  -2.972  24.319  0.00  0.00    +0.130 A 
ATOM      8  C   UNL     1       6.649  -2.878  24.109  0.00  0.00    +0.045 A 
ATOM      9  C   UNL     1       7.211  -3.736  23.155  0.00  0.00    +0.037 A 
ATOM     10  C   UNL     1       6.459  -4.759  22.570  0.00  0.00    +0.083 A 
ATOM     11 CL   UNL     1       7.258  -5.878  21.527  0.00  0.00    -0.080 Cl
ATOM     12  C   UNL     1       5.099  -4.884  22.862  0.00  0.00    +0.139 A 
ATOM     13  C   UNL     1       4.483  -3.968  23.709  0.00  0.00    +0.093 A 
BRANCH   7  14
ATOM     14  O   UNL     1       4.627  -2.057  25.128  0.00  0.00    -0.506 OA
ATOM     15  H   UNL     1       5.115  -1.217  25.107  0.00  0.00    +0.292 HD
ENDBRANCH   7  14
BRANCH  12  16
ATOM     16  O   UNL     1       4.370  -5.901  22.311  0.00  0.00    -0.505 OA
ATOM     17  H   UNL     1       3.706  -6.217  22.946  0.00  0.00    +0.292 HD
ENDBRANCH  12  16
ENDBRANCH   1   8
BRANCH   6  18
ATOM     18  N   UNL     1       8.379  -0.082  23.390  0.00  0.00    -0.325 N 
ATOM     19  C   UNL     1       9.609  -0.170  22.594  0.00  0.00    +0.120 C 
ATOM     20  C   UNL     1      10.003   1.198  21.997  0.00  0.00    +0.100 C 
ATOM     21  N   UNL     1       8.915   1.857  21.252  0.00  0.00    -0.313 NA
ATOM     22  H   UNL     1       9.219   2.788  20.975  0.00  0.00    +0.122 HD
ATOM     23  C   UNL     1       7.741   1.973  22.138  0.00  0.00    +0.100 C 
ATOM     24  C   UNL     1       7.275   0.615  22.706  0.00  0.00    +0.120 C 
ENDBRANCH   6  18
TORSDOF 4
ENDMDL
MODEL 8
REMARK VINA RESULT:      -6.1      3.616      6.201
REMARK  Name = 
REMARK  4 active torsions:
REMARK  status: ('A' for Active; 'I' for Inactive)
REMARK    1  A    between atoms: O_1  and  C_2
REMARK    2  A    between atoms: C_4  and  O_5
REMARK    3  A    between atoms: C_9  and  C_10
REMARK    4  A    between atoms: C_11  and  N_15
REMARK                            x       y       z     vdW  Elec       q    Type
REMARK                         _______ _______ _______ _____ _____    ______ ____
ROOT
ATOM      1  C   UNL     1       6.649  -1.083  24.774  0.00  0.00    +0.090 A 
ATOM      2  N   UNL     1       5.453  -0.930  25.443  0.00  0.00    -0.275 N 
ATOM      3  H   UNL     1       5.003  -1.633  26.020  0.00  0.00    +0.189 HD
ATOM      4  N   UNL     1       4.882   0.277  25.339  0.00  0.00    -0.180 NA
ATOM      5  C   UNL     1       5.776   0.959  24.628  0.00  0.00    +0.157 A 
ATOM      6  C   UNL     1       6.912   0.185  24.256  0.00  0.00    +0.076 A 
ENDROOT
BRANCH   1   8
ATOM      7  C   UNL     1       8.340  -2.699  25.728  0.00  0.00    +0.130 A 
ATOM      8  C   UNL     1       7.332  -2.392  24.788  0.00  0.00    +0.045 A 
ATOM      9  C   UNL     1       7.001  -3.385  23.858  0.00  0.00    +0.037 A 
ATOM     10  C   UNL     1       7.757  -4.557  23.751  0.00  0.00    +0.083 A 
ATOM     11 CL   UNL     1       7.392  -5.661  22.475  0.00  0.00    -0.080 Cl
ATOM     12  C   UNL     1       8.807  -4.797  24.639  0.00  0.00    +0.139 A 
ATOM     13  C   UNL     1       9.080  -3.886  25.656  0.00  0.00    +0.093 A 
BRANCH   7  14
ATOM     14  O   UNL     1       8.601  -1.825  26.756  0.00  0.00    -0.506 OA
ATOM     15  H   UNL     1       8.865  -0.964  26.389  0.00  0.00    +0.292 HD
ENDBRANCH   7  14
BRANCH  12  16
ATOM     16  O   UNL     1       9.565  -5.929  24.517  0.00  0.00    -0.505 OA
ATOM     17  H   UNL     1       9.253  -6.459  23.766  0.00  0.00    +0.292 HD
ENDBRANCH  12  16
ENDBRANCH   1   8
BRANCH   6  18
ATOM     18  N   UNL     1       8.005   0.684  23.600  0.00  0.00    -0.325 N 
ATOM     19  C   UNL     1       8.772   1.850  24.053  0.00  0.00    +0.120 C 
ATOM     20  C   UNL     1       9.203   2.746  22.872  0.00  0.00    +0.100 C 
ATOM     21  N   UNL     1       9.900   2.017  21.796  0.00  0.00    -0.313 NA
ATOM     22  H   UNL     1      10.064   2.652  21.018  0.00  0.00    +0.122 HD
ATOM     23  C   UNL     1       9.039   0.906  21.346  0.00  0.00    +0.100 C 
ATOM     24  C   UNL     1       8.637  -0.051  22.489  0.00  0.00    +0.120 C 
ENDBRANCH   6  18
TORSDOF 4
ENDMDL
MODEL 9
REMARK VINA RESULT:      -6.1      2.381      2.652
REMARK  Name = 
REMARK  4 active torsions:
REMARK  status: ('A' for Active; 'I' for Inactive)
REMARK    1  A    between atoms: O_1  and  C_2
REMARK    2  A    between atoms: C_4  and  O_5
REMARK    3  A    between atoms: C_9  and  C_10
REMARK    4  A    between atoms: C_11  and  N_15
REMARK                            x       y       z     vdW  Elec       q    Type
REMARK                         _______ _______ _______ _____ _____    ______ ____
ROOT
ATOM      1  C   UNL     1       8.489  -3.259  25.388  0.00  0.00    +0.090 A 
ATOM      2  N   UNL     1       8.952  -3.639  26.631  0.00  0.00    -0.275 N 
ATOM      3  H   UNL     1       9.485  -3.056  27.268  0.00  0.00    +0.189 HD
ATOM      4  N   UNL     1       8.614  -4.874  27.022  0.00  0.00    -0.180 NA
ATOM      5  C   UNL     1       7.843  -5.292  26.020  0.00  0.00    +0.157 A 
ATOM      6  C   UNL     1       7.703  -4.334  24.976  0.00  0.00    +0.076 A 
ENDROOT
BRANCH   1   8
ATOM      7  C   UNL     1       8.925  -0.786  25.672  0.00  0.00    +0.130 A 
ATOM      8  C   UNL     1       8.851  -1.932  24.849  0.00  0.00    +0.045 A 
ATOM      9  C   UNL     1       9.132  -1.761  23.488  0.00  0.00    +0.037 A 
ATOM     10  C   UNL     1       9.303  -0.487  22.939  0.00  0.00    +0.083 A 
ATOM     11 CL   UNL     1       9.485  -0.343  21.228  0.00  0.00    -0.080 Cl
ATOM     12  C   UNL     1       9.285   0.639  23.764  0.00  0.00    +0.139 A 
ATOM     13  C   UNL     1       9.134   0.492  25.140  0.00  0.00    +0.093 A 
BRANCH   7  14
ATOM     14  O   UNL     1       8.808  -0.919  27.034  0.00  0.00    -0.506 OA
ATOM     15  H   UNL     1       9.665  -0.730  27.452  0.00  0.00    +0.292 HD
ENDBRANCH   7  14
BRANCH  12  16
ATOM     16  O   UNL     1       9.424   1.888  23.224  0.00  0.00    -0.505 OA
ATOM     17  H   UNL     1       9.601   1.821  22.271  0.00  0.00    +0.292 HD
ENDBRANCH  12  16
ENDBRANCH   1   8
BRANCH   6  18
ATOM     18  N   UNL     1       6.893  -4.495  23.884  0.00  0.00    -0.325 N 
ATOM     19  C   UNL     1       5.567  -3.881  23.748  0.00  0.00    +0.120 C 
ATOM     20  C   UNL     1       4.556  -4.844  23.090  0.00  0.00    +0.100 C 
ATOM     21  N   UNL     1       5.026  -5.420  21.816  0.00  0.00    -0.313 NA
ATOM     22  H   UNL     1       4.351  -6.112  21.496  0.00  0.00    +0.122 HD
ATOM     23  C   UNL     1       6.326  -6.078  22.048  0.00  0.00    +0.100 C 
ATOM     24  C   UNL     1       7.386  -5.130  22.648  0.00  0.00    +0.120 C 
ENDBRANCH   6  18
TORSDOF 4
ENDMDL
