MODEL 1
REMARK VINA RESULT:      -9.9      0.000      0.000
REMARK  Name = 
REMARK  5 active torsions:
REMARK  status: ('A' for Active; 'I' for Inactive)
REMARK    1  A    between atoms: C_1  and  C_2
REMARK    2  A    between atoms: C_9  and  C_11
REMARK    3  A    between atoms: C_14  and  N_15
REMARK    4  A    between atoms: C_16  and  C_18
REMARK    5  A    between atoms: C_23  and  C_24
REMARK                            x       y       z     vdW  Elec       q    Type
REMARK                         _______ _______ _______ _____ _____    ______ ____
ROOT
ATOM      1  C   UNL     1       6.991  -2.173  22.709  0.00  0.00    +0.037 A 
ATOM      2  C   UNL     1       8.218  -1.959  22.075  0.00  0.00    +0.015 A 
ATOM      3  C   UNL     1       8.808  -0.687  22.088  0.00  0.00    +0.024 A 
ATOM      4  C   UNL     1       8.272   0.334  22.878  0.00  0.00    +0.034 A 
ATOM      5  C   UNL     1       7.144   0.060  23.654  0.00  0.00    +0.024 A 
ATOM      6  C   UNL     1       6.498  -1.176  23.558  0.00  0.00    +0.015 A 
ENDROOT
BRANCH   1  21
ATOM      7  C   UNL     1       2.748  -6.314  28.271  0.00  0.00    +0.086 C 
ATOM      8  C   UNL     1       3.777  -6.149  27.218  0.00  0.00    +0.105 A 
ATOM      9  N   UNL     1       3.662  -6.749  25.986  0.00  0.00    -0.345 N 
ATOM     10  H   UNL     1       2.901  -7.344  25.687  0.00  0.00    +0.167 HD
ATOM     11  C   UNL     1       4.764  -6.399  25.259  0.00  0.00    +0.045 A 
ATOM     12  C   UNL     1       5.070  -6.807  23.874  0.00  0.00    +0.075 C 
ATOM     13  C   UNL     1       5.192  -5.560  22.998  0.00  0.00    +0.120 C 
ATOM     14  N   UNL     1       6.180  -4.519  23.341  0.00  0.00    -0.266 N 
ATOM     15  C   UNL     1       7.158  -4.735  24.376  0.00  0.00    +0.046 A 
ATOM     16  C   UNL     1       6.804  -5.070  25.708  0.00  0.00    +0.023 A 
ATOM     17  C   UNL     1       7.752  -4.930  26.737  0.00  0.00    +0.012 A 
ATOM     18  C   UNL     1       9.055  -4.524  26.461  0.00  0.00    +0.001 A 
ATOM     19  C   UNL     1       9.444  -4.315  25.143  0.00  0.00    +0.002 A 
ATOM     20  C   UNL     1       8.511  -4.446  24.110  0.00  0.00    +0.024 A 
ATOM     21  C   UNL     1       6.122  -3.373  22.498  0.00  0.00    +0.251 C 
ATOM     22  O   UNL     1       5.342  -3.329  21.546  0.00  0.00    -0.270 OA
ATOM     23  C   UNL     1       5.501  -5.583  26.079  0.00  0.00    +0.094 A 
ATOM     24  N   UNL     1       4.895  -5.456  27.303  0.00  0.00    -0.232 NA
ENDBRANCH   1  21
BRANCH   4  25
ATOM     25  N   UNL     1       8.874   1.612  22.830  0.00  0.00    -0.281 N 
ATOM     26  H   UNL     1       8.731   2.132  21.977  0.00  0.00    +0.155 HD
ATOM     27  C   UNL     1       9.742   2.110  23.796  0.00  0.00    +0.249 C 
ATOM     28  O   UNL     1      10.158   1.458  24.747  0.00  0.00    -0.270 OA
BRANCH  27  29
ATOM     29  C   UNL     1      10.300   3.486  23.589  0.00  0.00    +0.045 A 
ATOM     30  C   UNL     1       9.507   4.654  23.776  0.00  0.00    -0.006 A 
ATOM     31  C   UNL     1      10.203   5.890  23.773  0.00  0.00    +0.009 A 
ATOM     32  C   UNL     1      11.584   5.983  23.595  0.00  0.00    +0.001 A 
ATOM     33  C   UNL     1      12.326   4.840  23.362  0.00  0.00    +0.001 A 
ATOM     34  C   UNL     1      11.693   3.600  23.359  0.00  0.00    +0.013 A 
BRANCH  30  35
ATOM     35  C   UNL     1       8.018   4.701  23.952  0.00  0.00    -0.017 A 
ATOM     36  C   UNL     1       7.163   4.815  22.832  0.00  0.00    +0.008 A 
ATOM     37  C   UNL     1       5.769   4.743  22.944  0.00  0.00    +0.001 A 
ATOM     38  C   UNL     1       5.180   4.602  24.192  0.00  0.00    +0.000 A 
ATOM     39  C   UNL     1       5.987   4.534  25.322  0.00  0.00    +0.001 A 
ATOM     40  C   UNL     1       7.385   4.561  25.202  0.00  0.00    +0.008 A 
ENDBRANCH  30  35
ENDBRANCH  27  29
ENDBRANCH   4  25
TORSDOF 4
ENDMDL
MODEL 2
REMARK VINA RESULT:      -8.9      1.998      2.435
REMARK  Name = 
REMARK  5 active torsions:
REMARK  status: ('A' for Active; 'I' for Inactive)
REMARK    1  A    between atoms: C_1  and  C_2
REMARK    2  A    between atoms: C_9  and  C_11
REMARK    3  A    between atoms: C_14  and  N_15
REMARK    4  A    between atoms: C_16  and  C_18
REMARK    5  A    between atoms: C_23  and  C_24
REMARK                            x       y       z     vdW  Elec       q    Type
REMARK                         _______ _______ _______ _____ _____    ______ ____
ROOT
ATOM      1  C   UNL     1       8.374  -2.730  23.450  0.00  0.00    +0.037 A 
ATOM      2  C   UNL     1       7.702  -1.778  22.678  0.00  0.00    +0.015 A 
ATOM      3  C   UNL     1       8.209  -0.476  22.562  0.00  0.00    +0.024 A 
ATOM      4  C   UNL     1       9.475  -0.162  23.064  0.00  0.00    +0.034 A 
ATOM      5  C   UNL     1      10.222  -1.169  23.678  0.00  0.00    +0.024 A 
ATOM      6  C   UNL     1       9.671  -2.437  23.886  0.00  0.00    +0.015 A 
ENDROOT
BRANCH   1  21
ATOM      7  C   UNL     1       0.536  -4.498  24.686  0.00  0.00    +0.086 C 
ATOM      8  C   UNL     1       1.953  -4.331  25.085  0.00  0.00    +0.105 A 
ATOM      9  N   UNL     1       2.745  -5.402  25.431  0.00  0.00    -0.345 N 
ATOM     10  H   UNL     1       2.453  -6.370  25.453  0.00  0.00    +0.167 HD
ATOM     11  C   UNL     1       3.980  -4.910  25.742  0.00  0.00    +0.045 A 
ATOM     12  C   UNL     1       5.157  -5.693  26.166  0.00  0.00    +0.075 C 
ATOM     13  C   UNL     1       6.296  -5.469  25.172  0.00  0.00    +0.120 C 
ATOM     14  N   UNL     1       6.789  -4.101  24.922  0.00  0.00    -0.266 N 
ATOM     15  C   UNL     1       6.347  -2.992  25.728  0.00  0.00    +0.046 A 
ATOM     16  C   UNL     1       4.979  -2.649  25.875  0.00  0.00    +0.023 A 
ATOM     17  C   UNL     1       4.629  -1.382  26.375  0.00  0.00    +0.012 A 
ATOM     18  C   UNL     1       5.606  -0.478  26.785  0.00  0.00    +0.001 A 
ATOM     19  C   UNL     1       6.943  -0.856  26.761  0.00  0.00    +0.002 A 
ATOM     20  C   UNL     1       7.307  -2.110  26.262  0.00  0.00    +0.024 A 
ATOM     21  C   UNL     1       7.784  -4.027  23.906  0.00  0.00    +0.251 C 
ATOM     22  O   UNL     1       8.204  -5.048  23.360  0.00  0.00    -0.270 OA
ATOM     23  C   UNL     1       3.893  -3.554  25.558  0.00  0.00    +0.094 A 
ATOM     24  N   UNL     1       2.624  -3.199  25.177  0.00  0.00    -0.232 NA
ENDBRANCH   1  21
BRANCH   4  25
ATOM     25  N   UNL     1       9.930   1.172  22.961  0.00  0.00    -0.281 N 
ATOM     26  H   UNL     1      10.597   1.352  22.225  0.00  0.00    +0.155 HD
ATOM     27  C   UNL     1       9.634   2.178  23.874  0.00  0.00    +0.249 C 
ATOM     28  O   UNL     1       9.027   1.995  24.924  0.00  0.00    -0.270 OA
BRANCH  27  29
ATOM     29  C   UNL     1      10.204   3.541  23.620  0.00  0.00    +0.045 A 
ATOM     30  C   UNL     1       9.414   4.720  23.739  0.00  0.00    -0.006 A 
ATOM     31  C   UNL     1      10.116   5.951  23.698  0.00  0.00    +0.009 A 
ATOM     32  C   UNL     1      11.501   6.031  23.546  0.00  0.00    +0.001 A 
ATOM     33  C   UNL     1      12.242   4.875  23.379  0.00  0.00    +0.001 A 
ATOM     34  C   UNL     1      11.602   3.639  23.416  0.00  0.00    +0.013 A 
BRANCH  30  35
ATOM     35  C   UNL     1       7.921   4.781  23.880  0.00  0.00    -0.017 A 
ATOM     36  C   UNL     1       7.081   4.535  22.771  0.00  0.00    +0.008 A 
ATOM     37  C   UNL     1       5.688   4.467  22.886  0.00  0.00    +0.001 A 
ATOM     38  C   UNL     1       5.083   4.690  24.115  0.00  0.00    +0.000 A 
ATOM     39  C   UNL     1       5.874   4.980  25.221  0.00  0.00    +0.001 A 
ATOM     40  C   UNL     1       7.273   5.004  25.110  0.00  0.00    +0.008 A 
ENDBRANCH  30  35
ENDBRANCH  27  29
ENDBRANCH   4  25
TORSDOF 4
ENDMDL
MODEL 3
REMARK VINA RESULT:      -8.6      1.810      2.261
REMARK  Name = 
REMARK  5 active torsions:
REMARK  status: ('A' for Active; 'I' for Inactive)
REMARK    1  A    between atoms: C_1  and  C_2
REMARK    2  A    between atoms: C_9  and  C_11
REMARK    3  A    between atoms: C_14  and  N_15
REMARK    4  A    between atoms: C_16  and  C_18
REMARK    5  A    between atoms: C_23  and  C_24
REMARK                            x       y       z     vdW  Elec       q    Type
REMARK                         _______ _______ _______ _____ _____    ______ ____
ROOT
ATOM      1  C   UNL     1       7.994  -2.408  23.426  0.00  0.00    +0.037 A 
ATOM      2  C   UNL     1       9.249  -2.121  23.971  0.00  0.00    +0.015 A 
ATOM      3  C   UNL     1       9.667  -0.791  24.123  0.00  0.00    +0.024 A 
ATOM      4  C   UNL     1       8.775   0.261  23.900  0.00  0.00    +0.034 A 
ATOM      5  C   UNL     1       7.463  -0.038  23.529  0.00  0.00    +0.024 A 
ATOM      6  C   UNL     1       7.080  -1.359  23.276  0.00  0.00    +0.015 A 
ENDROOT
BRANCH   1  21
ATOM      7  C   UNL     1       0.445  -5.358  22.795  0.00  0.00    +0.086 C 
ATOM      8  C   UNL     1       1.840  -5.337  23.294  0.00  0.00    +0.105 A 
ATOM      9  N   UNL     1       2.759  -6.294  22.933  0.00  0.00    -0.345 N 
ATOM     10  H   UNL     1       2.584  -7.081  22.322  0.00  0.00    +0.167 HD
ATOM     11  C   UNL     1       3.934  -5.987  23.559  0.00  0.00    +0.045 A 
ATOM     12  C   UNL     1       5.202  -6.734  23.462  0.00  0.00    +0.075 C 
ATOM     13  C   UNL     1       6.288  -5.814  22.903  0.00  0.00    +0.120 C 
ATOM     14  N   UNL     1       6.611  -4.556  23.603  0.00  0.00    -0.266 N 
ATOM     15  C   UNL     1       6.057  -4.263  24.900  0.00  0.00    +0.046 A 
ATOM     16  C   UNL     1       4.660  -4.235  25.149  0.00  0.00    +0.023 A 
ATOM     17  C   UNL     1       4.173  -3.617  26.314  0.00  0.00    +0.012 A 
ATOM     18  C   UNL     1       5.044  -3.083  27.261  0.00  0.00    +0.001 A 
ATOM     19  C   UNL     1       6.416  -3.218  27.083  0.00  0.00    +0.002 A 
ATOM     20  C   UNL     1       6.916  -3.826  25.928  0.00  0.00    +0.024 A 
ATOM     21  C   UNL     1       7.570  -3.752  22.924  0.00  0.00    +0.251 C 
ATOM     22  O   UNL     1       8.097  -4.144  21.883  0.00  0.00    -0.270 OA
ATOM     23  C   UNL     1       3.683  -4.840  24.267  0.00  0.00    +0.094 A 
ATOM     24  N   UNL     1       2.374  -4.458  24.120  0.00  0.00    -0.232 NA
ENDBRANCH   1  21
BRANCH   4  25
ATOM     25  N   UNL     1       9.249   1.586  24.026  0.00  0.00    -0.281 N 
ATOM     26  H   UNL     1       8.977   2.071  24.869  0.00  0.00    +0.155 HD
ATOM     27  C   UNL     1       9.920   2.281  23.025  0.00  0.00    +0.249 C 
ATOM     28  O   UNL     1      10.087   1.855  21.888  0.00  0.00    -0.270 OA
BRANCH  27  29
ATOM     29  C   UNL     1      10.351   3.686  23.319  0.00  0.00    +0.045 A 
ATOM     30  C   UNL     1       9.441   4.663  23.814  0.00  0.00    -0.006 A 
ATOM     31  C   UNL     1      10.013   5.880  24.265  0.00  0.00    +0.009 A 
ATOM     32  C   UNL     1      11.385   6.132  24.234  0.00  0.00    +0.001 A 
ATOM     33  C   UNL     1      12.245   5.189  23.701  0.00  0.00    +0.001 A 
ATOM     34  C   UNL     1      11.736   3.975  23.247  0.00  0.00    +0.013 A 
BRANCH  30  35
ATOM     35  C   UNL     1       7.948   4.536  23.880  0.00  0.00    -0.017 A 
ATOM     36  C   UNL     1       7.173   4.508  22.699  0.00  0.00    +0.008 A 
ATOM     37  C   UNL     1       5.793   4.273  22.713  0.00  0.00    +0.001 A 
ATOM     38  C   UNL     1       5.131   4.103  23.921  0.00  0.00    +0.000 A 
ATOM     39  C   UNL     1       5.852   4.170  25.108  0.00  0.00    +0.001 A 
ATOM     40  C   UNL     1       7.243   4.361  25.087  0.00  0.00    +0.008 A 
ENDBRANCH  30  35
ENDBRANCH  27  29
ENDBRANCH   4  25
TORSDOF 4
ENDMDL
MODEL 4
REMARK VINA RESULT:      -8.0      1.903      2.467
REMARK  Name = 
REMARK  5 active torsions:
REMARK  status: ('A' for Active; 'I' for Inactive)
REMARK    1  A    between atoms: C_1  and  C_2
REMARK    2  A    between atoms: C_9  and  C_11
REMARK    3  A    between atoms: C_14  and  N_15
REMARK    4  A    between atoms: C_16  and  C_18
REMARK    5  A    between atoms: C_23  and  C_24
REMARK                            x       y       z     vdW  Elec       q    Type
REMARK                         _______ _______ _______ _____ _____    ______ ____
ROOT
ATOM      1  C   UNL     1       5.991  -0.861  25.295  0.00  0.00    +0.037 A 
ATOM      2  C   UNL     1       6.063  -0.195  24.069  0.00  0.00    +0.015 A 
ATOM      3  C   UNL     1       6.937   0.889  23.902  0.00  0.00    +0.024 A 
ATOM      4  C   UNL     1       7.871   1.204  24.893  0.00  0.00    +0.034 A 
ATOM      5  C   UNL     1       7.917   0.417  26.046  0.00  0.00    +0.024 A 
ATOM      6  C   UNL     1       6.975  -0.594  26.254  0.00  0.00    +0.015 A 
ENDROOT
BRANCH   1  21
ATOM      7  C   UNL     1       6.393  -7.105  30.485  0.00  0.00    +0.086 C 
ATOM      8  C   UNL     1       6.164  -6.469  29.166  0.00  0.00    +0.105 A 
ATOM      9  N   UNL     1       4.915  -6.402  28.595  0.00  0.00    -0.345 N 
ATOM     10  H   UNL     1       4.062  -6.770  28.995  0.00  0.00    +0.167 HD
ATOM     11  C   UNL     1       5.050  -5.761  27.397  0.00  0.00    +0.045 A 
ATOM     12  C   UNL     1       3.972  -5.458  26.436  0.00  0.00    +0.075 C 
ATOM     13  C   UNL     1       3.893  -3.946  26.228  0.00  0.00    +0.120 C 
ATOM     14  N   UNL     1       5.080  -3.211  25.750  0.00  0.00    -0.266 N 
ATOM     15  C   UNL     1       6.256  -3.910  25.299  0.00  0.00    +0.046 A 
ATOM     16  C   UNL     1       6.955  -4.839  26.113  0.00  0.00    +0.023 A 
ATOM     17  C   UNL     1       8.262  -5.223  25.765  0.00  0.00    +0.012 A 
ATOM     18  C   UNL     1       8.862  -4.752  24.600  0.00  0.00    +0.001 A 
ATOM     19  C   UNL     1       8.137  -3.941  23.735  0.00  0.00    +0.002 A 
ATOM     20  C   UNL     1       6.838  -3.547  24.069  0.00  0.00    +0.024 A 
ATOM     21  C   UNL     1       4.896  -1.800  25.691  0.00  0.00    +0.251 C 
ATOM     22  O   UNL     1       3.808  -1.294  25.967  0.00  0.00    -0.270 OA
ATOM     23  C   UNL     1       6.382  -5.450  27.295  0.00  0.00    +0.094 A 
ATOM     24  N   UNL     1       7.071  -5.917  28.384  0.00  0.00    -0.232 NA
ENDBRANCH   1  21
BRANCH   4  25
ATOM     25  N   UNL     1       8.705   2.328  24.702  0.00  0.00    -0.281 N 
ATOM     26  H   UNL     1       8.649   3.041  25.414  0.00  0.00    +0.155 HD
ATOM     27  C   UNL     1       9.459   2.564  23.557  0.00  0.00    +0.249 C 
ATOM     28  O   UNL     1       9.406   1.872  22.547  0.00  0.00    -0.270 OA
BRANCH  27  29
ATOM     29  C   UNL     1      10.288   3.812  23.513  0.00  0.00    +0.045 A 
ATOM     30  C   UNL     1       9.728   5.095  23.771  0.00  0.00    -0.006 A 
ATOM     31  C   UNL     1      10.650   6.162  23.921  0.00  0.00    +0.009 A 
ATOM     32  C   UNL     1      12.032   5.991  23.824  0.00  0.00    +0.001 A 
ATOM     33  C   UNL     1      12.551   4.745  23.521  0.00  0.00    +0.001 A 
ATOM     34  C   UNL     1      11.690   3.663  23.366  0.00  0.00    +0.013 A 
BRANCH  30  35
ATOM     35  C   UNL     1       8.268   5.425  23.874  0.00  0.00    -0.017 A 
ATOM     36  C   UNL     1       7.699   5.799  25.112  0.00  0.00    +0.008 A 
ATOM     37  C   UNL     1       6.371   6.228  25.228  0.00  0.00    +0.001 A 
ATOM     38  C   UNL     1       5.552   6.253  24.108  0.00  0.00    +0.000 A 
ATOM     39  C   UNL     1       6.063   5.849  22.880  0.00  0.00    +0.001 A 
ATOM     40  C   UNL     1       7.407   5.462  22.761  0.00  0.00    +0.008 A 
ENDBRANCH  30  35
ENDBRANCH  27  29
ENDBRANCH   4  25
TORSDOF 4
ENDMDL
MODEL 5
REMARK VINA RESULT:      -7.9      2.131      3.906
REMARK  Name = 
REMARK  5 active torsions:
REMARK  status: ('A' for Active; 'I' for Inactive)
REMARK    1  A    between atoms: C_1  and  C_2
REMARK    2  A    between atoms: C_9  and  C_11
REMARK    3  A    between atoms: C_14  and  N_15
REMARK    4  A    between atoms: C_16  and  C_18
REMARK    5  A    between atoms: C_23  and  C_24
REMARK                            x       y       z     vdW  Elec       q    Type
REMARK                         _______ _______ _______ _____ _____    ______ ____
ROOT
ATOM      1  C   UNL     1       8.554  -1.443  24.189  0.00  0.00    +0.037 A 
ATOM      2  C   UNL     1       7.534  -1.198  23.266  0.00  0.00    +0.015 A 
ATOM      3  C   UNL     1       7.169   0.118  22.948  0.00  0.00    +0.024 A 
ATOM      4  C   UNL     1       7.930   1.195  23.410  0.00  0.00    +0.034 A 
ATOM      5  C   UNL     1       9.059   0.934  24.188  0.00  0.00    +0.024 A 
ATOM      6  C   UNL     1       9.359  -0.371  24.590  0.00  0.00    +0.015 A 
ENDROOT
BRANCH   1  21
ATOM      7  C   UNL     1       3.262  -7.456  25.580  0.00  0.00    +0.086 C 
ATOM      8  C   UNL     1       4.242  -6.414  25.968  0.00  0.00    +0.105 A 
ATOM      9  N   UNL     1       5.473  -6.730  26.494  0.00  0.00    -0.345 N 
ATOM     10  H   UNL     1       5.820  -7.665  26.668  0.00  0.00    +0.167 HD
ATOM     11  C   UNL     1       6.124  -5.555  26.740  0.00  0.00    +0.045 A 
ATOM     12  C   UNL     1       7.480  -5.402  27.302  0.00  0.00    +0.075 C 
ATOM     13  C   UNL     1       8.358  -4.651  26.301  0.00  0.00    +0.120 C 
ATOM     14  N   UNL     1       7.956  -3.308  25.840  0.00  0.00    -0.266 N 
ATOM     15  C   UNL     1       6.854  -2.612  26.450  0.00  0.00    +0.046 A 
ATOM     16  C   UNL     1       5.546  -3.158  26.520  0.00  0.00    +0.023 A 
ATOM     17  C   UNL     1       4.454  -2.318  26.804  0.00  0.00    +0.012 A 
ATOM     18  C   UNL     1       4.642  -0.966  27.077  0.00  0.00    +0.001 A 
ATOM     19  C   UNL     1       5.932  -0.450  27.133  0.00  0.00    +0.002 A 
ATOM     20  C   UNL     1       7.027  -1.272  26.849  0.00  0.00    +0.024 A 
ATOM     21  C   UNL     1       8.813  -2.765  24.841  0.00  0.00    +0.251 C 
ATOM     22  O   UNL     1       9.818  -3.374  24.472  0.00  0.00    -0.270 OA
ATOM     23  C   UNL     1       5.262  -4.567  26.338  0.00  0.00    +0.094 A 
ATOM     24  N   UNL     1       4.085  -5.108  25.886  0.00  0.00    -0.232 NA
ENDBRANCH   1  21
BRANCH   4  25
ATOM     25  N   UNL     1       7.503   2.506  23.100  0.00  0.00    -0.281 N 
ATOM     26  H   UNL     1       7.634   2.795  22.142  0.00  0.00    +0.155 HD
ATOM     27  C   UNL     1       7.066   3.435  24.039  0.00  0.00    +0.249 C 
ATOM     28  O   UNL     1       7.097   3.252  25.251  0.00  0.00    -0.270 OA
BRANCH  27  29
ATOM     29  C   UNL     1       6.653   4.788  23.542  0.00  0.00    +0.045 A 
ATOM     30  C   UNL     1       7.598   5.835  23.342  0.00  0.00    -0.006 A 
ATOM     31  C   UNL     1       7.124   6.984  22.659  0.00  0.00    +0.009 A 
ATOM     32  C   UNL     1       5.811   7.108  22.202  0.00  0.00    +0.001 A 
ATOM     33  C   UNL     1       4.897   6.100  22.454  0.00  0.00    +0.001 A 
ATOM     34  C   UNL     1       5.311   4.949  23.117  0.00  0.00    +0.013 A 
BRANCH  30  35
ATOM     35  C   UNL     1       9.026   5.846  23.802  0.00  0.00    -0.017 A 
ATOM     36  C   UNL     1       9.982   4.992  23.207  0.00  0.00    +0.008 A 
ATOM     37  C   UNL     1      11.344   5.056  23.524  0.00  0.00    +0.001 A 
ATOM     38  C   UNL     1      11.790   5.949  24.487  0.00  0.00    +0.000 A 
ATOM     39  C   UNL     1      10.872   6.774  25.128  0.00  0.00    +0.001 A 
ATOM     40  C   UNL     1       9.514   6.738  24.775  0.00  0.00    +0.008 A 
ENDBRANCH  30  35
ENDBRANCH  27  29
ENDBRANCH   4  25
TORSDOF 4
ENDMDL
MODEL 6
REMARK VINA RESULT:      -7.8      2.210      9.940
REMARK  Name = 
REMARK  5 active torsions:
REMARK  status: ('A' for Active; 'I' for Inactive)
REMARK    1  A    between atoms: C_1  and  C_2
REMARK    2  A    between atoms: C_9  and  C_11
REMARK    3  A    between atoms: C_14  and  N_15
REMARK    4  A    between atoms: C_16  and  C_18
REMARK    5  A    between atoms: C_23  and  C_24
REMARK                            x       y       z     vdW  Elec       q    Type
REMARK                         _______ _______ _______ _____ _____    ______ ____
ROOT
ATOM      1  C   UNL     1       9.499  -0.521  24.353  0.00  0.00    +0.037 A 
ATOM      2  C   UNL     1       8.667  -0.716  25.459  0.00  0.00    +0.015 A 
ATOM      3  C   UNL     1       7.597  -1.619  25.389  0.00  0.00    +0.024 A 
ATOM      4  C   UNL     1       7.454  -2.462  24.284  0.00  0.00    +0.034 A 
ATOM      5  C   UNL     1       8.397  -2.389  23.257  0.00  0.00    +0.024 A 
ATOM      6  C   UNL     1       9.400  -1.415  23.282  0.00  0.00    +0.015 A 
ENDROOT
BRANCH   1  21
ATOM      7  C   UNL     1       8.650   7.108  27.032  0.00  0.00    +0.086 C 
ATOM      8  C   UNL     1       8.822   6.060  25.999  0.00  0.00    +0.105 A 
ATOM      9  N   UNL     1       9.983   5.935  25.272  0.00  0.00    -0.345 N 
ATOM     10  H   UNL     1      10.801   6.523  25.360  0.00  0.00    +0.167 HD
ATOM     11  C   UNL     1       9.816   4.884  24.416  0.00  0.00    +0.045 A 
ATOM     12  C   UNL     1      10.804   4.377  23.444  0.00  0.00    +0.075 C 
ATOM     13  C   UNL     1      11.121   2.916  23.764  0.00  0.00    +0.120 C 
ATOM     14  N   UNL     1      10.032   1.921  23.792  0.00  0.00    -0.266 N 
ATOM     15  C   UNL     1       8.705   2.258  23.345  0.00  0.00    +0.046 A 
ATOM     16  C   UNL     1       7.960   3.332  23.896  0.00  0.00    +0.023 A 
ATOM     17  C   UNL     1       6.572   3.401  23.676  0.00  0.00    +0.012 A 
ATOM     18  C   UNL     1       5.925   2.464  22.875  0.00  0.00    +0.001 A 
ATOM     19  C   UNL     1       6.669   1.482  22.231  0.00  0.00    +0.002 A 
ATOM     20  C   UNL     1       8.048   1.398  22.443  0.00  0.00    +0.024 A 
ATOM     21  C   UNL     1      10.452   0.622  24.196  0.00  0.00    +0.251 C 
ATOM     22  O   UNL     1      11.638   0.388  24.430  0.00  0.00    -0.270 OA
ATOM     23  C   UNL     1       8.558   4.401  24.669  0.00  0.00    +0.094 A 
ATOM     24  N   UNL     1       7.937   5.154  25.633  0.00  0.00    -0.232 NA
ENDBRANCH   1  21
BRANCH   4  25
ATOM     25  N   UNL     1       6.339  -3.329  24.236  0.00  0.00    -0.281 N 
ATOM     26  H   UNL     1       5.439  -2.881  24.142  0.00  0.00    +0.155 HD
ATOM     27  C   UNL     1       6.399  -4.702  24.451  0.00  0.00    +0.249 C 
ATOM     28  O   UNL     1       7.410  -5.297  24.805  0.00  0.00    -0.270 OA
BRANCH  27  29
ATOM     29  C   UNL     1       5.118  -5.477  24.370  0.00  0.00    +0.045 A 
ATOM     30  C   UNL     1       4.327  -5.742  25.524  0.00  0.00    -0.006 A 
ATOM     31  C   UNL     1       3.036  -6.281  25.288  0.00  0.00    +0.009 A 
ATOM     32  C   UNL     1       2.548  -6.549  24.008  0.00  0.00    +0.001 A 
ATOM     33  C   UNL     1       3.354  -6.333  22.905  0.00  0.00    +0.001 A 
ATOM     34  C   UNL     1       4.629  -5.801  23.081  0.00  0.00    +0.013 A 
BRANCH  30  35
ATOM     35  C   UNL     1       4.734  -5.528  26.952  0.00  0.00    -0.017 A 
ATOM     36  C   UNL     1       4.437  -4.314  27.613  0.00  0.00    +0.008 A 
ATOM     37  C   UNL     1       4.693  -4.121  28.975  0.00  0.00    +0.001 A 
ATOM     38  C   UNL     1       5.302  -5.125  29.715  0.00  0.00    +0.000 A 
ATOM     39  C   UNL     1       5.651  -6.316  29.089  0.00  0.00    +0.001 A 
ATOM     40  C   UNL     1       5.351  -6.523  27.734  0.00  0.00    +0.008 A 
ENDBRANCH  30  35
ENDBRANCH  27  29
ENDBRANCH   4  25
TORSDOF 4
ENDMDL
MODEL 7
REMARK VINA RESULT:      -7.8      1.628      3.212
REMARK  Name = 
REMARK  5 active torsions:
REMARK  status: ('A' for Active; 'I' for Inactive)
REMARK    1  A    between atoms: C_1  and  C_2
REMARK    2  A    between atoms: C_9  and  C_11
REMARK    3  A    between atoms: C_14  and  N_15
REMARK    4  A    between atoms: C_16  and  C_18
REMARK    5  A    between atoms: C_23  and  C_24
REMARK                            x       y       z     vdW  Elec       q    Type
REMARK                         _______ _______ _______ _____ _____    ______ ____
ROOT
ATOM      1  C   UNL     1       6.759  -1.632  23.616  0.00  0.00    +0.037 A 
ATOM      2  C   UNL     1       7.983  -0.964  23.514  0.00  0.00    +0.015 A 
ATOM      3  C   UNL     1       8.173   0.266  24.159  0.00  0.00    +0.024 A 
ATOM      4  C   UNL     1       7.213   0.754  25.050  0.00  0.00    +0.034 A 
ATOM      5  C   UNL     1       6.068  -0.008  25.287  0.00  0.00    +0.024 A 
ATOM      6  C   UNL     1       5.834  -1.182  24.564  0.00  0.00    +0.015 A 
ENDROOT
BRANCH   1  21
ATOM      7  C   UNL     1       1.970  -7.917  25.526  0.00  0.00    +0.086 C 
ATOM      8  C   UNL     1       3.230  -7.277  25.079  0.00  0.00    +0.105 A 
ATOM      9  N   UNL     1       3.697  -7.406  23.792  0.00  0.00    -0.345 N 
ATOM     10  H   UNL     1       3.252  -7.933  23.052  0.00  0.00    +0.167 HD
ATOM     11  C   UNL     1       4.865  -6.703  23.711  0.00  0.00    +0.045 A 
ATOM     12  C   UNL     1       5.720  -6.554  22.518  0.00  0.00    +0.075 C 
ATOM     13  C   UNL     1       5.837  -5.071  22.164  0.00  0.00    +0.120 C 
ATOM     14  N   UNL     1       6.365  -4.122  23.162  0.00  0.00    -0.266 N 
ATOM     15  C   UNL     1       6.945  -4.585  24.396  0.00  0.00    +0.046 A 
ATOM     16  C   UNL     1       6.241  -5.410  25.312  0.00  0.00    +0.023 A 
ATOM     17  C   UNL     1       6.711  -5.546  26.630  0.00  0.00    +0.012 A 
ATOM     18  C   UNL     1       7.892  -4.930  27.038  0.00  0.00    +0.001 A 
ATOM     19  C   UNL     1       8.651  -4.223  26.112  0.00  0.00    +0.002 A 
ATOM     20  C   UNL     1       8.195  -4.076  24.799  0.00  0.00    +0.024 A 
ATOM     21  C   UNL     1       6.331  -2.763  22.736  0.00  0.00    +0.251 C 
ATOM     22  O   UNL     1       5.943  -2.467  21.605  0.00  0.00    -0.270 OA
ATOM     23  C   UNL     1       5.054  -6.160  24.956  0.00  0.00    +0.094 A 
ATOM     24  N   UNL     1       4.049  -6.544  25.807  0.00  0.00    -0.232 NA
ENDBRANCH   1  21
BRANCH   4  25
ATOM     25  N   UNL     1       7.426   2.018  25.646  0.00  0.00    -0.281 N 
ATOM     26  H   UNL     1       7.781   2.002  26.591  0.00  0.00    +0.155 HD
ATOM     27  C   UNL     1       7.050   3.230  25.078  0.00  0.00    +0.249 C 
ATOM     28  O   UNL     1       6.402   3.331  24.042  0.00  0.00    -0.270 OA
BRANCH  27  29
ATOM     29  C   UNL     1       7.344   4.483  25.848  0.00  0.00    +0.045 A 
ATOM     30  C   UNL     1       8.461   5.309  25.538  0.00  0.00    -0.006 A 
ATOM     31  C   UNL     1       8.502   6.572  26.182  0.00  0.00    +0.009 A 
ATOM     32  C   UNL     1       7.519   7.003  27.075  0.00  0.00    +0.001 A 
ATOM     33  C   UNL     1       6.471   6.161  27.401  0.00  0.00    +0.001 A 
ATOM     34  C   UNL     1       6.381   4.911  26.794  0.00  0.00    +0.013 A 
BRANCH  30  35
ATOM     35  C   UNL     1       9.598   4.965  24.622  0.00  0.00    -0.017 A 
ATOM     36  C   UNL     1      10.515   5.957  24.206  0.00  0.00    +0.008 A 
ATOM     37  C   UNL     1      11.654   5.654  23.450  0.00  0.00    +0.001 A 
ATOM     38  C   UNL     1      11.889   4.349  23.044  0.00  0.00    +0.000 A 
ATOM     39  C   UNL     1      10.985   3.352  23.395  0.00  0.00    +0.001 A 
ATOM     40  C   UNL     1       9.868   3.652  24.190  0.00  0.00    +0.008 A 
ENDBRANCH  30  35
ENDBRANCH  27  29
ENDBRANCH   4  25
TORSDOF 4
ENDMDL
MODEL 8
REMARK VINA RESULT:      -7.7      2.241      9.772
REMARK  Name = 
REMARK  5 active torsions:
REMARK  status: ('A' for Active; 'I' for Inactive)
REMARK    1  A    between atoms: C_1  and  C_2
REMARK    2  A    between atoms: C_9  and  C_11
REMARK    3  A    between atoms: C_14  and  N_15
REMARK    4  A    between atoms: C_16  and  C_18
REMARK    5  A    between atoms: C_23  and  C_24
REMARK                            x       y       z     vdW  Elec       q    Type
REMARK                         _______ _______ _______ _____ _____    ______ ____
ROOT
ATOM      1  C   UNL     1       9.192  -2.478  24.275  0.00  0.00    +0.037 A 
ATOM      2  C   UNL     1       9.132  -2.161  25.635  0.00  0.00    +0.015 A 
ATOM      3  C   UNL     1       8.318  -2.906  26.500  0.00  0.00    +0.024 A 
ATOM      4  C   UNL     1       7.697  -4.076  26.054  0.00  0.00    +0.034 A 
ATOM      5  C   UNL     1       7.908  -4.488  24.737  0.00  0.00    +0.024 A 
ATOM      6  C   UNL     1       8.633  -3.688  23.850  0.00  0.00    +0.015 A 
ENDROOT
BRANCH   1  21
ATOM      7  C   UNL     1      10.495   5.537  24.671  0.00  0.00    +0.086 C 
ATOM      8  C   UNL     1       9.885   4.302  24.125  0.00  0.00    +0.105 A 
ATOM      9  N   UNL     1      10.193   3.829  22.870  0.00  0.00    -0.345 N 
ATOM     10  H   UNL     1      10.834   4.260  22.217  0.00  0.00    +0.167 HD
ATOM     11  C   UNL     1       9.468   2.688  22.677  0.00  0.00    +0.045 A 
ATOM     12  C   UNL     1       9.479   1.833  21.474  0.00  0.00    +0.075 C 
ATOM     13  C   UNL     1       9.928   0.424  21.861  0.00  0.00    +0.120 C 
ATOM     14  N   UNL     1       9.176  -0.327  22.885  0.00  0.00    -0.266 N 
ATOM     15  C   UNL     1       7.922   0.164  23.395  0.00  0.00    +0.046 A 
ATOM     16  C   UNL     1       7.785   1.442  23.997  0.00  0.00    +0.023 A 
ATOM     17  C   UNL     1       6.649   1.728  24.774  0.00  0.00    +0.012 A 
ATOM     18  C   UNL     1       5.624   0.796  24.916  0.00  0.00    +0.001 A 
ATOM     19  C   UNL     1       5.693  -0.410  24.228  0.00  0.00    +0.002 A 
ATOM     20  C   UNL     1       6.818  -0.710  23.454  0.00  0.00    +0.024 A 
ATOM     21  C   UNL     1       9.757  -1.584  23.216  0.00  0.00    +0.251 C 
ATOM     22  O   UNL     1      10.761  -1.988  22.630  0.00  0.00    -0.270 OA
ATOM     23  C   UNL     1       8.756   2.504  23.834  0.00  0.00    +0.094 A 
ATOM     24  N   UNL     1       8.999   3.526  24.717  0.00  0.00    -0.232 NA
ENDBRANCH   1  21
BRANCH   4  25
ATOM     25  N   UNL     1       6.853  -4.774  26.947  0.00  0.00    -0.281 N 
ATOM     26  H   UNL     1       7.224  -5.637  27.317  0.00  0.00    +0.155 HD
ATOM     27  C   UNL     1       5.533  -4.426  27.218  0.00  0.00    +0.249 C 
ATOM     28  O   UNL     1       4.926  -3.534  26.636  0.00  0.00    -0.270 OA
BRANCH  27  29
ATOM     29  C   UNL     1       4.772  -5.279  28.188  0.00  0.00    +0.045 A 
ATOM     30  C   UNL     1       3.821  -6.245  27.752  0.00  0.00    -0.006 A 
ATOM     31  C   UNL     1       3.339  -7.139  28.742  0.00  0.00    +0.009 A 
ATOM     32  C   UNL     1       3.754  -7.093  30.074  0.00  0.00    +0.001 A 
ATOM     33  C   UNL     1       4.639  -6.113  30.485  0.00  0.00    +0.001 A 
ATOM     34  C   UNL     1       5.146  -5.212  29.553  0.00  0.00    +0.013 A 
BRANCH  30  35
ATOM     35  C   UNL     1       3.269  -6.390  26.365  0.00  0.00    -0.017 A 
ATOM     36  C   UNL     1       2.043  -5.784  26.009  0.00  0.00    +0.008 A 
ATOM     37  C   UNL     1       1.554  -5.795  24.697  0.00  0.00    +0.001 A 
ATOM     38  C   UNL     1       2.257  -6.458  23.702  0.00  0.00    +0.000 A 
ATOM     39  C   UNL     1       3.445  -7.106  24.023  0.00  0.00    +0.001 A 
ATOM     40  C   UNL     1       3.954  -7.054  25.330  0.00  0.00    +0.008 A 
ENDBRANCH  30  35
ENDBRANCH  27  29
ENDBRANCH   4  25
TORSDOF 4
ENDMDL
MODEL 9
REMARK VINA RESULT:      -7.6      2.576     10.309
REMARK  Name = 
REMARK  5 active torsions:
REMARK  status: ('A' for Active; 'I' for Inactive)
REMARK    1  A    between atoms: C_1  and  C_2
REMARK    2  A    between atoms: C_9  and  C_11
REMARK    3  A    between atoms: C_14  and  N_15
REMARK    4  A    between atoms: C_16  and  C_18
REMARK    5  A    between atoms: C_23  and  C_24
REMARK                            x       y       z     vdW  Elec       q    Type
REMARK                         _______ _______ _______ _____ _____    ______ ____
ROOT
ATOM      1  C   UNL     1       6.906   0.337  25.912  0.00  0.00    +0.037 A 
ATOM      2  C   UNL     1       7.219  -0.793  26.673  0.00  0.00    +0.015 A 
ATOM      3  C   UNL     1       6.698  -2.047  26.324  0.00  0.00    +0.024 A 
ATOM      4  C   UNL     1       6.008  -2.217  25.120  0.00  0.00    +0.034 A 
ATOM      5  C   UNL     1       5.854  -1.117  24.274  0.00  0.00    +0.024 A 
ATOM      6  C   UNL     1       6.282   0.152  24.673  0.00  0.00    +0.015 A 
ENDROOT
BRANCH   1  21
ATOM      7  C   UNL     1       6.453   7.107  21.433  0.00  0.00    +0.086 C 
ATOM      8  C   UNL     1       7.131   6.113  22.298  0.00  0.00    +0.105 A 
ATOM      9  N   UNL     1       7.532   6.413  23.579  0.00  0.00    -0.345 N 
ATOM     10  H   UNL     1       7.417   7.306  24.040  0.00  0.00    +0.167 HD
ATOM     11  C   UNL     1       8.116   5.292  24.095  0.00  0.00    +0.045 A 
ATOM     12  C   UNL     1       8.693   5.144  25.446  0.00  0.00    +0.075 C 
ATOM     13  C   UNL     1       7.959   4.026  26.187  0.00  0.00    +0.120 C 
ATOM     14  N   UNL     1       7.924   2.668  25.609  0.00  0.00    -0.266 N 
ATOM     15  C   UNL     1       8.719   2.328  24.458  0.00  0.00    +0.046 A 
ATOM     16  C   UNL     1       8.628   3.031  23.229  0.00  0.00    +0.023 A 
ATOM     17  C   UNL     1       9.155   2.457  22.058  0.00  0.00    +0.012 A 
ATOM     18  C   UNL     1       9.820   1.234  22.096  0.00  0.00    +0.001 A 
ATOM     19  C   UNL     1      10.023   0.601  23.316  0.00  0.00    +0.002 A 
ATOM     20  C   UNL     1       9.501   1.157  24.488  0.00  0.00    +0.024 A 
ATOM     21  C   UNL     1       7.130   1.749  26.353  0.00  0.00    +0.251 C 
ATOM     22  O   UNL     1       6.591   2.091  27.407  0.00  0.00    -0.270 OA
ATOM     23  C   UNL     1       8.033   4.346  23.107  0.00  0.00    +0.094 A 
ATOM     24  N   UNL     1       7.445   4.871  21.984  0.00  0.00    -0.232 NA
ENDBRANCH   1  21
BRANCH   4  25
ATOM     25  N   UNL     1       5.464  -3.488  24.828  0.00  0.00    -0.281 N 
ATOM     26  H   UNL     1       6.097  -4.147  24.399  0.00  0.00    +0.155 HD
ATOM     27  C   UNL     1       4.119  -3.818  24.958  0.00  0.00    +0.249 C 
ATOM     28  O   UNL     1       3.240  -3.014  25.247  0.00  0.00    -0.270 OA
BRANCH  27  29
ATOM     29  C   UNL     1       3.706  -5.214  24.598  0.00  0.00    +0.045 A 
ATOM     30  C   UNL     1       3.752  -6.278  25.542  0.00  0.00    -0.006 A 
ATOM     31  C   UNL     1       3.126  -7.489  25.152  0.00  0.00    +0.009 A 
ATOM     32  C   UNL     1       2.497  -7.655  23.917  0.00  0.00    +0.001 A 
ATOM     33  C   UNL     1       2.510  -6.624  22.995  0.00  0.00    +0.001 A 
ATOM     34  C   UNL     1       3.108  -5.412  23.329  0.00  0.00    +0.013 A 
BRANCH  30  35
ATOM     35  C   UNL     1       4.414  -6.247  26.888  0.00  0.00    -0.017 A 
ATOM     36  C   UNL     1       5.814  -6.092  27.000  0.00  0.00    +0.008 A 
ATOM     37  C   UNL     1       6.455  -5.939  28.236  0.00  0.00    +0.001 A 
ATOM     38  C   UNL     1       5.716  -5.984  29.409  0.00  0.00    +0.000 A 
ATOM     39  C   UNL     1       4.341  -6.181  29.342  0.00  0.00    +0.001 A 
ATOM     40  C   UNL     1       3.697  -6.289  28.099  0.00  0.00    +0.008 A 
ENDBRANCH  30  35
ENDBRANCH  27  29
ENDBRANCH   4  25
TORSDOF 4
ENDMDL
