MODEL 1
REMARK VINA RESULT:      -4.8      0.000      0.000
REMARK  Name = 
REMARK  2 active torsions:
REMARK  status: ('A' for Active; 'I' for Inactive)
REMARK    1  A    between atoms: C_2  and  C_4
REMARK    2  A    between atoms: C_9  and  O_10
REMARK                            x       y       z     vdW  Elec       q    Type
REMARK                         _______ _______ _______ _____ _____    ______ ____
ROOT
ATOM      1  C   UNL     1       9.790  -0.775  23.234  0.00  0.00    +0.078 A 
ATOM      2  C   UNL     1       9.754  -0.026  22.047  0.00  0.00    +0.129 A 
ATOM      3  C   UNL     1      10.047   1.343  22.062  0.00  0.00    +0.046 A 
ATOM      4  C   UNL     1      10.371   1.977  23.262  0.00  0.00    +0.004 A 
ATOM      5  C   UNL     1      10.406   1.247  24.448  0.00  0.00    +0.001 A 
ATOM      6  C   UNL     1      10.120  -0.120  24.433  0.00  0.00    +0.017 A 
ENDROOT
BRANCH   1  10
ATOM      7  N   UNL     1       8.355  -2.696  22.741  0.00  0.00    -0.325 N 
ATOM      8  H   UNL     1       7.733  -2.062  22.250  0.00  0.00    +0.145 HD
ATOM      9  H   UNL     1       8.144  -3.681  22.785  0.00  0.00    +0.145 HD
ATOM     10  C   UNL     1       9.498  -2.237  23.324  0.00  0.00    +0.245 C 
ATOM     11  O   UNL     1      10.253  -3.014  23.901  0.00  0.00    -0.270 OA
ENDBRANCH   1  10
BRANCH   2  12
ATOM     12  O   UNL     1       9.427  -0.609  20.849  0.00  0.00    -0.506 OA
ATOM     13  H   UNL     1      10.238  -0.964  20.444  0.00  0.00    +0.292 HD
ENDBRANCH   2  12
TORSDOF 2
ENDMDL
MODEL 2
REMARK VINA RESULT:      -4.7      5.065      6.667
REMARK  Name = 
REMARK  2 active torsions:
REMARK  status: ('A' for Active; 'I' for Inactive)
REMARK    1  A    between atoms: C_2  and  C_4
REMARK    2  A    between atoms: C_9  and  O_10
REMARK                            x       y       z     vdW  Elec       q    Type
REMARK                         _______ _______ _______ _____ _____    ______ ____
ROOT
ATOM      1  C   UNL     1       7.979  -5.043  25.087  0.00  0.00    +0.078 A 
ATOM      2  C   UNL     1       7.315  -5.511  26.232  0.00  0.00    +0.129 A 
ATOM      3  C   UNL     1       5.944  -5.792  26.193  0.00  0.00    +0.046 A 
ATOM      4  C   UNL     1       5.224  -5.600  25.014  0.00  0.00    +0.004 A 
ATOM      5  C   UNL     1       5.868  -5.130  23.872  0.00  0.00    +0.001 A 
ATOM      6  C   UNL     1       7.237  -4.856  23.908  0.00  0.00    +0.017 A 
ENDROOT
BRANCH   1  10
ATOM      7  N   UNL     1      10.299  -5.527  25.701  0.00  0.00    -0.325 N 
ATOM      8  H   UNL     1       9.959  -6.332  26.216  0.00  0.00    +0.145 HD
ATOM      9  H   UNL     1      11.287  -5.329  25.664  0.00  0.00    +0.145 HD
ATOM     10  C   UNL     1       9.436  -4.718  25.024  0.00  0.00    +0.245 C 
ATOM     11  O   UNL     1       9.858  -3.757  24.389  0.00  0.00    -0.270 OA
ENDBRANCH   1  10
BRANCH   2  12
ATOM     12  O   UNL     1       7.985  -5.700  27.414  0.00  0.00    -0.506 OA
ATOM     13  H   UNL     1       8.610  -4.965  27.540  0.00  0.00    +0.292 HD
ENDBRANCH   2  12
TORSDOF 2
ENDMDL
MODEL 3
REMARK VINA RESULT:      -4.7      2.626      4.052
REMARK  Name = 
REMARK  2 active torsions:
REMARK  status: ('A' for Active; 'I' for Inactive)
REMARK    1  A    between atoms: C_2  and  C_4
REMARK    2  A    between atoms: C_9  and  O_10
REMARK                            x       y       z     vdW  Elec       q    Type
REMARK                         _______ _______ _______ _____ _____    ______ ____
ROOT
ATOM      1  C   UNL     1       9.978   0.367  23.072  0.00  0.00    +0.078 A 
ATOM      2  C   UNL     1       9.977  -0.274  24.321  0.00  0.00    +0.129 A 
ATOM      3  C   UNL     1       9.636  -1.628  24.424  0.00  0.00    +0.046 A 
ATOM      4  C   UNL     1       9.287  -2.351  23.282  0.00  0.00    +0.004 A 
ATOM      5  C   UNL     1       9.279  -1.726  22.038  0.00  0.00    +0.001 A 
ATOM      6  C   UNL     1       9.625  -0.377  21.933  0.00  0.00    +0.017 A 
ENDROOT
BRANCH   1  10
ATOM      7  N   UNL     1      10.071   2.345  21.633  0.00  0.00    -0.325 N 
ATOM      8  H   UNL     1       9.639   1.790  20.901  0.00  0.00    +0.145 HD
ATOM      9  H   UNL     1      10.293   3.315  21.470  0.00  0.00    +0.145 HD
ATOM     10  C   UNL     1      10.329   1.803  22.856  0.00  0.00    +0.245 C 
ATOM     11  O   UNL     1      10.834   2.487  23.741  0.00  0.00    -0.270 OA
ENDBRANCH   1  10
BRANCH   2  12
ATOM     12  O   UNL     1      10.301   0.404  25.468  0.00  0.00    -0.506 OA
ATOM     13  H   UNL     1      10.174   1.357  25.314  0.00  0.00    +0.292 HD
ENDBRANCH   2  12
TORSDOF 2
ENDMDL
MODEL 4
REMARK VINA RESULT:      -4.7      1.617      2.387
REMARK  Name = 
REMARK  2 active torsions:
REMARK  status: ('A' for Active; 'I' for Inactive)
REMARK    1  A    between atoms: C_2  and  C_4
REMARK    2  A    between atoms: C_9  and  O_10
REMARK                            x       y       z     vdW  Elec       q    Type
REMARK                         _______ _______ _______ _____ _____    ______ ____
ROOT
ATOM      1  C   UNL     1       9.734  -0.755  23.536  0.00  0.00    +0.078 A 
ATOM      2  C   UNL     1      10.193   0.430  24.131  0.00  0.00    +0.129 A 
ATOM      3  C   UNL     1      10.280   1.612  23.384  0.00  0.00    +0.046 A 
ATOM      4  C   UNL     1       9.918   1.616  22.037  0.00  0.00    +0.004 A 
ATOM      5  C   UNL     1       9.467   0.445  21.432  0.00  0.00    +0.001 A 
ATOM      6  C   UNL     1       9.373  -0.732  22.178  0.00  0.00    +0.017 A 
ENDROOT
BRANCH   1  10
ATOM      7  N   UNL     1       8.792  -2.116  25.340  0.00  0.00    -0.325 N 
ATOM      8  H   UNL     1       8.286  -1.293  25.651  0.00  0.00    +0.145 HD
ATOM      9  H   UNL     1       8.683  -2.992  25.828  0.00  0.00    +0.145 HD
ATOM     10  C   UNL     1       9.601  -2.064  24.245  0.00  0.00    +0.245 C 
ATOM     11  O   UNL     1      10.195  -3.069  23.866  0.00  0.00    -0.270 OA
ENDBRANCH   1  10
BRANCH   2  12
ATOM     12  O   UNL     1      10.570   0.464  25.449  0.00  0.00    -0.506 OA
ATOM     13  H   UNL     1      10.751  -0.445  25.745  0.00  0.00    +0.292 HD
ENDBRANCH   2  12
TORSDOF 2
ENDMDL
MODEL 5
REMARK VINA RESULT:      -4.5      2.997      3.786
REMARK  Name = 
REMARK  2 active torsions:
REMARK  status: ('A' for Active; 'I' for Inactive)
REMARK    1  A    between atoms: C_2  and  C_4
REMARK    2  A    between atoms: C_9  and  O_10
REMARK                            x       y       z     vdW  Elec       q    Type
REMARK                         _______ _______ _______ _____ _____    ______ ____
ROOT
ATOM      1  C   UNL     1       9.757   1.380  23.502  0.00  0.00    +0.078 A 
ATOM      2  C   UNL     1       9.611   1.004  22.158  0.00  0.00    +0.129 A 
ATOM      3  C   UNL     1       9.756  -0.335  21.775  0.00  0.00    +0.046 A 
ATOM      4  C   UNL     1      10.056  -1.307  22.730  0.00  0.00    +0.004 A 
ATOM      5  C   UNL     1      10.210  -0.947  24.067  0.00  0.00    +0.001 A 
ATOM      6  C   UNL     1      10.058   0.388  24.451  0.00  0.00    +0.017 A 
ENDROOT
BRANCH   1  10
ATOM      7  N   UNL     1      10.368   3.750  23.420  0.00  0.00    -0.325 N 
ATOM      8  H   UNL     1      10.986   3.528  22.647  0.00  0.00    +0.145 HD
ATOM      9  H   UNL     1      10.282   4.700  23.745  0.00  0.00    +0.145 HD
ATOM     10  C   UNL     1       9.618   2.778  24.012  0.00  0.00    +0.245 C 
ATOM     11  O   UNL     1       8.859   3.058  24.934  0.00  0.00    -0.270 OA
ENDBRANCH   1  10
BRANCH   2  12
ATOM     12  O   UNL     1       9.328   1.931  21.188  0.00  0.00    -0.506 OA
ATOM     13  H   UNL     1       9.866   2.726  21.349  0.00  0.00    +0.292 HD
ENDBRANCH   2  12
TORSDOF 2
ENDMDL
MODEL 6
REMARK VINA RESULT:      -4.4      1.199      1.216
REMARK  Name = 
REMARK  2 active torsions:
REMARK  status: ('A' for Active; 'I' for Inactive)
REMARK    1  A    between atoms: C_2  and  C_4
REMARK    2  A    between atoms: C_9  and  O_10
REMARK                            x       y       z     vdW  Elec       q    Type
REMARK                         _______ _______ _______ _____ _____    ______ ____
ROOT
ATOM      1  C   UNL     1       9.687  -0.294  23.714  0.00  0.00    +0.078 A 
ATOM      2  C   UNL     1       9.765  -0.045  22.335  0.00  0.00    +0.129 A 
ATOM      3  C   UNL     1       9.991   1.253  21.860  0.00  0.00    +0.046 A 
ATOM      4  C   UNL     1      10.133   2.312  22.757  0.00  0.00    +0.004 A 
ATOM      5  C   UNL     1      10.052   2.080  24.128  0.00  0.00    +0.001 A 
ATOM      6  C   UNL     1       9.833   0.785  24.603  0.00  0.00    +0.017 A 
ENDROOT
BRANCH   1  10
ATOM      7  N   UNL     1      10.114  -2.704  23.787  0.00  0.00    -0.325 N 
ATOM      8  H   UNL     1      10.757  -2.579  23.012  0.00  0.00    +0.145 HD
ATOM      9  H   UNL     1       9.975  -3.618  24.188  0.00  0.00    +0.145 HD
ATOM     10  C   UNL     1       9.452  -1.639  24.321  0.00  0.00    +0.245 C 
ATOM     11  O   UNL     1       8.691  -1.797  25.271  0.00  0.00    -0.270 OA
ENDBRANCH   1  10
BRANCH   2  12
ATOM     12  O   UNL     1       9.618  -1.057  21.421  0.00  0.00    -0.506 OA
ATOM     13  H   UNL     1       8.768  -1.502  21.582  0.00  0.00    +0.292 HD
ENDBRANCH   2  12
TORSDOF 2
ENDMDL
MODEL 7
REMARK VINA RESULT:      -4.3      3.911      5.014
REMARK  Name = 
REMARK  2 active torsions:
REMARK  status: ('A' for Active; 'I' for Inactive)
REMARK    1  A    between atoms: C_2  and  C_4
REMARK    2  A    between atoms: C_9  and  O_10
REMARK                            x       y       z     vdW  Elec       q    Type
REMARK                         _______ _______ _______ _____ _____    ______ ____
ROOT
ATOM      1  C   UNL     1       8.167  -4.378  24.767  0.00  0.00    +0.078 A 
ATOM      2  C   UNL     1       8.749  -3.493  23.846  0.00  0.00    +0.129 A 
ATOM      3  C   UNL     1       8.003  -2.999  22.768  0.00  0.00    +0.046 A 
ATOM      4  C   UNL     1       6.675  -3.392  22.598  0.00  0.00    +0.004 A 
ATOM      5  C   UNL     1       6.087  -4.274  23.501  0.00  0.00    +0.001 A 
ATOM      6  C   UNL     1       6.828  -4.762  24.580  0.00  0.00    +0.017 A 
ENDROOT
BRANCH   1  10
ATOM      7  N   UNL     1      10.096  -5.526  25.746  0.00  0.00    -0.325 N 
ATOM      8  H   UNL     1      10.515  -5.538  24.822  0.00  0.00    +0.145 HD
ATOM      9  H   UNL     1      10.592  -5.915  26.533  0.00  0.00    +0.145 HD
ATOM     10  C   UNL     1       8.874  -4.958  25.950  0.00  0.00    +0.245 C 
ATOM     11  O   UNL     1       8.383  -4.931  27.074  0.00  0.00    -0.270 OA
ENDBRANCH   1  10
BRANCH   2  12
ATOM     12  O   UNL     1      10.054  -3.094  23.972  0.00  0.00    -0.506 OA
ATOM     13  H   UNL     1      10.278  -3.053  24.918  0.00  0.00    +0.292 HD
ENDBRANCH   2  12
TORSDOF 2
ENDMDL
MODEL 8
REMARK VINA RESULT:      -4.2      3.342      4.455
REMARK  Name = 
REMARK  2 active torsions:
REMARK  status: ('A' for Active; 'I' for Inactive)
REMARK    1  A    between atoms: C_2  and  C_4
REMARK    2  A    between atoms: C_9  and  O_10
REMARK                            x       y       z     vdW  Elec       q    Type
REMARK                         _______ _______ _______ _____ _____    ______ ____
ROOT
ATOM      1  C   UNL     1       8.126   1.694  22.275  0.00  0.00    +0.078 A 
ATOM      2  C   UNL     1       9.432   1.352  21.892  0.00  0.00    +0.129 A 
ATOM      3  C   UNL     1       9.858   0.019  21.932  0.00  0.00    +0.046 A 
ATOM      4  C   UNL     1       8.987  -0.982  22.362  0.00  0.00    +0.004 A 
ATOM      5  C   UNL     1       7.690  -0.656  22.751  0.00  0.00    +0.001 A 
ATOM      6  C   UNL     1       7.261   0.672  22.705  0.00  0.00    +0.017 A 
ENDROOT
BRANCH   1  10
ATOM      7  N   UNL     1       8.398   4.099  22.645  0.00  0.00    -0.325 N 
ATOM      8  H   UNL     1       9.360   3.914  22.911  0.00  0.00    +0.145 HD
ATOM      9  H   UNL     1       8.046   5.043  22.638  0.00  0.00    +0.145 HD
ATOM     10  C   UNL     1       7.574   3.082  22.265  0.00  0.00    +0.245 C 
ATOM     11  O   UNL     1       6.418   3.317  21.927  0.00  0.00    -0.270 OA
ENDBRANCH   1  10
BRANCH   2  12
ATOM     12  O   UNL     1      10.323   2.308  21.474  0.00  0.00    -0.506 OA
ATOM     13  H   UNL     1      10.946   1.902  20.847  0.00  0.00    +0.292 HD
ENDBRANCH   2  12
TORSDOF 2
ENDMDL
MODEL 9
REMARK VINA RESULT:      -4.2      2.622      3.636
REMARK  Name = 
REMARK  2 active torsions:
REMARK  status: ('A' for Active; 'I' for Inactive)
REMARK    1  A    between atoms: C_2  and  C_4
REMARK    2  A    between atoms: C_9  and  O_10
REMARK                            x       y       z     vdW  Elec       q    Type
REMARK                         _______ _______ _______ _____ _____    ______ ____
ROOT
ATOM      1  C   UNL     1       8.876   0.047  22.744  0.00  0.00    +0.078 A 
ATOM      2  C   UNL     1       9.080  -1.201  22.134  0.00  0.00    +0.129 A 
ATOM      3  C   UNL     1       8.112  -2.207  22.234  0.00  0.00    +0.046 A 
ATOM      4  C   UNL     1       6.936  -1.979  22.950  0.00  0.00    +0.004 A 
ATOM      5  C   UNL     1       6.723  -0.747  23.565  0.00  0.00    +0.001 A 
ATOM      6  C   UNL     1       7.685   0.260  23.460  0.00  0.00    +0.017 A 
ENDROOT
BRANCH   1  10
ATOM      7  N   UNL     1       9.924   1.901  21.537  0.00  0.00    -0.325 N 
ATOM      8  H   UNL     1       9.333   1.675  20.744  0.00  0.00    +0.145 HD
ATOM      9  H   UNL     1      10.565   2.678  21.486  0.00  0.00    +0.145 HD
ATOM     10  C   UNL     1       9.843   1.185  22.693  0.00  0.00    +0.245 C 
ATOM     11  O   UNL     1      10.548   1.478  23.653  0.00  0.00    -0.270 OA
ENDBRANCH   1  10
BRANCH   2  12
ATOM     12  O   UNL     1      10.228  -1.469  21.433  0.00  0.00    -0.506 OA
ATOM     13  H   UNL     1      10.883  -0.777  21.630  0.00  0.00    +0.292 HD
ENDBRANCH   2  12
TORSDOF 2
ENDMDL
