MODEL 1
REMARK VINA RESULT:      -6.5      0.000      0.000
REMARK  Name = 
REMARK  5 active torsions:
REMARK  status: ('A' for Active; 'I' for Inactive)
REMARK    1  A    between atoms: CA_2  and  N_3
REMARK    2  A    between atoms: CA_2  and  C_4
REMARK    3  A    between atoms: CA_2  and  C_15
REMARK    4  A    between atoms: C_4  and  C_5
REMARK    5  A    between atoms: C_15  and  O_16
REMARK                            x       y       z     vdW  Elec       q    Type
REMARK                         _______ _______ _______ _____ _____    ______ ____
ROOT
ATOM      1  C   UNL     1       8.914  -2.799  23.647  0.00  0.00    -0.045 A 
ATOM      2  C   UNL     1       9.532  -1.789  24.408  0.00  0.00    +0.012 A 
ATOM      3  C   UNL     1       9.828  -0.527  23.860  0.00  0.00    -0.018 A 
ATOM      4  C   UNL     1       9.494  -0.267  22.514  0.00  0.00    -0.018 A 
ATOM      5  C   UNL     1       9.766   0.993  21.962  0.00  0.00    +0.008 A 
ATOM      6  C   UNL     1      10.355   1.994  22.733  0.00  0.00    +0.001 A 
ATOM      7  C   UNL     1      10.692   1.742  24.059  0.00  0.00    +0.001 A 
ATOM      8  C   UNL     1       8.885  -1.274  21.753  0.00  0.00    +0.009 A 
ATOM      9  C   UNL     1      10.435   0.488  24.618  0.00  0.00    +0.008 A 
ATOM     10  C   UNL     1       8.583  -2.515  22.319  0.00  0.00    +0.004 A 
ENDROOT
BRANCH   1  11
ATOM     11  C   UNL     1       8.565  -4.115  24.310  0.00  0.00    +0.065 C 
BRANCH  11  12
ATOM     12  CA  UNL     1       9.127  -4.380  25.721  0.00  0.00    +0.165 C 
BRANCH  12  13
ATOM     13  N   UNL     1      10.078  -5.519  25.664  0.00  0.00    -0.318 NA
ATOM     14  H1  UNL     1      11.054  -5.234  25.647  0.00  0.00    +0.119 HD
ATOM     15  H2  UNL     1       9.866  -6.280  26.303  0.00  0.00    +0.119 HD
ENDBRANCH  12  13
BRANCH  12  16
ATOM     16  C   UNL     1       7.994  -4.630  26.741  0.00  0.00    +0.322 C 
ATOM     17  OXT UNL     1       7.100  -3.840  27.002  0.00  0.00    -0.249 OA
BRANCH  16  18
ATOM     18  O   UNL     1       8.083  -5.827  27.371  0.00  0.00    -0.480 OA
ATOM     19  H   UNL     1       7.194  -6.160  27.587  0.00  0.00    +0.295 HD
ENDBRANCH  16  18
ENDBRANCH  12  16
ENDBRANCH  11  12
ENDBRANCH   1  11
TORSDOF 5
ENDMDL
MODEL 2
REMARK VINA RESULT:      -6.0      3.148      3.829
REMARK  Name = 
REMARK  5 active torsions:
REMARK  status: ('A' for Active; 'I' for Inactive)
REMARK    1  A    between atoms: CA_2  and  N_3
REMARK    2  A    between atoms: CA_2  and  C_4
REMARK    3  A    between atoms: CA_2  and  C_15
REMARK    4  A    between atoms: C_4  and  C_5
REMARK    5  A    between atoms: C_15  and  O_16
REMARK                            x       y       z     vdW  Elec       q    Type
REMARK                         _______ _______ _______ _____ _____    ______ ____
ROOT
ATOM      1  C   UNL     1       8.147  -2.927  23.252  0.00  0.00    -0.045 A 
ATOM      2  C   UNL     1       8.438  -1.957  22.275  0.00  0.00    +0.012 A 
ATOM      3  C   UNL     1       9.058  -0.738  22.606  0.00  0.00    -0.018 A 
ATOM      4  C   UNL     1       9.400  -0.484  23.951  0.00  0.00    -0.018 A 
ATOM      5  C   UNL     1      10.037   0.719  24.291  0.00  0.00    +0.008 A 
ATOM      6  C   UNL     1      10.343   1.662  23.310  0.00  0.00    +0.001 A 
ATOM      7  C   UNL     1      10.003   1.419  21.983  0.00  0.00    +0.001 A 
ATOM      8  C   UNL     1       9.105  -1.446  24.925  0.00  0.00    +0.009 A 
ATOM      9  C   UNL     1       9.360   0.230  21.633  0.00  0.00    +0.008 A 
ATOM     10  C   UNL     1       8.504  -2.658  24.576  0.00  0.00    +0.004 A 
ENDROOT
BRANCH   1  11
ATOM     11  C   UNL     1       7.533  -4.245  22.825  0.00  0.00    +0.065 C 
BRANCH  11  12
ATOM     12  CA  UNL     1       6.401  -4.206  21.780  0.00  0.00    +0.165 C 
BRANCH  12  13
ATOM     13  N   UNL     1       5.163  -3.689  22.417  0.00  0.00    -0.318 NA
ATOM     14  H1  UNL     1       4.344  -4.266  22.242  0.00  0.00    +0.119 HD
ATOM     15  H2  UNL     1       5.277  -3.389  23.380  0.00  0.00    +0.119 HD
ENDBRANCH  12  13
BRANCH  12  16
ATOM     16  C   UNL     1       6.179  -5.592  21.137  0.00  0.00    +0.322 C 
ATOM     17  OXT UNL     1       5.968  -5.788  19.950  0.00  0.00    -0.249 OA
BRANCH  16  18
ATOM     18  O   UNL     1       6.210  -6.616  22.026  0.00  0.00    -0.480 OA
ATOM     19  H   UNL     1       5.578  -6.454  22.748  0.00  0.00    +0.295 HD
ENDBRANCH  16  18
ENDBRANCH  12  16
ENDBRANCH  11  12
ENDBRANCH   1  11
TORSDOF 5
ENDMDL
MODEL 3
REMARK VINA RESULT:      -5.9      1.963      2.291
REMARK  Name = 
REMARK  5 active torsions:
REMARK  status: ('A' for Active; 'I' for Inactive)
REMARK    1  A    between atoms: CA_2  and  N_3
REMARK    2  A    between atoms: CA_2  and  C_4
REMARK    3  A    between atoms: CA_2  and  C_15
REMARK    4  A    between atoms: C_4  and  C_5
REMARK    5  A    between atoms: C_15  and  O_16
REMARK                            x       y       z     vdW  Elec       q    Type
REMARK                         _______ _______ _______ _____ _____    ______ ____
ROOT
ATOM      1  C   UNL     1       8.221  -2.246  25.250  0.00  0.00    -0.045 A 
ATOM      2  C   UNL     1       9.313  -1.598  24.645  0.00  0.00    +0.012 A 
ATOM      3  C   UNL     1       9.132  -0.582  23.688  0.00  0.00    -0.018 A 
ATOM      4  C   UNL     1       7.822  -0.201  23.330  0.00  0.00    -0.018 A 
ATOM      5  C   UNL     1       7.628   0.824  22.392  0.00  0.00    +0.008 A 
ATOM      6  C   UNL     1       8.719   1.477  21.818  0.00  0.00    +0.001 A 
ATOM      7  C   UNL     1      10.013   1.102  22.164  0.00  0.00    +0.001 A 
ATOM      8  C   UNL     1       6.733  -0.850  23.927  0.00  0.00    +0.009 A 
ATOM      9  C   UNL     1      10.220   0.076  23.088  0.00  0.00    +0.008 A 
ATOM     10  C   UNL     1       6.932  -1.845  24.887  0.00  0.00    +0.004 A 
ENDROOT
BRANCH   1  11
ATOM     11  C   UNL     1       8.480  -3.289  26.318  0.00  0.00    +0.065 C 
BRANCH  11  12
ATOM     12  CA  UNL     1       8.089  -4.748  26.006  0.00  0.00    +0.165 C 
BRANCH  12  13
ATOM     13  N   UNL     1       8.155  -5.550  27.253  0.00  0.00    -0.318 NA
ATOM     14  H1  UNL     1       7.425  -5.322  27.924  0.00  0.00    +0.119 HD
ATOM     15  H2  UNL     1       8.308  -6.544  27.110  0.00  0.00    +0.119 HD
ENDBRANCH  12  13
BRANCH  12  16
ATOM     16  C   UNL     1       8.980  -5.344  24.894  0.00  0.00    +0.322 C 
ATOM     17  OXT UNL     1       8.645  -5.484  23.728  0.00  0.00    -0.249 OA
BRANCH  16  18
ATOM     18  O   UNL     1      10.201  -5.742  25.328  0.00  0.00    -0.480 OA
ATOM     19  H   UNL     1      10.887  -5.128  25.012  0.00  0.00    +0.295 HD
ENDBRANCH  16  18
ENDBRANCH  12  16
ENDBRANCH  11  12
ENDBRANCH   1  11
TORSDOF 5
ENDMDL
MODEL 4
REMARK VINA RESULT:      -5.8      1.379      1.909
REMARK  Name = 
REMARK  5 active torsions:
REMARK  status: ('A' for Active; 'I' for Inactive)
REMARK    1  A    between atoms: CA_2  and  N_3
REMARK    2  A    between atoms: CA_2  and  C_4
REMARK    3  A    between atoms: CA_2  and  C_15
REMARK    4  A    between atoms: C_4  and  C_5
REMARK    5  A    between atoms: C_15  and  O_16
REMARK                            x       y       z     vdW  Elec       q    Type
REMARK                         _______ _______ _______ _____ _____    ______ ____
ROOT
ATOM      1  C   UNL     1       8.829  -2.687  23.568  0.00  0.00    -0.045 A 
ATOM      2  C   UNL     1       7.795  -1.750  23.393  0.00  0.00    +0.012 A 
ATOM      3  C   UNL     1       8.044  -0.455  22.902  0.00  0.00    -0.018 A 
ATOM      4  C   UNL     1       9.367  -0.089  22.572  0.00  0.00    -0.018 A 
ATOM      5  C   UNL     1       9.626   1.192  22.062  0.00  0.00    +0.008 A 
ATOM      6  C   UNL     1       8.589   2.103  21.870  0.00  0.00    +0.001 A 
ATOM      7  C   UNL     1       7.284   1.749  22.198  0.00  0.00    +0.001 A 
ATOM      8  C   UNL     1      10.399  -1.019  22.752  0.00  0.00    +0.009 A 
ATOM      9  C   UNL     1       7.013   0.481  22.715  0.00  0.00    +0.008 A 
ATOM     10  C   UNL     1      10.130  -2.305  23.225  0.00  0.00    +0.004 A 
ENDROOT
BRANCH   1  11
ATOM     11  C   UNL     1       8.489  -4.084  24.043  0.00  0.00    +0.065 C 
BRANCH  11  12
ATOM     12  CA  UNL     1       8.958  -4.498  25.452  0.00  0.00    +0.165 C 
BRANCH  12  13
ATOM     13  N   UNL     1      10.108  -5.430  25.332  0.00  0.00    -0.318 NA
ATOM     14  H1  UNL     1      10.283  -5.972  26.174  0.00  0.00    +0.119 HD
ATOM     15  H2  UNL     1      10.133  -5.962  24.467  0.00  0.00    +0.119 HD
ENDBRANCH  12  13
BRANCH  12  16
ATOM     16  C   UNL     1       7.804  -5.116  26.271  0.00  0.00    +0.322 C 
ATOM     17  OXT UNL     1       7.828  -5.313  27.476  0.00  0.00    -0.249 OA
BRANCH  16  18
ATOM     18  O   UNL     1       6.729  -5.463  25.522  0.00  0.00    -0.480 OA
ATOM     19  H   UNL     1       6.541  -6.413  25.622  0.00  0.00    +0.295 HD
ENDBRANCH  16  18
ENDBRANCH  12  16
ENDBRANCH  11  12
ENDBRANCH   1  11
TORSDOF 5
ENDMDL
MODEL 5
REMARK VINA RESULT:      -5.8      1.527      2.400
REMARK  Name = 
REMARK  5 active torsions:
REMARK  status: ('A' for Active; 'I' for Inactive)
REMARK    1  A    between atoms: CA_2  and  N_3
REMARK    2  A    between atoms: CA_2  and  C_4
REMARK    3  A    between atoms: CA_2  and  C_15
REMARK    4  A    between atoms: C_4  and  C_5
REMARK    5  A    between atoms: C_15  and  O_16
REMARK                            x       y       z     vdW  Elec       q    Type
REMARK                         _______ _______ _______ _____ _____    ______ ____
ROOT
ATOM      1  C   UNL     1       8.199  -2.051  24.464  0.00  0.00    -0.045 A 
ATOM      2  C   UNL     1       8.400  -1.381  23.244  0.00  0.00    +0.012 A 
ATOM      3  C   UNL     1       9.072  -0.146  23.179  0.00  0.00    -0.018 A 
ATOM      4  C   UNL     1       9.560   0.433  24.370  0.00  0.00    -0.018 A 
ATOM      5  C   UNL     1      10.250   1.654  24.317  0.00  0.00    +0.008 A 
ATOM      6  C   UNL     1      10.465   2.295  23.097  0.00  0.00    +0.001 A 
ATOM      7  C   UNL     1       9.980   1.732  21.921  0.00  0.00    +0.001 A 
ATOM      8  C   UNL     1       9.355  -0.230  25.587  0.00  0.00    +0.009 A 
ATOM      9  C   UNL     1       9.285   0.522  21.961  0.00  0.00    +0.008 A 
ATOM     10  C   UNL     1       8.700  -1.462  25.629  0.00  0.00    +0.004 A 
ENDROOT
BRANCH   1  11
ATOM     11  C   UNL     1       7.522  -3.406  24.462  0.00  0.00    +0.065 C 
BRANCH  11  12
ATOM     12  CA  UNL     1       8.372  -4.633  24.079  0.00  0.00    +0.165 C 
BRANCH  12  13
ATOM     13  N   UNL     1       7.593  -5.503  23.162  0.00  0.00    -0.318 NA
ATOM     14  H1  UNL     1       8.074  -6.363  22.909  0.00  0.00    +0.119 HD
ATOM     15  H2  UNL     1       6.616  -5.619  23.417  0.00  0.00    +0.119 HD
ENDBRANCH  12  13
BRANCH  12  16
ATOM     16  C   UNL     1       8.848  -5.401  25.331  0.00  0.00    +0.322 C 
ATOM     17  OXT UNL     1       8.132  -5.739  26.260  0.00  0.00    -0.249 OA
BRANCH  16  18
ATOM     18  O   UNL     1      10.180  -5.661  25.338  0.00  0.00    -0.480 OA
ATOM     19  H   UNL     1      10.664  -4.923  25.747  0.00  0.00    +0.295 HD
ENDBRANCH  16  18
ENDBRANCH  12  16
ENDBRANCH  11  12
ENDBRANCH   1  11
TORSDOF 5
ENDMDL
MODEL 6
REMARK VINA RESULT:      -5.8      3.713      6.138
REMARK  Name = 
REMARK  5 active torsions:
REMARK  status: ('A' for Active; 'I' for Inactive)
REMARK    1  A    between atoms: CA_2  and  N_3
REMARK    2  A    between atoms: CA_2  and  C_4
REMARK    3  A    between atoms: CA_2  and  C_15
REMARK    4  A    between atoms: C_4  and  C_5
REMARK    5  A    between atoms: C_15  and  O_16
REMARK                            x       y       z     vdW  Elec       q    Type
REMARK                         _______ _______ _______ _____ _____    ______ ____
ROOT
ATOM      1  C   UNL     1       9.407  -1.654  22.709  0.00  0.00    -0.045 A 
ATOM      2  C   UNL     1       8.155  -1.998  22.169  0.00  0.00    +0.012 A 
ATOM      3  C   UNL     1       7.406  -3.079  22.669  0.00  0.00    -0.018 A 
ATOM      4  C   UNL     1       7.923  -3.836  23.741  0.00  0.00    -0.018 A 
ATOM      5  C   UNL     1       7.177  -4.904  24.261  0.00  0.00    +0.008 A 
ATOM      6  C   UNL     1       5.926  -5.219  23.734  0.00  0.00    +0.001 A 
ATOM      7  C   UNL     1       5.413  -4.480  22.673  0.00  0.00    +0.001 A 
ATOM      8  C   UNL     1       9.174  -3.499  24.275  0.00  0.00    +0.009 A 
ATOM      9  C   UNL     1       6.149  -3.420  22.140  0.00  0.00    +0.008 A 
ATOM     10  C   UNL     1       9.895  -2.412  23.778  0.00  0.00    +0.004 A 
ENDROOT
BRANCH   1  11
ATOM     11  C   UNL     1      10.138  -0.442  22.169  0.00  0.00    +0.065 C 
BRANCH  11  12
ATOM     12  CA  UNL     1       9.673   0.949  22.644  0.00  0.00    +0.165 C 
BRANCH  12  13
ATOM     13  N   UNL     1       9.671   1.885  21.492  0.00  0.00    -0.318 NA
ATOM     14  H1  UNL     1      10.582   2.292  21.297  0.00  0.00    +0.119 HD
ATOM     15  H2  UNL     1       9.168   1.551  20.675  0.00  0.00    +0.119 HD
ENDBRANCH  12  13
BRANCH  12  16
ATOM     16  C   UNL     1      10.548   1.470  23.805  0.00  0.00    +0.322 C 
ATOM     17  OXT UNL     1      10.876   0.816  24.782  0.00  0.00    -0.249 OA
BRANCH  16  18
ATOM     18  O   UNL     1      10.919   2.767  23.668  0.00  0.00    -0.480 OA
ATOM     19  H   UNL     1      11.333   3.087  24.488  0.00  0.00    +0.295 HD
ENDBRANCH  16  18
ENDBRANCH  12  16
ENDBRANCH  11  12
ENDBRANCH   1  11
TORSDOF 5
ENDMDL
MODEL 7
REMARK VINA RESULT:      -5.6      3.530      5.800
REMARK  Name = 
REMARK  5 active torsions:
REMARK  status: ('A' for Active; 'I' for Inactive)
REMARK    1  A    between atoms: CA_2  and  N_3
REMARK    2  A    between atoms: CA_2  and  C_4
REMARK    3  A    between atoms: CA_2  and  C_15
REMARK    4  A    between atoms: C_4  and  C_5
REMARK    5  A    between atoms: C_15  and  O_16
REMARK                            x       y       z     vdW  Elec       q    Type
REMARK                         _______ _______ _______ _____ _____    ______ ____
ROOT
ATOM      1  C   UNL     1       8.931  -1.261  22.870  0.00  0.00    -0.045 A 
ATOM      2  C   UNL     1       9.610  -2.237  23.621  0.00  0.00    +0.012 A 
ATOM      3  C   UNL     1       8.924  -3.284  24.264  0.00  0.00    -0.018 A 
ATOM      4  C   UNL     1       7.520  -3.359  24.149  0.00  0.00    -0.018 A 
ATOM      5  C   UNL     1       6.827  -4.409  24.768  0.00  0.00    +0.008 A 
ATOM      6  C   UNL     1       7.514  -5.385  25.489  0.00  0.00    +0.001 A 
ATOM      7  C   UNL     1       8.898  -5.314  25.611  0.00  0.00    +0.001 A 
ATOM      8  C   UNL     1       6.842  -2.383  23.406  0.00  0.00    +0.009 A 
ATOM      9  C   UNL     1       9.599  -4.268  25.007  0.00  0.00    +0.008 A 
ATOM     10  C   UNL     1       7.540  -1.361  22.761  0.00  0.00    +0.004 A 
ENDROOT
BRANCH   1  11
ATOM     11  C   UNL     1       9.729  -0.193  22.151  0.00  0.00    +0.065 C 
BRANCH  11  12
ATOM     12  CA  UNL     1       9.602   1.259  22.652  0.00  0.00    +0.165 C 
BRANCH  12  13
ATOM     13  N   UNL     1      10.251   2.173  21.678  0.00  0.00    -0.318 NA
ATOM     14  H1  UNL     1      10.960   1.721  21.106  0.00  0.00    +0.119 HD
ATOM     15  H2  UNL     1       9.610   2.774  21.169  0.00  0.00    +0.119 HD
ENDBRANCH  12  13
BRANCH  12  16
ATOM     16  C   UNL     1      10.193   1.420  24.070  0.00  0.00    +0.322 C 
ATOM     17  OXT UNL     1      11.256   0.949  24.443  0.00  0.00    -0.249 OA
BRANCH  16  18
ATOM     18  O   UNL     1       9.401   2.128  24.913  0.00  0.00    -0.480 OA
ATOM     19  H   UNL     1       8.695   1.560  25.268  0.00  0.00    +0.295 HD
ENDBRANCH  16  18
ENDBRANCH  12  16
ENDBRANCH  11  12
ENDBRANCH   1  11
TORSDOF 5
ENDMDL
MODEL 8
REMARK VINA RESULT:      -5.5      2.001      2.632
REMARK  Name = 
REMARK  5 active torsions:
REMARK  status: ('A' for Active; 'I' for Inactive)
REMARK    1  A    between atoms: CA_2  and  N_3
REMARK    2  A    between atoms: CA_2  and  C_4
REMARK    3  A    between atoms: CA_2  and  C_15
REMARK    4  A    between atoms: C_4  and  C_5
REMARK    5  A    between atoms: C_15  and  O_16
REMARK                            x       y       z     vdW  Elec       q    Type
REMARK                         _______ _______ _______ _____ _____    ______ ____
ROOT
ATOM      1  C   UNL     1       9.123  -0.889  24.841  0.00  0.00    -0.045 A 
ATOM      2  C   UNL     1       8.452   0.278  25.249  0.00  0.00    +0.012 A 
ATOM      3  C   UNL     1       8.862   1.555  24.823  0.00  0.00    -0.018 A 
ATOM      4  C   UNL     1       9.974   1.667  23.962  0.00  0.00    -0.018 A 
ATOM      5  C   UNL     1      10.381   2.932  23.514  0.00  0.00    +0.008 A 
ATOM      6  C   UNL     1       9.692   4.079  23.905  0.00  0.00    +0.001 A 
ATOM      7  C   UNL     1       8.599   3.975  24.759  0.00  0.00    +0.001 A 
ATOM      8  C   UNL     1      10.647   0.506  23.560  0.00  0.00    +0.009 A 
ATOM      9  C   UNL     1       8.189   2.723  25.220  0.00  0.00    +0.008 A 
ATOM     10  C   UNL     1      10.215  -0.754  23.979  0.00  0.00    +0.004 A 
ENDROOT
BRANCH   1  11
ATOM     11  C   UNL     1       8.596  -2.239  25.284  0.00  0.00    +0.065 C 
BRANCH  11  12
ATOM     12  CA  UNL     1       9.096  -3.488  24.532  0.00  0.00    +0.165 C 
BRANCH  12  13
ATOM     13  N   UNL     1       8.090  -3.881  23.513  0.00  0.00    -0.318 NA
ATOM     14  H1  UNL     1       7.356  -4.483  23.877  0.00  0.00    +0.119 HD
ATOM     15  H2  UNL     1       7.766  -3.121  22.922  0.00  0.00    +0.119 HD
ENDBRANCH  12  13
BRANCH  12  16
ATOM     16  C   UNL     1       9.408  -4.645  25.505  0.00  0.00    +0.322 C 
ATOM     17  OXT UNL     1       9.151  -4.645  26.699  0.00  0.00    -0.249 OA
BRANCH  16  18
ATOM     18  O   UNL     1      10.040  -5.693  24.921  0.00  0.00    -0.480 OA
ATOM     19  H   UNL     1       9.539  -5.996  24.143  0.00  0.00    +0.295 HD
ENDBRANCH  16  18
ENDBRANCH  12  16
ENDBRANCH  11  12
ENDBRANCH   1  11
TORSDOF 5
ENDMDL
MODEL 9
REMARK VINA RESULT:      -5.5      1.837      1.979
REMARK  Name = 
REMARK  5 active torsions:
REMARK  status: ('A' for Active; 'I' for Inactive)
REMARK    1  A    between atoms: CA_2  and  N_3
REMARK    2  A    between atoms: CA_2  and  C_4
REMARK    3  A    between atoms: CA_2  and  C_15
REMARK    4  A    between atoms: C_4  and  C_5
REMARK    5  A    between atoms: C_15  and  O_16
REMARK                            x       y       z     vdW  Elec       q    Type
REMARK                         _______ _______ _______ _____ _____    ______ ____
ROOT
ATOM      1  C   UNL     1       9.282  -2.503  23.734  0.00  0.00    -0.045 A 
ATOM      2  C   UNL     1       9.827  -1.401  24.419  0.00  0.00    +0.012 A 
ATOM      3  C   UNL     1       9.993  -0.151  23.795  0.00  0.00    -0.018 A 
ATOM      4  C   UNL     1       9.600   0.002  22.448  0.00  0.00    -0.018 A 
ATOM      5  C   UNL     1       9.742   1.249  21.821  0.00  0.00    +0.008 A 
ATOM      6  C   UNL     1      10.259   2.340  22.518  0.00  0.00    +0.001 A 
ATOM      7  C   UNL     1      10.654   2.193  23.844  0.00  0.00    +0.001 A 
ATOM      8  C   UNL     1       9.063  -1.096  21.763  0.00  0.00    +0.009 A 
ATOM      9  C   UNL     1      10.527   0.955  24.478  0.00  0.00    +0.008 A 
ATOM     10  C   UNL     1       8.890  -2.325  22.404  0.00  0.00    +0.004 A 
ENDROOT
BRANCH   1  11
ATOM     11  C   UNL     1       9.072  -3.806  24.478  0.00  0.00    +0.065 C 
BRANCH  11  12
ATOM     12  CA  UNL     1       7.623  -4.295  24.675  0.00  0.00    +0.165 C 
BRANCH  12  13
ATOM     13  N   UNL     1       7.536  -5.072  25.938  0.00  0.00    -0.318 NA
ATOM     14  H1  UNL     1       7.663  -4.507  26.774  0.00  0.00    +0.119 HD
ATOM     15  H2  UNL     1       6.761  -5.728  25.978  0.00  0.00    +0.119 HD
ENDBRANCH  12  13
BRANCH  12  16
ATOM     16  C   UNL     1       7.136  -5.116  23.462  0.00  0.00    +0.322 C 
ATOM     17  OXT UNL     1       5.983  -5.154  23.059  0.00  0.00    -0.249 OA
BRANCH  16  18
ATOM     18  O   UNL     1       8.114  -5.843  22.867  0.00  0.00    -0.480 OA
ATOM     19  H   UNL     1       8.023  -5.800  21.899  0.00  0.00    +0.295 HD
ENDBRANCH  16  18
ENDBRANCH  12  16
ENDBRANCH  11  12
ENDBRANCH   1  11
TORSDOF 5
ENDMDL
