MODEL 1
REMARK VINA RESULT:      -6.9      0.000      0.000
REMARK  Name = 
REMARK  5 active torsions:
REMARK  status: ('A' for Active; 'I' for Inactive)
REMARK    1  A    between atoms: O_1  and  C_2
REMARK    2  A    between atoms: C_5  and  C_8
REMARK    3  A    between atoms: C_13  and  C_14
REMARK    4  A    between atoms: C_14  and  C_15
REMARK    5  A    between atoms: C_18  and  O_19
REMARK                            x       y       z     vdW  Elec       q    Type
REMARK                         _______ _______ _______ _____ _____    ______ ____
ROOT
ATOM      1  C   UNL     1       7.159  -2.570  22.975  0.00  0.00    +0.136 A 
ATOM      2  O   UNL     1       7.023  -2.870  24.309  0.00  0.00    -0.455 OA
ATOM      3  C   UNL     1       6.350  -4.064  24.398  0.00  0.00    +0.140 A 
ATOM      4  C   UNL     1       5.998  -4.752  25.579  0.00  0.00    +0.013 A 
ATOM      5  C   UNL     1       5.270  -5.948  25.377  0.00  0.00    +0.053 A 
ATOM      6  C   UNL     1       4.954  -6.408  24.100  0.00  0.00    +0.118 A 
ATOM      7  C   UNL     1       5.338  -5.714  22.956  0.00  0.00    +0.057 A 
ATOM      8  C   UNL     1       6.048  -4.517  23.115  0.00  0.00    +0.025 A 
ATOM      9  C   UNL     1       6.582  -3.565  22.214  0.00  0.00    +0.058 A 
ENDROOT
BRANCH   1  13
ATOM     10  C   UNL     1       9.177   1.030  21.879  0.00  0.00    +0.117 A 
ATOM     11  C   UNL     1       9.738  -0.198  21.562  0.00  0.00    +0.046 A 
ATOM     12  C   UNL     1       9.076  -1.375  21.928  0.00  0.00    +0.015 A 
ATOM     13  C   UNL     1       7.852  -1.332  22.620  0.00  0.00    +0.018 A 
ATOM     14  C   UNL     1       7.301  -0.079  22.917  0.00  0.00    +0.015 A 
ATOM     15  C   UNL     1       7.957   1.102  22.545  0.00  0.00    +0.046 A 
BRANCH  10  16
ATOM     16  O   UNL     1       9.860   2.153  21.516  0.00  0.00    -0.507 OA
ATOM     17  H   UNL     1       9.280   2.923  21.643  0.00  0.00    +0.292 HD
ENDBRANCH  10  16
ENDBRANCH   1  13
BRANCH   6  18
ATOM     18  O   UNL     1       4.254  -7.563  23.914  0.00  0.00    -0.507 OA
ATOM     19  H   UNL     1       3.870  -7.847  24.759  0.00  0.00    +0.292 HD
ENDBRANCH   6  18
BRANCH   4  20
ATOM     20  C   UNL     1       6.311  -4.292  26.988  0.00  0.00    +0.157 C 
BRANCH  20  21
ATOM     21  C   UNL     1       6.586  -5.472  27.907  0.00  0.00    +0.067 C 
ATOM     22  N   UNL     1       6.814  -6.451  28.668  0.00  0.00    -0.196 NA
ENDBRANCH  20  21
ENDBRANCH   4  20
TORSDOF 5
ENDMDL
MODEL 2
REMARK VINA RESULT:      -6.8      1.541      1.942
REMARK  Name = 
REMARK  5 active torsions:
REMARK  status: ('A' for Active; 'I' for Inactive)
REMARK    1  A    between atoms: O_1  and  C_2
REMARK    2  A    between atoms: C_5  and  C_8
REMARK    3  A    between atoms: C_13  and  C_14
REMARK    4  A    between atoms: C_14  and  C_15
REMARK    5  A    between atoms: C_18  and  O_19
REMARK                            x       y       z     vdW  Elec       q    Type
REMARK                         _______ _______ _______ _____ _____    ______ ____
ROOT
ATOM      1  C   UNL     1       8.546  -1.498  23.081  0.00  0.00    +0.136 A 
ATOM      2  O   UNL     1       8.035  -1.962  24.270  0.00  0.00    -0.455 OA
ATOM      3  C   UNL     1       7.444  -3.176  24.021  0.00  0.00    +0.140 A 
ATOM      4  C   UNL     1       6.799  -4.012  24.957  0.00  0.00    +0.013 A 
ATOM      5  C   UNL     1       6.242  -5.195  24.415  0.00  0.00    +0.053 A 
ATOM      6  C   UNL     1       6.354  -5.505  23.060  0.00  0.00    +0.118 A 
ATOM      7  C   UNL     1       7.018  -4.666  22.170  0.00  0.00    +0.057 A 
ATOM      8  C   UNL     1       7.571  -3.478  22.666  0.00  0.00    +0.025 A 
ATOM      9  C   UNL     1       8.288  -2.409  22.078  0.00  0.00    +0.058 A 
ENDROOT
BRANCH   1  13
ATOM     10  C   UNL     1      10.500   2.298  23.097  0.00  0.00    +0.117 A 
ATOM     11  C   UNL     1       9.849   1.864  21.952  0.00  0.00    +0.046 A 
ATOM     12  C   UNL     1       9.215   0.617  21.950  0.00  0.00    +0.015 A 
ATOM     13  C   UNL     1       9.234  -0.207  23.090  0.00  0.00    +0.018 A 
ATOM     14  C   UNL     1       9.888   0.261  24.236  0.00  0.00    +0.015 A 
ATOM     15  C   UNL     1      10.517   1.512  24.245  0.00  0.00    +0.046 A 
BRANCH  10  16
ATOM     16  O   UNL     1      11.116   3.515  23.054  0.00  0.00    -0.507 OA
ATOM     17  H   UNL     1      11.675   3.607  23.844  0.00  0.00    +0.292 HD
ENDBRANCH  10  16
ENDBRANCH   1  13
BRANCH   6  18
ATOM     18  O   UNL     1       5.816  -6.647  22.547  0.00  0.00    -0.507 OA
ATOM     19  H   UNL     1       5.995  -6.689  21.594  0.00  0.00    +0.292 HD
ENDBRANCH   6  18
BRANCH   4  20
ATOM     20  C   UNL     1       6.645  -3.719  26.435  0.00  0.00    +0.157 C 
BRANCH  20  21
ATOM     21  C   UNL     1       6.935  -4.952  27.276  0.00  0.00    +0.067 C 
ATOM     22  N   UNL     1       7.175  -5.974  27.973  0.00  0.00    -0.196 NA
ENDBRANCH  20  21
ENDBRANCH   4  20
TORSDOF 5
ENDMDL
MODEL 3
REMARK VINA RESULT:      -6.5      2.424      3.313
REMARK  Name = 
REMARK  5 active torsions:
REMARK  status: ('A' for Active; 'I' for Inactive)
REMARK    1  A    between atoms: O_1  and  C_2
REMARK    2  A    between atoms: C_5  and  C_8
REMARK    3  A    between atoms: C_13  and  C_14
REMARK    4  A    between atoms: C_14  and  C_15
REMARK    5  A    between atoms: C_18  and  O_19
REMARK                            x       y       z     vdW  Elec       q    Type
REMARK                         _______ _______ _______ _____ _____    ______ ____
ROOT
ATOM      1  C   UNL     1       8.331  -1.957  24.365  0.00  0.00    +0.136 A 
ATOM      2  O   UNL     1       7.308  -2.674  23.792  0.00  0.00    -0.455 OA
ATOM      3  C   UNL     1       6.971  -3.681  24.662  0.00  0.00    +0.140 A 
ATOM      4  C   UNL     1       5.965  -4.655  24.482  0.00  0.00    +0.013 A 
ATOM      5  C   UNL     1       5.858  -5.602  25.528  0.00  0.00    +0.053 A 
ATOM      6  C   UNL     1       6.678  -5.547  26.654  0.00  0.00    +0.118 A 
ATOM      7  C   UNL     1       7.646  -4.558  26.808  0.00  0.00    +0.057 A 
ATOM      8  C   UNL     1       7.792  -3.610  25.786  0.00  0.00    +0.025 A 
ATOM      9  C   UNL     1       8.645  -2.498  25.594  0.00  0.00    +0.058 A 
ENDROOT
BRANCH   1  13
ATOM     10  C   UNL     1       9.953   1.355  22.213  0.00  0.00    +0.117 A 
ATOM     11  C   UNL     1      10.062   1.312  23.596  0.00  0.00    +0.046 A 
ATOM     12  C   UNL     1       9.524   0.228  24.297  0.00  0.00    +0.015 A 
ATOM     13  C   UNL     1       8.868  -0.818  23.621  0.00  0.00    +0.018 A 
ATOM     14  C   UNL     1       8.782  -0.755  22.225  0.00  0.00    +0.015 A 
ATOM     15  C   UNL     1       9.327   0.325  21.519  0.00  0.00    +0.046 A 
BRANCH  10  16
ATOM     16  O   UNL     1      10.480   2.436  21.568  0.00  0.00    -0.507 OA
ATOM     17  H   UNL     1      10.393   2.297  20.611  0.00  0.00    +0.292 HD
ENDBRANCH  10  16
ENDBRANCH   1  13
BRANCH   6  18
ATOM     18  O   UNL     1       6.568  -6.463  27.657  0.00  0.00    -0.507 OA
ATOM     19  H   UNL     1       6.671  -7.356  27.293  0.00  0.00    +0.292 HD
ENDBRANCH   6  18
BRANCH   4  20
ATOM     20  C   UNL     1       5.054  -4.761  23.276  0.00  0.00    +0.157 C 
BRANCH  20  21
ATOM     21  C   UNL     1       5.780  -5.370  22.087  0.00  0.00    +0.067 C 
ATOM     22  N   UNL     1       6.382  -5.874  21.102  0.00  0.00    -0.196 NA
ENDBRANCH  20  21
ENDBRANCH   4  20
TORSDOF 5
ENDMDL
MODEL 4
REMARK VINA RESULT:      -6.4      2.918      4.174
REMARK  Name = 
REMARK  5 active torsions:
REMARK  status: ('A' for Active; 'I' for Inactive)
REMARK    1  A    between atoms: O_1  and  C_2
REMARK    2  A    between atoms: C_5  and  C_8
REMARK    3  A    between atoms: C_13  and  C_14
REMARK    4  A    between atoms: C_14  and  C_15
REMARK    5  A    between atoms: C_18  and  O_19
REMARK                            x       y       z     vdW  Elec       q    Type
REMARK                         _______ _______ _______ _____ _____    ______ ____
ROOT
ATOM      1  C   UNL     1       8.931  -0.471  24.800  0.00  0.00    +0.136 A 
ATOM      2  O   UNL     1       8.449  -1.319  23.831  0.00  0.00    -0.455 OA
ATOM      3  C   UNL     1       8.260  -2.548  24.415  0.00  0.00    +0.140 A 
ATOM      4  C   UNL     1       7.771  -3.715  23.791  0.00  0.00    +0.013 A 
ATOM      5  C   UNL     1       7.713  -4.857  24.625  0.00  0.00    +0.053 A 
ATOM      6  C   UNL     1       8.092  -4.806  25.966  0.00  0.00    +0.118 A 
ATOM      7  C   UNL     1       8.548  -3.630  26.554  0.00  0.00    +0.057 A 
ATOM      8  C   UNL     1       8.634  -2.481  25.756  0.00  0.00    +0.025 A 
ATOM      9  C   UNL     1       9.046  -1.148  25.995  0.00  0.00    +0.058 A 
ENDROOT
BRANCH   1  13
ATOM     10  C   UNL     1       9.765   3.581  23.742  0.00  0.00    +0.117 A 
ATOM     11  C   UNL     1       8.700   3.294  24.583  0.00  0.00    +0.046 A 
ATOM     12  C   UNL     1       8.427   1.965  24.923  0.00  0.00    +0.015 A 
ATOM     13  C   UNL     1       9.213   0.912  24.417  0.00  0.00    +0.018 A 
ATOM     14  C   UNL     1      10.289   1.231  23.580  0.00  0.00    +0.015 A 
ATOM     15  C   UNL     1      10.571   2.562  23.245  0.00  0.00    +0.046 A 
BRANCH  10  16
ATOM     16  O   UNL     1       9.990   4.889  23.426  0.00  0.00    -0.507 OA
ATOM     17  H   UNL     1       9.195   5.245  22.996  0.00  0.00    +0.292 HD
ENDBRANCH  10  16
ENDBRANCH   1  13
BRANCH   6  18
ATOM     18  O   UNL     1       8.031  -5.910  26.763  0.00  0.00    -0.507 OA
ATOM     19  H   UNL     1       8.091  -5.641  27.694  0.00  0.00    +0.292 HD
ENDBRANCH   6  18
BRANCH   4  20
ATOM     20  C   UNL     1       7.353  -3.824  22.339  0.00  0.00    +0.157 C 
BRANCH  20  21
ATOM     21  C   UNL     1       6.141  -4.729  22.179  0.00  0.00    +0.067 C 
ATOM     22  N   UNL     1       5.137  -5.479  22.047  0.00  0.00    -0.196 NA
ENDBRANCH  20  21
ENDBRANCH   4  20
TORSDOF 5
ENDMDL
MODEL 5
REMARK VINA RESULT:      -6.4      3.053      7.421
REMARK  Name = 
REMARK  5 active torsions:
REMARK  status: ('A' for Active; 'I' for Inactive)
REMARK    1  A    between atoms: O_1  and  C_2
REMARK    2  A    between atoms: C_5  and  C_8
REMARK    3  A    between atoms: C_13  and  C_14
REMARK    4  A    between atoms: C_14  and  C_15
REMARK    5  A    between atoms: C_18  and  O_19
REMARK                            x       y       z     vdW  Elec       q    Type
REMARK                         _______ _______ _______ _____ _____    ______ ____
ROOT
ATOM      1  C   UNL     1       7.360  -2.434  22.720  0.00  0.00    +0.136 A 
ATOM      2  O   UNL     1       6.722  -1.283  23.119  0.00  0.00    -0.455 OA
ATOM      3  C   UNL     1       7.528  -0.224  22.782  0.00  0.00    +0.140 A 
ATOM      4  C   UNL     1       7.263   1.145  22.999  0.00  0.00    +0.013 A 
ATOM      5  C   UNL     1       8.292   2.024  22.585  0.00  0.00    +0.053 A 
ATOM      6  C   UNL     1       9.460   1.555  21.986  0.00  0.00    +0.118 A 
ATOM      7  C   UNL     1       9.678   0.198  21.767  0.00  0.00    +0.057 A 
ATOM      8  C   UNL     1       8.688  -0.706  22.178  0.00  0.00    +0.025 A 
ATOM      9  C   UNL     1       8.565  -2.115  22.129  0.00  0.00    +0.058 A 
ENDROOT
BRANCH   1  13
ATOM     10  C   UNL     1       5.354  -6.128  23.465  0.00  0.00    +0.117 A 
ATOM     11  C   UNL     1       5.472  -5.191  24.482  0.00  0.00    +0.046 A 
ATOM     12  C   UNL     1       6.134  -3.984  24.234  0.00  0.00    +0.015 A 
ATOM     13  C   UNL     1       6.691  -3.709  22.972  0.00  0.00    +0.018 A 
ATOM     14  C   UNL     1       6.547  -4.667  21.961  0.00  0.00    +0.015 A 
ATOM     15  C   UNL     1       5.877  -5.874  22.202  0.00  0.00    +0.046 A 
BRANCH  10  16
ATOM     16  O   UNL     1       4.711  -7.297  23.751  0.00  0.00    -0.507 OA
ATOM     17  H   UNL     1       4.039  -7.123  24.431  0.00  0.00    +0.292 HD
ENDBRANCH  10  16
ENDBRANCH   1  13
BRANCH   6  18
ATOM     18  O   UNL     1      10.445   2.409  21.588  0.00  0.00    -0.507 OA
ATOM     19  H   UNL     1      10.174   3.323  21.769  0.00  0.00    +0.292 HD
ENDBRANCH   6  18
BRANCH   4  20
ATOM     20  C   UNL     1       6.014   1.704  23.650  0.00  0.00    +0.157 C 
BRANCH  20  21
ATOM     21  C   UNL     1       5.763   3.140  23.219  0.00  0.00    +0.067 C 
ATOM     22  N   UNL     1       5.554   4.330  22.862  0.00  0.00    -0.196 NA
ENDBRANCH  20  21
ENDBRANCH   4  20
TORSDOF 5
ENDMDL
MODEL 6
REMARK VINA RESULT:      -6.1      2.966      7.040
REMARK  Name = 
REMARK  5 active torsions:
REMARK  status: ('A' for Active; 'I' for Inactive)
REMARK    1  A    between atoms: O_1  and  C_2
REMARK    2  A    between atoms: C_5  and  C_8
REMARK    3  A    between atoms: C_13  and  C_14
REMARK    4  A    between atoms: C_14  and  C_15
REMARK    5  A    between atoms: C_18  and  O_19
REMARK                            x       y       z     vdW  Elec       q    Type
REMARK                         _______ _______ _______ _____ _____    ______ ____
ROOT
ATOM      1  C   UNL     1       8.255  -1.643  22.721  0.00  0.00    +0.136 A 
ATOM      2  O   UNL     1       7.853  -0.833  23.757  0.00  0.00    -0.455 OA
ATOM      3  C   UNL     1       8.532   0.355  23.641  0.00  0.00    +0.140 A 
ATOM      4  C   UNL     1       8.424   1.479  24.487  0.00  0.00    +0.013 A 
ATOM      5  C   UNL     1       9.274   2.560  24.154  0.00  0.00    +0.053 A 
ATOM      6  C   UNL     1      10.130   2.509  23.055  0.00  0.00    +0.118 A 
ATOM      7  C   UNL     1      10.194   1.391  22.228  0.00  0.00    +0.057 A 
ATOM      8  C   UNL     1       9.377   0.294  22.533  0.00  0.00    +0.025 A 
ATOM      9  C   UNL     1       9.182  -0.978  21.945  0.00  0.00    +0.058 A 
ENDROOT
BRANCH   1  13
ATOM     10  C   UNL     1       6.546  -5.541  22.389  0.00  0.00    +0.117 A 
ATOM     11  C   UNL     1       6.058  -4.506  21.605  0.00  0.00    +0.046 A 
ATOM     12  C   UNL     1       6.617  -3.229  21.721  0.00  0.00    +0.015 A 
ATOM     13  C   UNL     1       7.664  -2.977  22.627  0.00  0.00    +0.018 A 
ATOM     14  C   UNL     1       8.146  -4.042  23.398  0.00  0.00    +0.015 A 
ATOM     15  C   UNL     1       7.594  -5.324  23.279  0.00  0.00    +0.046 A 
BRANCH  10  16
ATOM     16  O   UNL     1       5.965  -6.768  22.254  0.00  0.00    -0.507 OA
ATOM     17  H   UNL     1       5.262  -6.706  21.587  0.00  0.00    +0.292 HD
ENDBRANCH  10  16
ENDBRANCH   1  13
BRANCH   6  18
ATOM     18  O   UNL     1      10.944   3.556  22.740  0.00  0.00    -0.507 OA
ATOM     19  H   UNL     1      11.708   3.562  23.339  0.00  0.00    +0.292 HD
ENDBRANCH   6  18
BRANCH   4  20
ATOM     20  C   UNL     1       7.516   1.582  25.696  0.00  0.00    +0.157 C 
BRANCH  20  21
ATOM     21  C   UNL     1       6.051   1.537  25.292  0.00  0.00    +0.067 C 
ATOM     22  N   UNL     1       4.837   1.501  24.957  0.00  0.00    -0.196 NA
ENDBRANCH  20  21
ENDBRANCH   4  20
TORSDOF 5
ENDMDL
MODEL 7
REMARK VINA RESULT:      -6.1      2.205      2.619
REMARK  Name = 
REMARK  5 active torsions:
REMARK  status: ('A' for Active; 'I' for Inactive)
REMARK    1  A    between atoms: O_1  and  C_2
REMARK    2  A    between atoms: C_5  and  C_8
REMARK    3  A    between atoms: C_13  and  C_14
REMARK    4  A    between atoms: C_14  and  C_15
REMARK    5  A    between atoms: C_18  and  O_19
REMARK                            x       y       z     vdW  Elec       q    Type
REMARK                         _______ _______ _______ _____ _____    ______ ____
ROOT
ATOM      1  C   UNL     1       8.377  -1.438  23.052  0.00  0.00    +0.136 A 
ATOM      2  O   UNL     1       7.423  -1.665  24.016  0.00  0.00    -0.455 OA
ATOM      3  C   UNL     1       6.897  -2.913  23.792  0.00  0.00    +0.140 A 
ATOM      4  C   UNL     1       5.892  -3.556  24.546  0.00  0.00    +0.013 A 
ATOM      5  C   UNL     1       5.510  -4.831  24.064  0.00  0.00    +0.053 A 
ATOM      6  C   UNL     1       6.111  -5.402  22.943  0.00  0.00    +0.118 A 
ATOM      7  C   UNL     1       7.115  -4.747  22.237  0.00  0.00    +0.057 A 
ATOM      8  C   UNL     1       7.511  -3.475  22.674  0.00  0.00    +0.025 A 
ATOM      9  C   UNL     1       8.464  -2.533  22.219  0.00  0.00    +0.058 A 
ENDROOT
BRANCH   1  13
ATOM     10  C   UNL     1      10.405   2.319  23.121  0.00  0.00    +0.117 A 
ATOM     11  C   UNL     1       9.905   1.827  21.923  0.00  0.00    +0.046 A 
ATOM     12  C   UNL     1       9.246   0.594  21.905  0.00  0.00    +0.015 A 
ATOM     13  C   UNL     1       9.089  -0.161  23.082  0.00  0.00    +0.018 A 
ATOM     14  C   UNL     1       9.593   0.363  24.278  0.00  0.00    +0.015 A 
ATOM     15  C   UNL     1      10.246   1.602  24.303  0.00  0.00    +0.046 A 
BRANCH  10  16
ATOM     16  O   UNL     1      11.051   3.519  23.094  0.00  0.00    -0.507 OA
ATOM     17  H   UNL     1      11.807   3.478  23.703  0.00  0.00    +0.292 HD
ENDBRANCH  10  16
ENDBRANCH   1  13
BRANCH   6  18
ATOM     18  O   UNL     1       5.738  -6.632  22.487  0.00  0.00    -0.507 OA
ATOM     19  H   UNL     1       6.107  -6.773  21.600  0.00  0.00    +0.292 HD
ENDBRANCH   6  18
BRANCH   4  20
ATOM     20  C   UNL     1       5.205  -2.977  25.766  0.00  0.00    +0.157 C 
BRANCH  20  21
ATOM     21  C   UNL     1       3.694  -2.964  25.595  0.00  0.00    +0.067 C 
ATOM     22  N   UNL     1       2.442  -2.954  25.453  0.00  0.00    -0.196 NA
ENDBRANCH  20  21
ENDBRANCH   4  20
TORSDOF 5
ENDMDL
MODEL 8
REMARK VINA RESULT:      -6.1      2.937      3.317
REMARK  Name = 
REMARK  5 active torsions:
REMARK  status: ('A' for Active; 'I' for Inactive)
REMARK    1  A    between atoms: O_1  and  C_2
REMARK    2  A    between atoms: C_5  and  C_8
REMARK    3  A    between atoms: C_13  and  C_14
REMARK    4  A    between atoms: C_14  and  C_15
REMARK    5  A    between atoms: C_18  and  O_19
REMARK                            x       y       z     vdW  Elec       q    Type
REMARK                         _______ _______ _______ _____ _____    ______ ____
ROOT
ATOM      1  C   UNL     1       8.565  -1.839  24.761  0.00  0.00    +0.136 A 
ATOM      2  O   UNL     1       7.346  -1.708  25.382  0.00  0.00    -0.455 OA
ATOM      3  C   UNL     1       7.153  -2.826  26.156  0.00  0.00    +0.140 A 
ATOM      4  C   UNL     1       6.038  -3.109  26.972  0.00  0.00    +0.013 A 
ATOM      5  C   UNL     1       6.085  -4.360  27.633  0.00  0.00    +0.053 A 
ATOM      6  C   UNL     1       7.172  -5.222  27.495  0.00  0.00    +0.118 A 
ATOM      7  C   UNL     1       8.266  -4.899  26.697  0.00  0.00    +0.057 A 
ATOM      8  C   UNL     1       8.250  -3.676  26.015  0.00  0.00    +0.025 A 
ATOM      9  C   UNL     1       9.151  -3.030  25.135  0.00  0.00    +0.058 A 
ENDROOT
BRANCH   1  13
ATOM     10  C   UNL     1       9.889   1.311  22.201  0.00  0.00    +0.117 A 
ATOM     11  C   UNL     1       9.789   1.530  23.568  0.00  0.00    +0.046 A 
ATOM     12  C   UNL     1       9.350   0.496  24.401  0.00  0.00    +0.015 A 
ATOM     13  C   UNL     1       9.000  -0.761  23.874  0.00  0.00    +0.018 A 
ATOM     14  C   UNL     1       9.121  -0.958  22.493  0.00  0.00    +0.015 A 
ATOM     15  C   UNL     1       9.569   0.072  21.656  0.00  0.00    +0.046 A 
BRANCH  10  16
ATOM     16  O   UNL     1      10.309   2.349  21.421  0.00  0.00    -0.507 OA
ATOM     17  H   UNL     1      11.120   2.718  21.809  0.00  0.00    +0.292 HD
ENDBRANCH  10  16
ENDBRANCH   1  13
BRANCH   6  18
ATOM     18  O   UNL     1       7.210  -6.424  28.136  0.00  0.00    -0.507 OA
ATOM     19  H   UNL     1       7.746  -6.344  28.941  0.00  0.00    +0.292 HD
ENDBRANCH   6  18
BRANCH   4  20
ATOM     20  C   UNL     1       4.832  -2.210  27.152  0.00  0.00    +0.157 C 
BRANCH  20  21
ATOM     21  C   UNL     1       3.717  -2.582  26.187  0.00  0.00    +0.067 C 
ATOM     22  N   UNL     1       2.793  -2.891  25.387  0.00  0.00    -0.196 NA
ENDBRANCH  20  21
ENDBRANCH   4  20
TORSDOF 5
ENDMDL
MODEL 9
REMARK VINA RESULT:      -6.0      3.821      7.799
REMARK  Name = 
REMARK  5 active torsions:
REMARK  status: ('A' for Active; 'I' for Inactive)
REMARK    1  A    between atoms: O_1  and  C_2
REMARK    2  A    between atoms: C_5  and  C_8
REMARK    3  A    between atoms: C_13  and  C_14
REMARK    4  A    between atoms: C_14  and  C_15
REMARK    5  A    between atoms: C_18  and  O_19
REMARK                            x       y       z     vdW  Elec       q    Type
REMARK                         _______ _______ _______ _____ _____    ______ ____
ROOT
ATOM      1  C   UNL     1       9.271  -0.643  24.856  0.00  0.00    +0.136 A 
ATOM      2  O   UNL     1       8.384   0.307  25.307  0.00  0.00    -0.455 OA
ATOM      3  C   UNL     1       8.806   1.524  24.832  0.00  0.00    +0.140 A 
ATOM      4  C   UNL     1       8.190   2.776  25.044  0.00  0.00    +0.013 A 
ATOM      5  C   UNL     1       8.864   3.878  24.467  0.00  0.00    +0.053 A 
ATOM      6  C   UNL     1      10.034   3.716  23.727  0.00  0.00    +0.118 A 
ATOM      7  C   UNL     1      10.602   2.462  23.519  0.00  0.00    +0.057 A 
ATOM      8  C   UNL     1       9.971   1.347  24.087  0.00  0.00    +0.025 A 
ATOM      9  C   UNL     1      10.251  -0.040  24.096  0.00  0.00    +0.058 A 
ENDROOT
BRANCH   1  13
ATOM     10  C   UNL     1       8.510  -4.700  25.948  0.00  0.00    +0.117 A 
ATOM     11  C   UNL     1       7.965  -3.670  26.701  0.00  0.00    +0.046 A 
ATOM     12  C   UNL     1       8.221  -2.343  26.343  0.00  0.00    +0.015 A 
ATOM     13  C   UNL     1       9.030  -2.035  25.234  0.00  0.00    +0.018 A 
ATOM     14  C   UNL     1       9.558  -3.094  24.484  0.00  0.00    +0.015 A 
ATOM     15  C   UNL     1       9.297  -4.425  24.835  0.00  0.00    +0.046 A 
BRANCH  10  16
ATOM     16  O   UNL     1       8.245  -5.980  26.338  0.00  0.00    -0.507 OA
ATOM     17  H   UNL     1       8.980  -6.549  26.053  0.00  0.00    +0.292 HD
ENDBRANCH  10  16
ENDBRANCH   1  13
BRANCH   6  18
ATOM     18  O   UNL     1      10.677   4.783  23.173  0.00  0.00    -0.507 OA
ATOM     19  H   UNL     1      10.342   4.930  22.274  0.00  0.00    +0.292 HD
ENDBRANCH   6  18
BRANCH   4  20
ATOM     20  C   UNL     1       6.924   3.005  25.845  0.00  0.00    +0.157 C 
BRANCH  20  21
ATOM     21  C   UNL     1       5.711   2.418  25.141  0.00  0.00    +0.067 C 
ATOM     22  N   UNL     1       4.706   1.930  24.557  0.00  0.00    -0.196 NA
ENDBRANCH  20  21
ENDBRANCH   4  20
TORSDOF 5
ENDMDL
