MODEL 1
REMARK VINA RESULT:      -5.5      0.000      0.000
REMARK  Name = 
REMARK  6 active torsions:
REMARK  status: ('A' for Active; 'I' for Inactive)
REMARK    1  A    between atoms: C_1  and  C_2
REMARK    2  A    between atoms: C_2  and  C_3
REMARK    3  A    between atoms: C_3  and  S_4
REMARK    4  A    between atoms: S_4  and  C_5
REMARK    5  A    between atoms: C_5  and  C_6
REMARK    6  A    between atoms: C_8  and  N_9
REMARK                            x       y       z     vdW  Elec       q    Type
REMARK                         _______ _______ _______ _____ _____    ______ ____
ROOT
ATOM      1  C   UNL     1       6.967  -3.616  25.020  0.00  0.00    -0.010 A 
ATOM      2  C   UNL     1       7.470  -2.556  24.247  0.00  0.00    +0.084 A 
ATOM      3  N   UNL     1       6.618  -1.507  23.852  0.00  0.00    -0.216 NA
ATOM      4  C   UNL     1       7.112  -0.520  23.176  0.00  0.00    +0.194 A 
ATOM      5  N   UNL     1       8.418  -0.467  22.800  0.00  0.00    -0.295 N 
ATOM      6  H   UNL     1       8.772   0.327  22.293  0.00  0.00    +0.172 HD
ATOM      7  C   UNL     1       9.340  -1.427  23.126  0.00  0.00    +0.260 A 
ATOM      8  O   UNL     1      10.511  -1.350  22.773  0.00  0.00    -0.267 OA
ATOM      9  N   UNL     1       6.329   0.519  22.805  0.00  0.00    -0.329 N 
ATOM     10  H   UNL     1       6.554   0.990  21.939  0.00  0.00    +0.145 HD
ATOM     11  H   UNL     1       5.339   0.325  22.916  0.00  0.00    +0.145 HD
ATOM     12  C   UNL     1       8.831  -2.553  23.924  0.00  0.00    +0.067 A 
ATOM     13  C   UNL     1       9.698  -3.563  24.358  0.00  0.00    +0.038 A 
ATOM     14  C   UNL     1       9.202  -4.636  25.091  0.00  0.00    +0.026 A 
ATOM     15  C   UNL     1       7.849  -4.638  25.440  0.00  0.00    +0.029 A 
ENDROOT
BRANCH  14  16
ATOM     16  N   UNL     1      10.077  -5.559  25.671  0.00  0.00    -0.358 N 
ATOM     17  H   UNL     1       9.748  -5.964  26.541  0.00  0.00    +0.142 HD
ATOM     18  H   UNL     1      11.043  -5.251  25.724  0.00  0.00    +0.142 HD
ENDBRANCH  14  16
BRANCH   1  19
ATOM     19  C   UNL     1       5.508  -3.682  25.405  0.00  0.00    +0.106 C 
BRANCH  19  20
ATOM     20  S   UNL     1       4.610  -5.091  24.672  0.00  0.00    -0.156 S 
BRANCH  20  21
ATOM     21  C   UNL     1       4.998  -4.808  22.914  0.00  0.00    +0.069 C 
BRANCH  21  23
ATOM     22  C   UNL     1       7.137  -5.564  21.827  0.00  0.00    +0.004 C 
ATOM     23  C   UNL     1       5.787  -6.000  22.376  0.00  0.00    +0.007 C 
ENDBRANCH  21  23
ENDBRANCH  20  21
ENDBRANCH  19  20
ENDBRANCH   1  19
TORSDOF 5
ENDMDL
MODEL 2
REMARK VINA RESULT:      -5.4      3.350      5.616
REMARK  Name = 
REMARK  6 active torsions:
REMARK  status: ('A' for Active; 'I' for Inactive)
REMARK    1  A    between atoms: C_1  and  C_2
REMARK    2  A    between atoms: C_2  and  C_3
REMARK    3  A    between atoms: C_3  and  S_4
REMARK    4  A    between atoms: S_4  and  C_5
REMARK    5  A    between atoms: C_5  and  C_6
REMARK    6  A    between atoms: C_8  and  N_9
REMARK                            x       y       z     vdW  Elec       q    Type
REMARK                         _______ _______ _______ _____ _____    ______ ____
ROOT
ATOM      1  C   UNL     1       6.395  -4.217  23.364  0.00  0.00    -0.010 A 
ATOM      2  C   UNL     1       6.795  -4.793  24.582  0.00  0.00    +0.084 A 
ATOM      3  N   UNL     1       8.116  -4.623  25.041  0.00  0.00    -0.216 NA
ATOM      4  C   UNL     1       8.450  -5.127  26.185  0.00  0.00    +0.194 A 
ATOM      5  N   UNL     1       7.587  -5.845  26.953  0.00  0.00    -0.295 N 
ATOM      6  H   UNL     1       7.877  -6.203  27.848  0.00  0.00    +0.172 HD
ATOM      7  C   UNL     1       6.280  -6.074  26.612  0.00  0.00    +0.260 A 
ATOM      8  O   UNL     1       5.526  -6.725  27.327  0.00  0.00    -0.267 OA
ATOM      9  N   UNL     1       9.701  -4.958  26.671  0.00  0.00    -0.329 N 
ATOM     10  H   UNL     1      10.083  -5.693  27.251  0.00  0.00    +0.145 HD
ATOM     11  H   UNL     1      10.352  -4.615  25.971  0.00  0.00    +0.145 HD
ATOM     12  C   UNL     1       5.844  -5.492  25.333  0.00  0.00    +0.067 A 
ATOM     13  C   UNL     1       4.515  -5.621  24.913  0.00  0.00    +0.038 A 
ATOM     14  C   UNL     1       4.119  -5.087  23.691  0.00  0.00    +0.026 A 
ATOM     15  C   UNL     1       5.054  -4.366  22.943  0.00  0.00    +0.029 A 
ENDROOT
BRANCH  14  16
ATOM     16  N   UNL     1       2.768  -5.061  23.337  0.00  0.00    -0.358 N 
ATOM     17  H   UNL     1       2.162  -5.607  23.941  0.00  0.00    +0.142 HD
ATOM     18  H   UNL     1       2.586  -5.224  22.352  0.00  0.00    +0.142 HD
ENDBRANCH  14  16
BRANCH   1  19
ATOM     19  C   UNL     1       7.369  -3.449  22.503  0.00  0.00    +0.106 C 
BRANCH  19  20
ATOM     20  S   UNL     1       7.498  -1.679  22.926  0.00  0.00    -0.156 S 
BRANCH  20  21
ATOM     21  C   UNL     1       9.250  -1.621  23.427  0.00  0.00    +0.069 C 
BRANCH  21  23
ATOM     22  C   UNL     1       9.431  -0.099  21.432  0.00  0.00    +0.004 C 
ATOM     23  C   UNL     1      10.101  -1.209  22.227  0.00  0.00    +0.007 C 
ENDBRANCH  21  23
ENDBRANCH  20  21
ENDBRANCH  19  20
ENDBRANCH   1  19
TORSDOF 5
ENDMDL
MODEL 3
REMARK VINA RESULT:      -5.3      3.568      5.237
REMARK  Name = 
REMARK  6 active torsions:
REMARK  status: ('A' for Active; 'I' for Inactive)
REMARK    1  A    between atoms: C_1  and  C_2
REMARK    2  A    between atoms: C_2  and  C_3
REMARK    3  A    between atoms: C_3  and  S_4
REMARK    4  A    between atoms: S_4  and  C_5
REMARK    5  A    between atoms: C_5  and  C_6
REMARK    6  A    between atoms: C_8  and  N_9
REMARK                            x       y       z     vdW  Elec       q    Type
REMARK                         _______ _______ _______ _____ _____    ______ ____
ROOT
ATOM      1  C   UNL     1       7.820  -4.832  25.149  0.00  0.00    -0.010 A 
ATOM      2  C   UNL     1       6.846  -5.325  24.263  0.00  0.00    +0.084 A 
ATOM      3  N   UNL     1       7.024  -5.185  22.872  0.00  0.00    -0.216 NA
ATOM      4  C   UNL     1       6.135  -5.684  22.075  0.00  0.00    +0.194 A 
ATOM      5  N   UNL     1       5.014  -6.310  22.523  0.00  0.00    -0.295 N 
ATOM      6  H   UNL     1       4.356  -6.705  21.872  0.00  0.00    +0.172 HD
ATOM      7  C   UNL     1       4.734  -6.506  23.850  0.00  0.00    +0.260 A 
ATOM      8  O   UNL     1       3.715  -7.077  24.222  0.00  0.00    -0.267 OA
ATOM      9  N   UNL     1       6.289  -5.594  20.734  0.00  0.00    -0.329 N 
ATOM     10  H   UNL     1       5.453  -5.529  20.169  0.00  0.00    +0.145 HD
ATOM     11  H   UNL     1       7.012  -4.936  20.463  0.00  0.00    +0.145 HD
ATOM     12  C   UNL     1       5.734  -5.986  24.795  0.00  0.00    +0.067 A 
ATOM     13  C   UNL     1       5.574  -6.178  26.172  0.00  0.00    +0.038 A 
ATOM     14  C   UNL     1       6.514  -5.661  27.058  0.00  0.00    +0.026 A 
ATOM     15  C   UNL     1       7.641  -5.019  26.538  0.00  0.00    +0.029 A 
ENDROOT
BRANCH  14  16
ATOM     16  N   UNL     1       6.457  -5.986  28.416  0.00  0.00    -0.358 N 
ATOM     17  H   UNL     1       7.047  -6.766  28.688  0.00  0.00    +0.142 HD
ATOM     18  H   UNL     1       5.517  -6.056  28.795  0.00  0.00    +0.142 HD
ENDBRANCH  14  16
BRANCH   1  19
ATOM     19  C   UNL     1       9.046  -4.109  24.643  0.00  0.00    +0.106 C 
BRANCH  19  20
ATOM     20  S   UNL     1       8.849  -2.298  24.539  0.00  0.00    -0.156 S 
BRANCH  20  21
ATOM     21  C   UNL     1      10.050  -1.945  23.214  0.00  0.00    +0.069 C 
BRANCH  21  23
ATOM     22  C   UNL     1       9.520  -0.130  21.554  0.00  0.00    +0.004 C 
ATOM     23  C   UNL     1       9.295  -1.585  21.936  0.00  0.00    +0.007 C 
ENDBRANCH  21  23
ENDBRANCH  20  21
ENDBRANCH  19  20
ENDBRANCH   1  19
TORSDOF 5
ENDMDL
MODEL 4
REMARK VINA RESULT:      -5.3      3.466      5.445
REMARK  Name = 
REMARK  6 active torsions:
REMARK  status: ('A' for Active; 'I' for Inactive)
REMARK    1  A    between atoms: C_1  and  C_2
REMARK    2  A    between atoms: C_2  and  C_3
REMARK    3  A    between atoms: C_3  and  S_4
REMARK    4  A    between atoms: S_4  and  C_5
REMARK    5  A    between atoms: C_5  and  C_6
REMARK    6  A    between atoms: C_8  and  N_9
REMARK                            x       y       z     vdW  Elec       q    Type
REMARK                         _______ _______ _______ _____ _____    ______ ____
ROOT
ATOM      1  C   UNL     1       8.179  -1.197  23.967  0.00  0.00    -0.010 A 
ATOM      2  C   UNL     1       7.922  -2.578  24.010  0.00  0.00    +0.084 A 
ATOM      3  N   UNL     1       7.614  -3.274  22.825  0.00  0.00    -0.216 NA
ATOM      4  C   UNL     1       7.422  -4.552  22.883  0.00  0.00    +0.194 A 
ATOM      5  N   UNL     1       7.472  -5.252  24.048  0.00  0.00    -0.295 N 
ATOM      6  H   UNL     1       7.339  -6.250  24.051  0.00  0.00    +0.172 HD
ATOM      7  C   UNL     1       7.763  -4.685  25.261  0.00  0.00    +0.260 A 
ATOM      8  O   UNL     1       7.803  -5.343  26.294  0.00  0.00    -0.267 OA
ATOM      9  N   UNL     1       7.153  -5.258  21.760  0.00  0.00    -0.329 N 
ATOM     10  H   UNL     1       6.562  -6.073  21.848  0.00  0.00    +0.145 HD
ATOM     11  H   UNL     1       6.911  -4.666  20.972  0.00  0.00    +0.145 HD
ATOM     12  C   UNL     1       8.022  -3.237  25.240  0.00  0.00    +0.067 A 
ATOM     13  C   UNL     1       8.381  -2.565  26.414  0.00  0.00    +0.038 A 
ATOM     14  C   UNL     1       8.601  -1.191  26.388  0.00  0.00    +0.026 A 
ATOM     15  C   UNL     1       8.527  -0.526  25.161  0.00  0.00    +0.029 A 
ENDROOT
BRANCH  14  16
ATOM     16  N   UNL     1       9.120  -0.538  27.510  0.00  0.00    -0.358 N 
ATOM     17  H   UNL     1       9.951  -0.969  27.902  0.00  0.00    +0.142 HD
ATOM     18  H   UNL     1       8.431  -0.303  28.218  0.00  0.00    +0.142 HD
ENDBRANCH  14  16
BRANCH   1  19
ATOM     19  C   UNL     1       8.089  -0.423  22.673  0.00  0.00    +0.106 C 
BRANCH  19  20
ATOM     20  S   UNL     1       9.694  -0.178  21.841  0.00  0.00    -0.156 S 
BRANCH  20  21
ATOM     21  C   UNL     1       9.793   1.641  21.917  0.00  0.00    +0.069 C 
BRANCH  21  23
ATOM     22  C   UNL     1       9.483   2.992  24.017  0.00  0.00    +0.004 C 
ATOM     23  C   UNL     1      10.406   2.054  23.253  0.00  0.00    +0.007 C 
ENDBRANCH  21  23
ENDBRANCH  20  21
ENDBRANCH  19  20
ENDBRANCH   1  19
TORSDOF 5
ENDMDL
MODEL 5
REMARK VINA RESULT:      -5.2      1.989      3.882
REMARK  Name = 
REMARK  6 active torsions:
REMARK  status: ('A' for Active; 'I' for Inactive)
REMARK    1  A    between atoms: C_1  and  C_2
REMARK    2  A    between atoms: C_2  and  C_3
REMARK    3  A    between atoms: C_3  and  S_4
REMARK    4  A    between atoms: S_4  and  C_5
REMARK    5  A    between atoms: C_5  and  C_6
REMARK    6  A    between atoms: C_8  and  N_9
REMARK                            x       y       z     vdW  Elec       q    Type
REMARK                         _______ _______ _______ _____ _____    ______ ____
ROOT
ATOM      1  C   UNL     1       6.342  -2.829  24.599  0.00  0.00    -0.010 A 
ATOM      2  C   UNL     1       7.130  -3.763  25.293  0.00  0.00    +0.084 A 
ATOM      3  N   UNL     1       6.574  -4.502  26.356  0.00  0.00    -0.216 NA
ATOM      4  C   UNL     1       7.306  -5.386  26.953  0.00  0.00    +0.194 A 
ATOM      5  N   UNL     1       8.605  -5.612  26.620  0.00  0.00    -0.295 N 
ATOM      6  H   UNL     1       9.137  -6.324  27.093  0.00  0.00    +0.172 HD
ATOM      7  C   UNL     1       9.252  -4.957  25.605  0.00  0.00    +0.260 A 
ATOM      8  O   UNL     1      10.424  -5.184  25.328  0.00  0.00    -0.267 OA
ATOM      9  N   UNL     1       6.796  -6.134  27.958  0.00  0.00    -0.329 N 
ATOM     10  H   UNL     1       7.428  -6.430  28.690  0.00  0.00    +0.145 HD
ATOM     11  H   UNL     1       5.913  -5.776  28.306  0.00  0.00    +0.145 HD
ATOM     12  C   UNL     1       8.449  -3.964  24.874  0.00  0.00    +0.067 A 
ATOM     13  C   UNL     1       8.995  -3.276  23.785  0.00  0.00    +0.038 A 
ATOM     14  C   UNL     1       8.234  -2.322  23.116  0.00  0.00    +0.026 A 
ATOM     15  C   UNL     1       6.907  -2.129  23.510  0.00  0.00    +0.029 A 
ENDROOT
BRANCH  14  16
ATOM     16  N   UNL     1       8.704  -1.750  21.930  0.00  0.00    -0.358 N 
ATOM     17  H   UNL     1       7.992  -1.286  21.374  0.00  0.00    +0.142 HD
ATOM     18  H   UNL     1       9.298  -2.357  21.375  0.00  0.00    +0.142 HD
ENDBRANCH  14  16
BRANCH   1  19
ATOM     19  C   UNL     1       4.909  -2.563  24.997  0.00  0.00    +0.106 C 
BRANCH  19  20
ATOM     20  S   UNL     1       3.777  -3.957  24.675  0.00  0.00    -0.156 S 
BRANCH  20  21
ATOM     21  C   UNL     1       4.399  -4.472  23.040  0.00  0.00    +0.069 C 
BRANCH  21  23
ATOM     22  C   UNL     1       6.281  -6.000  22.367  0.00  0.00    +0.004 C 
ATOM     23  C   UNL     1       4.980  -5.880  23.146  0.00  0.00    +0.007 C 
ENDBRANCH  21  23
ENDBRANCH  20  21
ENDBRANCH  19  20
ENDBRANCH   1  19
TORSDOF 5
ENDMDL
MODEL 6
REMARK VINA RESULT:      -5.2      3.638      5.831
REMARK  Name = 
REMARK  6 active torsions:
REMARK  status: ('A' for Active; 'I' for Inactive)
REMARK    1  A    between atoms: C_1  and  C_2
REMARK    2  A    between atoms: C_2  and  C_3
REMARK    3  A    between atoms: C_3  and  S_4
REMARK    4  A    between atoms: S_4  and  C_5
REMARK    5  A    between atoms: C_5  and  C_6
REMARK    6  A    between atoms: C_8  and  N_9
REMARK                            x       y       z     vdW  Elec       q    Type
REMARK                         _______ _______ _______ _____ _____    ______ ____
ROOT
ATOM      1  C   UNL     1       7.593  -4.534  23.621  0.00  0.00    -0.010 A 
ATOM      2  C   UNL     1       6.782  -5.217  24.544  0.00  0.00    +0.084 A 
ATOM      3  N   UNL     1       6.962  -5.010  25.926  0.00  0.00    -0.216 NA
ATOM      4  C   UNL     1       6.177  -5.618  26.756  0.00  0.00    +0.194 A 
ATOM      5  N   UNL     1       5.203  -6.477  26.353  0.00  0.00    -0.295 N 
ATOM      6  H   UNL     1       4.597  -6.915  27.027  0.00  0.00    +0.172 HD
ATOM      7  C   UNL     1       4.935  -6.756  25.039  0.00  0.00    +0.260 A 
ATOM      8  O   UNL     1       4.048  -7.535  24.707  0.00  0.00    -0.267 OA
ATOM      9  N   UNL     1       6.300  -5.420  28.089  0.00  0.00    -0.329 N 
ATOM     10  H   UNL     1       6.064  -6.188  28.702  0.00  0.00    +0.145 HD
ATOM     11  H   UNL     1       7.167  -4.954  28.339  0.00  0.00    +0.145 HD
ATOM     12  C   UNL     1       5.781  -6.062  24.055  0.00  0.00    +0.067 A 
ATOM     13  C   UNL     1       5.558  -6.233  22.684  0.00  0.00    +0.038 A 
ATOM     14  C   UNL     1       6.380  -5.591  21.763  0.00  0.00    +0.026 A 
ATOM     15  C   UNL     1       7.369  -4.725  22.239  0.00  0.00    +0.029 A 
ENDROOT
BRANCH  14  16
ATOM     16  N   UNL     1       6.068  -5.618  20.401  0.00  0.00    -0.358 N 
ATOM     17  H   UNL     1       5.074  -5.637  20.195  0.00  0.00    +0.142 HD
ATOM     18  H   UNL     1       6.592  -6.300  19.861  0.00  0.00    +0.142 HD
ENDBRANCH  14  16
BRANCH   1  19
ATOM     19  C   UNL     1       8.693  -3.607  24.080  0.00  0.00    +0.106 C 
BRANCH  19  20
ATOM     20  S   UNL     1       8.385  -1.847  23.706  0.00  0.00    -0.156 S 
BRANCH  20  21
ATOM     21  C   UNL     1       9.842  -1.506  22.665  0.00  0.00    +0.069 C 
BRANCH  21  23
ATOM     22  C   UNL     1       9.817   0.878  21.860  0.00  0.00    +0.004 C 
ATOM     23  C   UNL     1       9.440  -0.560  21.535  0.00  0.00    +0.007 C 
ENDBRANCH  21  23
ENDBRANCH  20  21
ENDBRANCH  19  20
ENDBRANCH   1  19
TORSDOF 5
ENDMDL
MODEL 7
REMARK VINA RESULT:      -5.1      3.311      5.010
REMARK  Name = 
REMARK  6 active torsions:
REMARK  status: ('A' for Active; 'I' for Inactive)
REMARK    1  A    between atoms: C_1  and  C_2
REMARK    2  A    between atoms: C_2  and  C_3
REMARK    3  A    between atoms: C_3  and  S_4
REMARK    4  A    between atoms: S_4  and  C_5
REMARK    5  A    between atoms: C_5  and  C_6
REMARK    6  A    between atoms: C_8  and  N_9
REMARK                            x       y       z     vdW  Elec       q    Type
REMARK                         _______ _______ _______ _____ _____    ______ ____
ROOT
ATOM      1  C   UNL     1       7.550  -3.913  23.691  0.00  0.00    -0.010 A 
ATOM      2  C   UNL     1       6.425  -4.541  24.255  0.00  0.00    +0.084 A 
ATOM      3  N   UNL     1       5.153  -4.354  23.682  0.00  0.00    -0.216 NA
ATOM      4  C   UNL     1       4.139  -4.975  24.193  0.00  0.00    +0.194 A 
ATOM      5  N   UNL     1       4.243  -5.778  25.285  0.00  0.00    -0.295 N 
ATOM      6  H   UNL     1       3.435  -6.263  25.641  0.00  0.00    +0.172 HD
ATOM      7  C   UNL     1       5.426  -6.036  25.926  0.00  0.00    +0.260 A 
ATOM      8  O   UNL     1       5.487  -6.767  26.908  0.00  0.00    -0.267 OA
ATOM      9  N   UNL     1       2.907  -4.842  23.649  0.00  0.00    -0.329 N 
ATOM     10  H   UNL     1       2.111  -4.902  24.270  0.00  0.00    +0.145 HD
ATOM     11  H   UNL     1       2.849  -4.073  22.990  0.00  0.00    +0.145 HD
ATOM     12  C   UNL     1       6.613  -5.378  25.360  0.00  0.00    +0.067 A 
ATOM     13  C   UNL     1       7.881  -5.614  25.904  0.00  0.00    +0.038 A 
ATOM     14  C   UNL     1       8.994  -4.968  25.377  0.00  0.00    +0.026 A 
ATOM     15  C   UNL     1       8.822  -4.147  24.258  0.00  0.00    +0.029 A 
ENDROOT
BRANCH  14  16
ATOM     16  N   UNL     1      10.280  -5.319  25.798  0.00  0.00    -0.358 N 
ATOM     17  H   UNL     1      10.515  -6.297  25.664  0.00  0.00    +0.142 HD
ATOM     18  H   UNL     1      10.529  -4.980  26.722  0.00  0.00    +0.142 HD
ENDBRANCH  14  16
BRANCH   1  19
ATOM     19  C   UNL     1       7.419  -2.997  22.498  0.00  0.00    +0.106 C 
BRANCH  19  20
ATOM     20  S   UNL     1       7.793  -1.248  22.860  0.00  0.00    -0.156 S 
BRANCH  20  21
ATOM     21  C   UNL     1       9.454  -1.141  22.117  0.00  0.00    +0.069 C 
BRANCH  21  23
ATOM     22  C   UNL     1       9.811  -0.446  24.509  0.00  0.00    +0.004 C 
ATOM     23  C   UNL     1      10.404  -0.471  23.108  0.00  0.00    +0.007 C 
ENDBRANCH  21  23
ENDBRANCH  20  21
ENDBRANCH  19  20
ENDBRANCH   1  19
TORSDOF 5
ENDMDL
MODEL 8
REMARK VINA RESULT:      -5.1      5.170      7.164
REMARK  Name = 
REMARK  6 active torsions:
REMARK  status: ('A' for Active; 'I' for Inactive)
REMARK    1  A    between atoms: C_1  and  C_2
REMARK    2  A    between atoms: C_2  and  C_3
REMARK    3  A    between atoms: C_3  and  S_4
REMARK    4  A    between atoms: S_4  and  C_5
REMARK    5  A    between atoms: C_5  and  C_6
REMARK    6  A    between atoms: C_8  and  N_9
REMARK                            x       y       z     vdW  Elec       q    Type
REMARK                         _______ _______ _______ _____ _____    ______ ____
ROOT
ATOM      1  C   UNL     1       9.752   2.155  23.904  0.00  0.00    -0.010 A 
ATOM      2  C   UNL     1      10.235   3.464  23.736  0.00  0.00    +0.084 A 
ATOM      3  N   UNL     1      11.608   3.686  23.515  0.00  0.00    -0.216 NA
ATOM      4  C   UNL     1      12.023   4.896  23.323  0.00  0.00    +0.194 A 
ATOM      5  N   UNL     1      11.193   5.973  23.357  0.00  0.00    -0.295 N 
ATOM      6  H   UNL     1      11.549   6.898  23.180  0.00  0.00    +0.172 HD
ATOM      7  C   UNL     1       9.841   5.881  23.562  0.00  0.00    +0.260 A 
ATOM      8  O   UNL     1       9.119   6.871  23.586  0.00  0.00    -0.267 OA
ATOM      9  N   UNL     1      13.331   5.143  23.077  0.00  0.00    -0.329 N 
ATOM     10  H   UNL     1      13.710   6.023  23.399  0.00  0.00    +0.145 HD
ATOM     11  H   UNL     1      13.926   4.347  23.281  0.00  0.00    +0.145 HD
ATOM     12  C   UNL     1       9.317   4.520  23.753  0.00  0.00    +0.067 A 
ATOM     13  C   UNL     1       7.944   4.306  23.918  0.00  0.00    +0.038 A 
ATOM     14  C   UNL     1       7.462   3.017  24.122  0.00  0.00    +0.026 A 
ATOM     15  C   UNL     1       8.366   1.952  24.084  0.00  0.00    +0.029 A 
ENDROOT
BRANCH  14  16
ATOM     16  N   UNL     1       6.086   2.770  24.121  0.00  0.00    -0.358 N 
ATOM     17  H   UNL     1       5.783   2.068  24.788  0.00  0.00    +0.142 HD
ATOM     18  H   UNL     1       5.682   2.633  23.200  0.00  0.00    +0.142 HD
ENDBRANCH  14  16
BRANCH   1  19
ATOM     19  C   UNL     1      10.687   0.968  23.896  0.00  0.00    +0.106 C 
BRANCH  19  20
ATOM     20  S   UNL     1       9.896  -0.604  24.375  0.00  0.00    -0.156 S 
BRANCH  20  21
ATOM     21  C   UNL     1      10.009  -1.490  22.786  0.00  0.00    +0.069 C 
BRANCH  21  23
ATOM     22  C   UNL     1       7.498  -1.345  22.843  0.00  0.00    +0.004 C 
ATOM     23  C   UNL     1       8.697  -2.227  22.528  0.00  0.00    +0.007 C 
ENDBRANCH  21  23
ENDBRANCH  20  21
ENDBRANCH  19  20
ENDBRANCH   1  19
TORSDOF 5
ENDMDL
MODEL 9
REMARK VINA RESULT:      -4.9      2.368      3.318
REMARK  Name = 
REMARK  6 active torsions:
REMARK  status: ('A' for Active; 'I' for Inactive)
REMARK    1  A    between atoms: C_1  and  C_2
REMARK    2  A    between atoms: C_2  and  C_3
REMARK    3  A    between atoms: C_3  and  S_4
REMARK    4  A    between atoms: S_4  and  C_5
REMARK    5  A    between atoms: C_5  and  C_6
REMARK    6  A    between atoms: C_8  and  N_9
REMARK                            x       y       z     vdW  Elec       q    Type
REMARK                         _______ _______ _______ _____ _____    ______ ____
ROOT
ATOM      1  C   UNL     1       7.882  -3.237  24.789  0.00  0.00    -0.010 A 
ATOM      2  C   UNL     1       8.550  -2.125  24.247  0.00  0.00    +0.084 A 
ATOM      3  N   UNL     1       9.251  -1.243  25.093  0.00  0.00    -0.216 NA
ATOM      4  C   UNL     1       9.893  -0.250  24.567  0.00  0.00    +0.194 A 
ATOM      5  N   UNL     1       9.893   0.001  23.230  0.00  0.00    -0.295 N 
ATOM      6  H   UNL     1      10.423   0.771  22.855  0.00  0.00    +0.172 HD
ATOM      7  C   UNL     1       9.249  -0.786  22.312  0.00  0.00    +0.260 A 
ATOM      8  O   UNL     1       9.270  -0.534  21.112  0.00  0.00    -0.267 OA
ATOM      9  N   UNL     1      10.602   0.599  25.346  0.00  0.00    -0.329 N 
ATOM     10  H   UNL     1      10.675   1.561  25.045  0.00  0.00    +0.145 HD
ATOM     11  H   UNL     1      10.388   0.498  26.333  0.00  0.00    +0.145 HD
ATOM     12  C   UNL     1       8.533  -1.948  22.859  0.00  0.00    +0.067 A 
ATOM     13  C   UNL     1       7.885  -2.847  22.005  0.00  0.00    +0.038 A 
ATOM     14  C   UNL     1       7.190  -3.930  22.535  0.00  0.00    +0.026 A 
ATOM     15  C   UNL     1       7.220  -4.130  23.918  0.00  0.00    +0.029 A 
ENDROOT
BRANCH  14  16
ATOM     16  N   UNL     1       6.682  -4.923  21.693  0.00  0.00    -0.358 N 
ATOM     17  H   UNL     1       5.752  -5.249  21.938  0.00  0.00    +0.142 HD
ATOM     18  H   UNL     1       7.326  -5.685  21.504  0.00  0.00    +0.142 HD
ENDBRANCH  14  16
BRANCH   1  19
ATOM     19  C   UNL     1       7.861  -3.488  26.278  0.00  0.00    +0.106 C 
BRANCH  19  20
ATOM     20  S   UNL     1       7.969  -5.252  26.735  0.00  0.00    -0.156 S 
BRANCH  20  21
ATOM     21  C   UNL     1       6.467  -5.384  27.759  0.00  0.00    +0.069 C 
BRANCH  21  23
ATOM     22  C   UNL     1       5.054  -6.479  25.988  0.00  0.00    +0.004 C 
ATOM     23  C   UNL     1       5.236  -5.249  26.865  0.00  0.00    +0.007 C 
ENDBRANCH  21  23
ENDBRANCH  20  21
ENDBRANCH  19  20
ENDBRANCH   1  19
TORSDOF 5
ENDMDL
