MODEL 1
REMARK VINA RESULT:      -6.2      0.000      0.000
REMARK  Name = 
REMARK  4 active torsions:
REMARK  status: ('A' for Active; 'I' for Inactive)
REMARK    1  A    between atoms: C_1  and  C_2
REMARK    2  A    between atoms: C_4  and  C_15
REMARK    3  A    between atoms: N_6  and  C_7
REMARK    4  A    between atoms: C_15  and  O_16
REMARK                            x       y       z     vdW  Elec       q    Type
REMARK                         _______ _______ _______ _____ _____    ______ ____
ROOT
ATOM      1  C   UNL     1       7.714   1.705  25.617  0.00  0.00    +0.088 C 
ATOM      2  C   UNL     1       8.654   1.102  24.645  0.00  0.00    +0.131 A 
ATOM      3  N   UNL     1       9.617   1.754  23.881  0.00  0.00    -0.217 N 
ATOM      4  N   UNL     1      10.276   0.828  23.123  0.00  0.00    -0.138 NA
ATOM      5  C   UNL     1       9.679  -0.329  23.457  0.00  0.00    +0.259 A 
ATOM      6  N   UNL     1       8.686  -0.190  24.384  0.00  0.00    -0.206 NA
ENDROOT
BRANCH   3   7
ATOM      7  C   UNL     1       9.997   3.129  23.768  0.00  0.00    +0.070 A 
ATOM      8  C   UNL     1       9.097   4.189  23.913  0.00  0.00    +0.048 A 
ATOM      9  C   UNL     1       9.543   5.513  23.785  0.00  0.00    +0.044 A 
ATOM     10 CL   UNL     1       8.418   6.803  23.964  0.00  0.00    -0.083 Cl
ATOM     11  C   UNL     1      10.876   5.801  23.515  0.00  0.00    +0.040 A 
ATOM     12  C   UNL     1      11.773   4.752  23.371  0.00  0.00    +0.044 A 
ATOM     13 CL   UNL     1      13.428   5.084  23.035  0.00  0.00    -0.083 Cl
ATOM     14  C   UNL     1      11.346   3.429  23.496  0.00  0.00    +0.048 A 
ENDBRANCH   3   7
BRANCH   5  15
ATOM     15  C   UNL     1      10.101  -1.600  22.844  0.00  0.00    +0.376 C 
ATOM     16  O   UNL     1      10.315  -2.643  23.447  0.00  0.00    -0.242 OA
BRANCH  15  17
ATOM     17  O   UNL     1      10.238  -1.504  21.486  0.00  0.00    -0.475 OA
ATOM     18  H   UNL     1      10.868  -0.768  21.309  0.00  0.00    +0.296 HD
ENDBRANCH  15  17
ENDBRANCH   5  15
TORSDOF 3
ENDMDL
MODEL 2
REMARK VINA RESULT:      -6.1      4.280      5.873
REMARK  Name = 
REMARK  4 active torsions:
REMARK  status: ('A' for Active; 'I' for Inactive)
REMARK    1  A    between atoms: C_1  and  C_2
REMARK    2  A    between atoms: C_4  and  C_15
REMARK    3  A    between atoms: N_6  and  C_7
REMARK    4  A    between atoms: C_15  and  O_16
REMARK                            x       y       z     vdW  Elec       q    Type
REMARK                         _______ _______ _______ _____ _____    ______ ____
ROOT
ATOM      1  C   UNL     1       9.238  -3.641  24.789  0.00  0.00    +0.088 C 
ATOM      2  C   UNL     1       8.262  -3.812  23.690  0.00  0.00    +0.131 A 
ATOM      3  N   UNL     1       7.632  -2.813  22.953  0.00  0.00    -0.217 N 
ATOM      4  N   UNL     1       6.815  -3.400  22.028  0.00  0.00    -0.138 NA
ATOM      5  C   UNL     1       6.984  -4.714  22.255  0.00  0.00    +0.259 A 
ATOM      6  N   UNL     1       7.861  -4.993  23.263  0.00  0.00    -0.206 NA
ENDROOT
BRANCH   3   7
ATOM      7  C   UNL     1       7.695  -1.385  23.004  0.00  0.00    +0.070 A 
ATOM      8  C   UNL     1       8.739  -0.641  22.449  0.00  0.00    +0.048 A 
ATOM      9  C   UNL     1       8.734   0.758  22.542  0.00  0.00    +0.044 A 
ATOM     10 CL   UNL     1      10.032   1.655  21.852  0.00  0.00    -0.083 Cl
ATOM     11  C   UNL     1       7.700   1.434  23.181  0.00  0.00    +0.040 A 
ATOM     12  C   UNL     1       6.661   0.700  23.735  0.00  0.00    +0.044 A 
ATOM     13 CL   UNL     1       5.371   1.514  24.532  0.00  0.00    -0.083 Cl
ATOM     14  C   UNL     1       6.650  -0.693  23.650  0.00  0.00    +0.048 A 
ENDBRANCH   3   7
BRANCH   5  15
ATOM     15  C   UNL     1       6.259  -5.717  21.454  0.00  0.00    +0.376 C 
ATOM     16  O   UNL     1       5.956  -5.600  20.275  0.00  0.00    -0.242 OA
BRANCH  15  17
ATOM     17  O   UNL     1       5.944  -6.834  22.179  0.00  0.00    -0.475 OA
ATOM     18  H   UNL     1       6.756  -7.389  22.224  0.00  0.00    +0.296 HD
ENDBRANCH  15  17
ENDBRANCH   5  15
TORSDOF 3
ENDMDL
MODEL 3
REMARK VINA RESULT:      -6.0      4.915      7.001
REMARK  Name = 
REMARK  4 active torsions:
REMARK  status: ('A' for Active; 'I' for Inactive)
REMARK    1  A    between atoms: C_1  and  C_2
REMARK    2  A    between atoms: C_4  and  C_15
REMARK    3  A    between atoms: N_6  and  C_7
REMARK    4  A    between atoms: C_15  and  O_16
REMARK                            x       y       z     vdW  Elec       q    Type
REMARK                         _______ _______ _______ _____ _____    ______ ____
ROOT
ATOM      1  C   UNL     1       5.958   0.018  24.585  0.00  0.00    +0.088 C 
ATOM      2  C   UNL     1       7.297   0.180  23.974  0.00  0.00    +0.131 A 
ATOM      3  N   UNL     1       8.125  -0.819  23.472  0.00  0.00    -0.217 N 
ATOM      4  N   UNL     1       9.265  -0.241  22.989  0.00  0.00    -0.138 NA
ATOM      5  C   UNL     1       9.075   1.068  23.229  0.00  0.00    +0.259 A 
ATOM      6  N   UNL     1       7.883   1.352  23.829  0.00  0.00    -0.206 NA
ENDROOT
BRANCH   3   7
ATOM      7  C   UNL     1       7.988  -2.240  23.388  0.00  0.00    +0.070 A 
ATOM      8  C   UNL     1       7.232  -2.883  22.402  0.00  0.00    +0.048 A 
ATOM      9  C   UNL     1       7.142  -4.282  22.386  0.00  0.00    +0.044 A 
ATOM     10 CL   UNL     1       6.203  -5.052  21.164  0.00  0.00    -0.083 Cl
ATOM     11  C   UNL     1       7.794  -5.058  23.338  0.00  0.00    +0.040 A 
ATOM     12  C   UNL     1       8.545  -4.425  24.318  0.00  0.00    +0.044 A 
ATOM     13 CL   UNL     1       9.361  -5.364  25.507  0.00  0.00    -0.083 Cl
ATOM     14  C   UNL     1       8.647  -3.034  24.348  0.00  0.00    +0.048 A 
ENDBRANCH   3   7
BRANCH   5  15
ATOM     15  C   UNL     1      10.099   2.059  22.856  0.00  0.00    +0.376 C 
ATOM     16  O   UNL     1      10.843   2.640  23.634  0.00  0.00    -0.242 OA
BRANCH  15  17
ATOM     17  O   UNL     1      10.144   2.278  21.506  0.00  0.00    -0.475 OA
ATOM     18  H   UNL     1       9.762   1.483  21.069  0.00  0.00    +0.296 HD
ENDBRANCH  15  17
ENDBRANCH   5  15
TORSDOF 3
ENDMDL
MODEL 4
REMARK VINA RESULT:      -6.0      4.655      6.895
REMARK  Name = 
REMARK  4 active torsions:
REMARK  status: ('A' for Active; 'I' for Inactive)
REMARK    1  A    between atoms: C_1  and  C_2
REMARK    2  A    between atoms: C_4  and  C_15
REMARK    3  A    between atoms: N_6  and  C_7
REMARK    4  A    between atoms: C_15  and  O_16
REMARK                            x       y       z     vdW  Elec       q    Type
REMARK                         _______ _______ _______ _____ _____    ______ ____
ROOT
ATOM      1  C   UNL     1       7.840   0.074  26.438  0.00  0.00    +0.088 C 
ATOM      2  C   UNL     1       8.573   0.353  25.181  0.00  0.00    +0.131 A 
ATOM      3  N   UNL     1       8.818  -0.525  24.130  0.00  0.00    -0.217 N 
ATOM      4  N   UNL     1       9.517   0.136  23.161  0.00  0.00    -0.138 NA
ATOM      5  C   UNL     1       9.667   1.370  23.673  0.00  0.00    +0.259 A 
ATOM      6  N   UNL     1       9.100   1.529  24.904  0.00  0.00    -0.206 NA
ENDROOT
BRANCH   3   7
ATOM      7  C   UNL     1       8.484  -1.900  23.918  0.00  0.00    +0.070 A 
ATOM      8  C   UNL     1       9.063  -2.951  24.636  0.00  0.00    +0.048 A 
ATOM      9  C   UNL     1       8.687  -4.276  24.370  0.00  0.00    +0.044 A 
ATOM     10 CL   UNL     1       9.414  -5.555  25.264  0.00  0.00    -0.083 Cl
ATOM     11  C   UNL     1       7.741  -4.575  23.396  0.00  0.00    +0.040 A 
ATOM     12  C   UNL     1       7.163  -3.536  22.681  0.00  0.00    +0.044 A 
ATOM     13 CL   UNL     1       5.990  -3.881  21.471  0.00  0.00    -0.083 Cl
ATOM     14  C   UNL     1       7.525  -2.212  22.934  0.00  0.00    +0.048 A 
ENDBRANCH   3   7
BRANCH   5  15
ATOM     15  C   UNL     1      10.388   2.414  22.924  0.00  0.00    +0.376 C 
ATOM     16  O   UNL     1      11.062   3.306  23.420  0.00  0.00    -0.242 OA
BRANCH  15  17
ATOM     17  O   UNL     1      10.229   2.289  21.571  0.00  0.00    -0.475 OA
ATOM     18  H   UNL     1      10.827   1.565  21.274  0.00  0.00    +0.296 HD
ENDBRANCH  15  17
ENDBRANCH   5  15
TORSDOF 3
ENDMDL
MODEL 5
REMARK VINA RESULT:      -6.0      5.393      7.487
REMARK  Name = 
REMARK  4 active torsions:
REMARK  status: ('A' for Active; 'I' for Inactive)
REMARK    1  A    between atoms: C_1  and  C_2
REMARK    2  A    between atoms: C_4  and  C_15
REMARK    3  A    between atoms: N_6  and  C_7
REMARK    4  A    between atoms: C_15  and  O_16
REMARK                            x       y       z     vdW  Elec       q    Type
REMARK                         _______ _______ _______ _____ _____    ______ ____
ROOT
ATOM      1  C   UNL     1      10.004  -2.479  23.926  0.00  0.00    +0.088 C 
ATOM      2  C   UNL     1       9.241  -1.373  23.305  0.00  0.00    +0.131 A 
ATOM      3  N   UNL     1       7.904  -1.376  22.920  0.00  0.00    -0.217 N 
ATOM      4  N   UNL     1       7.595  -0.152  22.398  0.00  0.00    -0.138 NA
ATOM      5  C   UNL     1       8.754   0.524  22.484  0.00  0.00    +0.259 A 
ATOM      6  N   UNL     1       9.774  -0.198  23.034  0.00  0.00    -0.206 NA
ENDROOT
BRANCH   3   7
ATOM      7  C   UNL     1       6.883  -2.376  22.976  0.00  0.00    +0.070 A 
ATOM      8  C   UNL     1       5.824  -2.343  23.889  0.00  0.00    +0.048 A 
ATOM      9  C   UNL     1       4.861  -3.362  23.887  0.00  0.00    +0.044 A 
ATOM     10 CL   UNL     1       3.567  -3.303  25.022  0.00  0.00    -0.083 Cl
ATOM     11  C   UNL     1       4.932  -4.419  22.985  0.00  0.00    +0.040 A 
ATOM     12  C   UNL     1       5.980  -4.456  22.077  0.00  0.00    +0.044 A 
ATOM     13 CL   UNL     1       6.089  -5.754  20.952  0.00  0.00    -0.083 Cl
ATOM     14  C   UNL     1       6.947  -3.450  22.065  0.00  0.00    +0.048 A 
ENDBRANCH   3   7
BRANCH   5  15
ATOM     15  C   UNL     1       8.852   1.916  22.012  0.00  0.00    +0.376 C 
ATOM     16  O   UNL     1       7.933   2.723  21.984  0.00  0.00    -0.242 OA
BRANCH  15  17
ATOM     17  O   UNL     1      10.114   2.236  21.591  0.00  0.00    -0.475 OA
ATOM     18  H   UNL     1      10.312   1.670  20.810  0.00  0.00    +0.296 HD
ENDBRANCH  15  17
ENDBRANCH   5  15
TORSDOF 3
ENDMDL
MODEL 6
REMARK VINA RESULT:      -5.9      4.111      5.432
REMARK  Name = 
REMARK  4 active torsions:
REMARK  status: ('A' for Active; 'I' for Inactive)
REMARK    1  A    between atoms: C_1  and  C_2
REMARK    2  A    between atoms: C_4  and  C_15
REMARK    3  A    between atoms: N_6  and  C_7
REMARK    4  A    between atoms: C_15  and  O_16
REMARK                            x       y       z     vdW  Elec       q    Type
REMARK                         _______ _______ _______ _____ _____    ______ ____
ROOT
ATOM      1  C   UNL     1       8.982  -4.054  25.361  0.00  0.00    +0.088 C 
ATOM      2  C   UNL     1       8.202  -4.088  24.103  0.00  0.00    +0.131 A 
ATOM      3  N   UNL     1       7.865  -3.013  23.286  0.00  0.00    -0.217 N 
ATOM      4  N   UNL     1       7.149  -3.480  22.220  0.00  0.00    -0.138 NA
ATOM      5  C   UNL     1       7.082  -4.804  22.447  0.00  0.00    +0.259 A 
ATOM      6  N   UNL     1       7.717  -5.200  23.589  0.00  0.00    -0.206 NA
ENDROOT
BRANCH   3   7
ATOM      7  C   UNL     1       8.125  -1.609  23.375  0.00  0.00    +0.070 A 
ATOM      8  C   UNL     1       7.198  -0.631  23.002  0.00  0.00    +0.048 A 
ATOM      9  C   UNL     1       7.525   0.728  23.115  0.00  0.00    +0.044 A 
ATOM     10 CL   UNL     1       6.369   1.916  22.649  0.00  0.00    -0.083 Cl
ATOM     11  C   UNL     1       8.766   1.133  23.595  0.00  0.00    +0.040 A 
ATOM     12  C   UNL     1       9.690   0.166  23.966  0.00  0.00    +0.044 A 
ATOM     13 CL   UNL     1      11.232   0.643  24.561  0.00  0.00    -0.083 Cl
ATOM     14  C   UNL     1       9.380  -1.191  23.861  0.00  0.00    +0.048 A 
ENDBRANCH   3   7
BRANCH   5  15
ATOM     15  C   UNL     1       6.374  -5.695  21.512  0.00  0.00    +0.376 C 
ATOM     16  O   UNL     1       5.999  -5.391  20.388  0.00  0.00    -0.242 OA
BRANCH  15  17
ATOM     17  O   UNL     1       6.166  -6.942  22.036  0.00  0.00    -0.475 OA
ATOM     18  H   UNL     1       5.213  -7.154  21.911  0.00  0.00    +0.296 HD
ENDBRANCH  15  17
ENDBRANCH   5  15
TORSDOF 3
ENDMDL
MODEL 7
REMARK VINA RESULT:      -5.8      1.683      3.088
REMARK  Name = 
REMARK  4 active torsions:
REMARK  status: ('A' for Active; 'I' for Inactive)
REMARK    1  A    between atoms: C_1  and  C_2
REMARK    2  A    between atoms: C_4  and  C_15
REMARK    3  A    between atoms: N_6  and  C_7
REMARK    4  A    between atoms: C_15  and  O_16
REMARK                            x       y       z     vdW  Elec       q    Type
REMARK                         _______ _______ _______ _____ _____    ______ ____
ROOT
ATOM      1  C   UNL     1       8.693   1.329  21.429  0.00  0.00    +0.088 C 
ATOM      2  C   UNL     1       8.936   1.047  22.863  0.00  0.00    +0.131 A 
ATOM      3  N   UNL     1       9.503   1.896  23.809  0.00  0.00    -0.217 N 
ATOM      4  N   UNL     1       9.535   1.250  25.013  0.00  0.00    -0.138 NA
ATOM      5  C   UNL     1       8.997   0.050  24.735  0.00  0.00    +0.259 A 
ATOM      6  N   UNL     1       8.623  -0.100  23.431  0.00  0.00    -0.206 NA
ENDROOT
BRANCH   3   7
ATOM      7  C   UNL     1      10.019   3.227  23.731  0.00  0.00    +0.070 A 
ATOM      8  C   UNL     1      11.350   3.519  23.418  0.00  0.00    +0.048 A 
ATOM      9  C   UNL     1      11.784   4.852  23.364  0.00  0.00    +0.044 A 
ATOM     10 CL   UNL     1      13.428   5.189  22.979  0.00  0.00    -0.083 Cl
ATOM     11  C   UNL     1      10.911   5.905  23.615  0.00  0.00    +0.040 A 
ATOM     12  C   UNL     1       9.589   5.621  23.926  0.00  0.00    +0.044 A 
ATOM     13 CL   UNL     1       8.491   6.907  24.242  0.00  0.00    -0.083 Cl
ATOM     14  C   UNL     1       9.140   4.301  23.983  0.00  0.00    +0.048 A 
ENDBRANCH   3   7
BRANCH   5  15
ATOM     15  C   UNL     1       8.851  -0.972  25.787  0.00  0.00    +0.376 C 
ATOM     16  O   UNL     1       8.500  -2.130  25.609  0.00  0.00    -0.242 OA
BRANCH  15  17
ATOM     17  O   UNL     1       9.156  -0.487  27.030  0.00  0.00    -0.475 OA
ATOM     18  H   UNL     1       8.621  -0.998  27.680  0.00  0.00    +0.296 HD
ENDBRANCH  15  17
ENDBRANCH   5  15
TORSDOF 3
ENDMDL
MODEL 8
REMARK VINA RESULT:      -5.8      6.697      9.134
REMARK  Name = 
REMARK  4 active torsions:
REMARK  status: ('A' for Active; 'I' for Inactive)
REMARK    1  A    between atoms: C_1  and  C_2
REMARK    2  A    between atoms: C_4  and  C_15
REMARK    3  A    between atoms: N_6  and  C_7
REMARK    4  A    between atoms: C_15  and  O_16
REMARK                            x       y       z     vdW  Elec       q    Type
REMARK                         _______ _______ _______ _____ _____    ______ ____
ROOT
ATOM      1  C   UNL     1       9.800  -5.102  25.626  0.00  0.00    +0.088 C 
ATOM      2  C   UNL     1       9.145  -4.169  24.681  0.00  0.00    +0.131 A 
ATOM      3  N   UNL     1       7.798  -4.121  24.335  0.00  0.00    -0.217 N 
ATOM      4  N   UNL     1       7.611  -3.105  23.441  0.00  0.00    -0.138 NA
ATOM      5  C   UNL     1       8.847  -2.597  23.285  0.00  0.00    +0.259 A 
ATOM      6  N   UNL     1       9.800  -3.228  24.031  0.00  0.00    -0.206 NA
ENDROOT
BRANCH   3   7
ATOM      7  C   UNL     1       6.667  -4.903  24.730  0.00  0.00    +0.070 A 
ATOM      8  C   UNL     1       6.525  -5.459  26.004  0.00  0.00    +0.048 A 
ATOM      9  C   UNL     1       5.388  -6.218  26.318  0.00  0.00    +0.044 A 
ATOM     10 CL   UNL     1       5.234  -6.897  27.893  0.00  0.00    -0.083 Cl
ATOM     11  C   UNL     1       4.384  -6.434  25.380  0.00  0.00    +0.040 A 
ATOM     12  C   UNL     1       4.520  -5.884  24.114  0.00  0.00    +0.044 A 
ATOM     13 CL   UNL     1       3.292  -6.138  22.936  0.00  0.00    -0.083 Cl
ATOM     14  C   UNL     1       5.645  -5.125  23.785  0.00  0.00    +0.048 A 
ENDBRANCH   3   7
BRANCH   5  15
ATOM     15  C   UNL     1       9.087  -1.462  22.378  0.00  0.00    +0.376 C 
ATOM     16  O   UNL     1       8.382  -0.466  22.284  0.00  0.00    -0.242 OA
BRANCH  15  17
ATOM     17  O   UNL     1      10.214  -1.629  21.621  0.00  0.00    -0.475 OA
ATOM     18  H   UNL     1      10.043  -1.208  20.747  0.00  0.00    +0.296 HD
ENDBRANCH  15  17
ENDBRANCH   5  15
TORSDOF 3
ENDMDL
MODEL 9
REMARK VINA RESULT:      -5.8      5.653      7.641
REMARK  Name = 
REMARK  4 active torsions:
REMARK  status: ('A' for Active; 'I' for Inactive)
REMARK    1  A    between atoms: C_1  and  C_2
REMARK    2  A    between atoms: C_4  and  C_15
REMARK    3  A    between atoms: N_6  and  C_7
REMARK    4  A    between atoms: C_15  and  O_16
REMARK                            x       y       z     vdW  Elec       q    Type
REMARK                         _______ _______ _______ _____ _____    ______ ____
ROOT
ATOM      1  C   UNL     1       9.760  -0.408  21.614  0.00  0.00    +0.088 C 
ATOM      2  C   UNL     1       8.491  -0.131  22.324  0.00  0.00    +0.131 A 
ATOM      3  N   UNL     1       7.625  -1.053  22.904  0.00  0.00    -0.217 N 
ATOM      4  N   UNL     1       6.577  -0.378  23.465  0.00  0.00    -0.138 NA
ATOM      5  C   UNL     1       6.855   0.909  23.191  0.00  0.00    +0.259 A 
ATOM      6  N   UNL     1       8.017   1.087  22.497  0.00  0.00    -0.206 NA
ENDROOT
BRANCH   3   7
ATOM      7  C   UNL     1       7.651  -2.480  22.999  0.00  0.00    +0.070 A 
ATOM      8  C   UNL     1       6.921  -3.320  22.153  0.00  0.00    +0.048 A 
ATOM      9  C   UNL     1       6.994  -4.712  22.309  0.00  0.00    +0.044 A 
ATOM     10 CL   UNL     1       6.084  -5.727  21.258  0.00  0.00    -0.083 Cl
ATOM     11  C   UNL     1       7.786  -5.285  23.297  0.00  0.00    +0.040 A 
ATOM     12  C   UNL     1       8.513  -4.456  24.139  0.00  0.00    +0.044 A 
ATOM     13 CL   UNL     1       9.500  -5.143  25.370  0.00  0.00    -0.083 Cl
ATOM     14  C   UNL     1       8.452  -3.069  23.997  0.00  0.00    +0.048 A 
ENDBRANCH   3   7
BRANCH   5  15
ATOM     15  C   UNL     1       5.949   1.985  23.628  0.00  0.00    +0.376 C 
ATOM     16  O   UNL     1       6.124   3.181  23.442  0.00  0.00    -0.242 OA
BRANCH  15  17
ATOM     17  O   UNL     1       4.850   1.505  24.286  0.00  0.00    -0.475 OA
ATOM     18  H   UNL     1       4.662   0.609  23.924  0.00  0.00    +0.296 HD
ENDBRANCH  15  17
ENDBRANCH   5  15
TORSDOF 3
ENDMDL
