MODEL 1
REMARK VINA RESULT:      -3.4      0.000      0.000
REMARK  Name = 
REMARK  6 active torsions:
REMARK  status: ('A' for Active; 'I' for Inactive)
REMARK    1  A    between atoms: N_1  and  C_2
REMARK    2  A    between atoms: C_2  and  C_3
REMARK    3  A    between atoms: C_3  and  CA_4
REMARK    4  A    between atoms: CA_4  and  N_6
REMARK    5  A    between atoms: CA_4  and  C_7
REMARK    6  A    between atoms: C_7  and  O_8
REMARK                            x       y       z     vdW  Elec       q    Type
REMARK                         _______ _______ _______ _____ _____    ______ ____
ROOT
ATOM      1  CA  UNL     1       9.000  -4.605  26.473  0.00  0.00    +0.162 C 
ENDROOT
BRANCH   1   2
ATOM      2  N   UNL     1       9.949  -5.428  25.663  0.00  0.00    -0.318 NA
ATOM      3  H1  UNL     1       9.480  -6.305  25.418  0.00  0.00    +0.119 HD
ATOM      4  H2  UNL     1      10.084  -4.954  24.763  0.00  0.00    +0.119 HD
ENDBRANCH   1   2
BRANCH   1   5
ATOM      5  C   UNL     1       7.693  -5.401  26.611  0.00  0.00    +0.322 C 
ATOM      6  OXT UNL     1       6.833  -5.496  25.750  0.00  0.00    -0.249 OA
BRANCH   5   7
ATOM      7  O   UNL     1       7.624  -6.027  27.815  0.00  0.00    -0.480 OA
ATOM      8  H   UNL     1       6.858  -6.651  27.753  0.00  0.00    +0.295 HD
ENDBRANCH   5   7
ENDBRANCH   1   5
BRANCH   1   9
ATOM      9  C   UNL     1       8.750  -3.273  25.758  0.00  0.00    +0.045 C 
BRANCH   9  10
ATOM     10  C   UNL     1       9.226  -3.284  24.301  0.00  0.00    +0.080 C 
BRANCH  10  11
ATOM     11  N   UNL     1       8.187  -3.845  23.444  0.00  0.00    -0.330 NA
ATOM     12  H   UNL     1       8.191  -4.862  23.524  0.00  0.00    +0.118 HD
ATOM     13  H   UNL     1       7.275  -3.548  23.794  0.00  0.00    +0.118 HD
ENDBRANCH  10  11
ENDBRANCH   9  10
ENDBRANCH   1   9
TORSDOF 6
ENDMDL
MODEL 2
REMARK VINA RESULT:      -3.4      4.234      5.291
REMARK  Name = 
REMARK  6 active torsions:
REMARK  status: ('A' for Active; 'I' for Inactive)
REMARK    1  A    between atoms: N_1  and  C_2
REMARK    2  A    between atoms: C_2  and  C_3
REMARK    3  A    between atoms: C_3  and  CA_4
REMARK    4  A    between atoms: CA_4  and  N_6
REMARK    5  A    between atoms: CA_4  and  C_7
REMARK    6  A    between atoms: C_7  and  O_8
REMARK                            x       y       z     vdW  Elec       q    Type
REMARK                         _______ _______ _______ _____ _____    ______ ____
ROOT
ATOM      1  CA  UNL     1      10.433  -1.284  22.714  0.00  0.00    +0.162 C 
ENDROOT
BRANCH   1   2
ATOM      2  N   UNL     1       9.866  -1.592  21.366  0.00  0.00    -0.318 NA
ATOM      3  H1  UNL     1       9.110  -2.272  21.488  0.00  0.00    +0.119 HD
ATOM      4  H2  UNL     1       9.394  -0.748  21.024  0.00  0.00    +0.119 HD
ENDBRANCH   1   2
BRANCH   1   5
ATOM      5  C   UNL     1       9.731  -2.191  23.735  0.00  0.00    +0.322 C 
ATOM      6  OXT UNL     1      10.095  -3.314  24.045  0.00  0.00    -0.249 OA
BRANCH   5   7
ATOM      7  O   UNL     1       8.658  -1.569  24.288  0.00  0.00    -0.480 OA
ATOM      8  H   UNL     1       8.476  -0.782  23.716  0.00  0.00    +0.295 HD
ENDBRANCH   5   7
ENDBRANCH   1   5
BRANCH   1   9
ATOM      9  C   UNL     1      10.183   0.193  23.040  0.00  0.00    +0.045 C 
BRANCH   9  10
ATOM     10  C   UNL     1       9.499   0.946  21.893  0.00  0.00    +0.080 C 
BRANCH  10  11
ATOM     11  N   UNL     1      10.162   2.227  21.675  0.00  0.00    -0.330 NA
ATOM     12  H   UNL     1       9.506   2.881  21.247  0.00  0.00    +0.118 HD
ATOM     13  H   UNL     1      10.399   2.634  22.581  0.00  0.00    +0.118 HD
ENDBRANCH  10  11
ENDBRANCH   9  10
ENDBRANCH   1   9
TORSDOF 6
ENDMDL
MODEL 3
REMARK VINA RESULT:      -3.4      2.561      3.447
REMARK  Name = 
REMARK  6 active torsions:
REMARK  status: ('A' for Active; 'I' for Inactive)
REMARK    1  A    between atoms: N_1  and  C_2
REMARK    2  A    between atoms: C_2  and  C_3
REMARK    3  A    between atoms: C_3  and  CA_4
REMARK    4  A    between atoms: CA_4  and  N_6
REMARK    5  A    between atoms: CA_4  and  C_7
REMARK    6  A    between atoms: C_7  and  O_8
REMARK                            x       y       z     vdW  Elec       q    Type
REMARK                         _______ _______ _______ _____ _____    ______ ____
ROOT
ATOM      1  CA  UNL     1       8.568  -5.066  24.495  0.00  0.00    +0.162 C 
ENDROOT
BRANCH   1   2
ATOM      2  N   UNL     1       9.757  -5.592  25.232  0.00  0.00    -0.318 NA
ATOM      3  H1  UNL     1       9.896  -6.568  24.955  0.00  0.00    +0.119 HD
ATOM      4  H2  UNL     1      10.588  -5.107  24.874  0.00  0.00    +0.119 HD
ENDBRANCH   1   2
BRANCH   1   5
ATOM      5  C   UNL     1       8.852  -3.599  24.138  0.00  0.00    +0.322 C 
ATOM      6  OXT UNL     1       8.002  -2.742  23.956  0.00  0.00    -0.249 OA
BRANCH   5   7
ATOM      7  O   UNL     1      10.187  -3.356  24.084  0.00  0.00    -0.480 OA
ATOM      8  H   UNL     1      10.605  -3.994  24.716  0.00  0.00    +0.295 HD
ENDBRANCH   5   7
ENDBRANCH   1   5
BRANCH   1   9
ATOM      9  C   UNL     1       7.330  -5.175  25.392  0.00  0.00    +0.045 C 
BRANCH   9  10
ATOM     10  C   UNL     1       7.619  -4.798  26.849  0.00  0.00    +0.080 C 
BRANCH  10  11
ATOM     11  N   UNL     1       7.634  -5.997  27.680  0.00  0.00    -0.330 NA
ATOM     12  H   UNL     1       6.719  -6.123  28.114  0.00  0.00    +0.118 HD
ATOM     13  H   UNL     1       7.763  -6.812  27.078  0.00  0.00    +0.118 HD
ENDBRANCH  10  11
ENDBRANCH   9  10
ENDBRANCH   1   9
TORSDOF 6
ENDMDL
MODEL 4
REMARK VINA RESULT:      -3.4      4.919      5.901
REMARK  Name = 
REMARK  6 active torsions:
REMARK  status: ('A' for Active; 'I' for Inactive)
REMARK    1  A    between atoms: N_1  and  C_2
REMARK    2  A    between atoms: C_2  and  C_3
REMARK    3  A    between atoms: C_3  and  CA_4
REMARK    4  A    between atoms: CA_4  and  N_6
REMARK    5  A    between atoms: CA_4  and  C_7
REMARK    6  A    between atoms: C_7  and  O_8
REMARK                            x       y       z     vdW  Elec       q    Type
REMARK                         _______ _______ _______ _____ _____    ______ ____
ROOT
ATOM      1  CA  UNL     1       9.462  -0.483  23.527  0.00  0.00    +0.162 C 
ENDROOT
BRANCH   1   2
ATOM      2  N   UNL     1      10.583   0.336  24.082  0.00  0.00    -0.318 NA
ATOM      3  H1  UNL     1      10.374   1.322  23.902  0.00  0.00    +0.119 HD
ATOM      4  H2  UNL     1      10.554   0.254  25.104  0.00  0.00    +0.119 HD
ENDBRANCH   1   2
BRANCH   1   5
ATOM      5  C   UNL     1      10.064  -1.782  22.971  0.00  0.00    +0.322 C 
ATOM      6  OXT UNL     1      10.240  -2.806  23.611  0.00  0.00    -0.249 OA
BRANCH   5   7
ATOM      7  O   UNL     1      10.348  -1.664  21.648  0.00  0.00    -0.480 OA
ATOM      8  H   UNL     1      11.150  -1.085  21.593  0.00  0.00    +0.295 HD
ENDBRANCH   5   7
ENDBRANCH   1   5
BRANCH   1   9
ATOM      9  C   UNL     1       8.761   0.308  22.417  0.00  0.00    +0.045 C 
BRANCH   9  10
ATOM     10  C   UNL     1       9.011   1.817  22.516  0.00  0.00    +0.080 C 
BRANCH  10  11
ATOM     11  N   UNL     1      10.109   2.197  21.634  0.00  0.00    -0.330 NA
ATOM     12  H   UNL     1       9.752   2.780  20.876  0.00  0.00    +0.118 HD
ATOM     13  H   UNL     1      10.757   2.793  22.152  0.00  0.00    +0.118 HD
ENDBRANCH  10  11
ENDBRANCH   9  10
ENDBRANCH   1   9
TORSDOF 6
ENDMDL
MODEL 5
REMARK VINA RESULT:      -3.3      6.281      7.065
REMARK  Name = 
REMARK  6 active torsions:
REMARK  status: ('A' for Active; 'I' for Inactive)
REMARK    1  A    between atoms: N_1  and  C_2
REMARK    2  A    between atoms: C_2  and  C_3
REMARK    3  A    between atoms: C_3  and  CA_4
REMARK    4  A    between atoms: CA_4  and  N_6
REMARK    5  A    between atoms: CA_4  and  C_7
REMARK    6  A    between atoms: C_7  and  O_8
REMARK                            x       y       z     vdW  Elec       q    Type
REMARK                         _______ _______ _______ _____ _____    ______ ____
ROOT
ATOM      1  CA  UNL     1       9.411   0.908  23.528  0.00  0.00    +0.162 C 
ENDROOT
BRANCH   1   2
ATOM      2  N   UNL     1       8.171   0.540  22.778  0.00  0.00    -0.318 NA
ATOM      3  H1  UNL     1       7.589   1.378  22.696  0.00  0.00    +0.119 HD
ATOM      4  H2  UNL     1       8.442   0.325  21.812  0.00  0.00    +0.119 HD
ENDBRANCH   1   2
BRANCH   1   5
ATOM      5  C   UNL     1      10.106   2.038  22.754  0.00  0.00    +0.322 C 
ATOM      6  OXT UNL     1      10.783   2.920  23.256  0.00  0.00    -0.249 OA
BRANCH   5   7
ATOM      7  O   UNL     1       9.903   1.914  21.417  0.00  0.00    -0.480 OA
ATOM      8  H   UNL     1      10.162   2.784  21.021  0.00  0.00    +0.295 HD
ENDBRANCH   5   7
ENDBRANCH   1   5
BRANCH   1   9
ATOM      9  C   UNL     1      10.323  -0.320  23.629  0.00  0.00    +0.045 C 
BRANCH   9  10
ATOM     10  C   UNL     1       9.785  -1.523  22.847  0.00  0.00    +0.080 C 
BRANCH  10  11
ATOM     11  N   UNL     1      10.076  -1.362  21.426  0.00  0.00    -0.330 NA
ATOM     12  H   UNL     1       9.636  -2.118  20.900  0.00  0.00    +0.118 HD
ATOM     13  H   UNL     1       9.630  -0.505  21.094  0.00  0.00    +0.118 HD
ENDBRANCH  10  11
ENDBRANCH   9  10
ENDBRANCH   1   9
TORSDOF 6
ENDMDL
MODEL 6
REMARK VINA RESULT:      -3.3      5.785      6.676
REMARK  Name = 
REMARK  6 active torsions:
REMARK  status: ('A' for Active; 'I' for Inactive)
REMARK    1  A    between atoms: N_1  and  C_2
REMARK    2  A    between atoms: C_2  and  C_3
REMARK    3  A    between atoms: C_3  and  CA_4
REMARK    4  A    between atoms: CA_4  and  N_6
REMARK    5  A    between atoms: CA_4  and  C_7
REMARK    6  A    between atoms: C_7  and  O_8
REMARK                            x       y       z     vdW  Elec       q    Type
REMARK                         _______ _______ _______ _____ _____    ______ ____
ROOT
ATOM      1  CA  UNL     1      10.103   1.068  22.315  0.00  0.00    +0.162 C 
ENDROOT
BRANCH   1   2
ATOM      2  N   UNL     1       9.568   2.157  21.442  0.00  0.00    -0.318 NA
ATOM      3  H1  UNL     1       9.220   2.906  22.047  0.00  0.00    +0.119 HD
ATOM      4  H2  UNL     1      10.362   2.580  20.948  0.00  0.00    +0.119 HD
ENDBRANCH   1   2
BRANCH   1   5
ATOM      5  C   UNL     1       9.255  -0.189  22.064  0.00  0.00    +0.322 C 
ATOM      6  OXT UNL     1       8.127  -0.373  22.491  0.00  0.00    -0.249 OA
BRANCH   5   7
ATOM      7  O   UNL     1       9.911  -1.072  21.266  0.00  0.00    -0.480 OA
ATOM      8  H   UNL     1       9.472  -1.014  20.380  0.00  0.00    +0.295 HD
ENDBRANCH   5   7
ENDBRANCH   1   5
BRANCH   1   9
ATOM      9  C   UNL     1      10.005   1.503  23.782  0.00  0.00    +0.045 C 
BRANCH   9  10
ATOM     10  C   UNL     1      10.728   0.545  24.733  0.00  0.00    +0.080 C 
BRANCH  10  11
ATOM     11  N   UNL     1       9.810   0.086  25.770  0.00  0.00    -0.330 NA
ATOM     12  H   UNL     1       9.562  -0.889  25.599  0.00  0.00    +0.118 HD
ATOM     13  H   UNL     1      10.297   0.089  26.667  0.00  0.00    +0.118 HD
ENDBRANCH  10  11
ENDBRANCH   9  10
ENDBRANCH   1   9
TORSDOF 6
ENDMDL
MODEL 7
REMARK VINA RESULT:      -3.2      1.832      2.223
REMARK  Name = 
REMARK  6 active torsions:
REMARK  status: ('A' for Active; 'I' for Inactive)
REMARK    1  A    between atoms: N_1  and  C_2
REMARK    2  A    between atoms: C_2  and  C_3
REMARK    3  A    between atoms: C_3  and  CA_4
REMARK    4  A    between atoms: CA_4  and  N_6
REMARK    5  A    between atoms: CA_4  and  C_7
REMARK    6  A    between atoms: C_7  and  O_8
REMARK                            x       y       z     vdW  Elec       q    Type
REMARK                         _______ _______ _______ _____ _____    ______ ____
ROOT
ATOM      1  CA  UNL     1       7.240  -4.773  26.722  0.00  0.00    +0.162 C 
ENDROOT
BRANCH   1   2
ATOM      2  N   UNL     1       7.886  -5.879  27.492  0.00  0.00    -0.318 NA
ATOM      3  H1  UNL     1       7.581  -5.807  28.467  0.00  0.00    +0.119 HD
ATOM      4  H2  UNL     1       7.482  -6.765  27.166  0.00  0.00    +0.119 HD
ENDBRANCH   1   2
BRANCH   1   5
ATOM      5  C   UNL     1       6.029  -5.363  25.983  0.00  0.00    +0.322 C 
ATOM      6  OXT UNL     1       5.440  -4.827  25.059  0.00  0.00    -0.249 OA
BRANCH   5   7
ATOM      7  O   UNL     1       5.710  -6.592  26.467  0.00  0.00    -0.480 OA
ATOM      8  H   UNL     1       6.247  -7.238  25.943  0.00  0.00    +0.295 HD
ENDBRANCH   5   7
ENDBRANCH   1   5
BRANCH   1   9
ATOM      9  C   UNL     1       8.252  -4.193  25.727  0.00  0.00    +0.045 C 
BRANCH   9  10
ATOM     10  C   UNL     1       8.963  -5.275  24.907  0.00  0.00    +0.080 C 
BRANCH  10  11
ATOM     11  N   UNL     1      10.301  -5.503  25.442  0.00  0.00    -0.330 NA
ATOM     12  H   UNL     1      10.992  -5.067  24.830  0.00  0.00    +0.118 HD
ATOM     13  H   UNL     1      10.386  -5.018  26.336  0.00  0.00    +0.118 HD
ENDBRANCH  10  11
ENDBRANCH   9  10
ENDBRANCH   1   9
TORSDOF 6
ENDMDL
MODEL 8
REMARK VINA RESULT:      -3.2      6.380      7.025
REMARK  Name = 
REMARK  6 active torsions:
REMARK  status: ('A' for Active; 'I' for Inactive)
REMARK    1  A    between atoms: N_1  and  C_2
REMARK    2  A    between atoms: C_2  and  C_3
REMARK    3  A    between atoms: C_3  and  CA_4
REMARK    4  A    between atoms: CA_4  and  N_6
REMARK    5  A    between atoms: CA_4  and  C_7
REMARK    6  A    between atoms: C_7  and  O_8
REMARK                            x       y       z     vdW  Elec       q    Type
REMARK                         _______ _______ _______ _____ _____    ______ ____
ROOT
ATOM      1  CA  UNL     1       8.697   0.037  22.123  0.00  0.00    +0.162 C 
ENDROOT
BRANCH   1   2
ATOM      2  N   UNL     1       9.915  -0.589  21.523  0.00  0.00    -0.318 NA
ATOM      3  H1  UNL     1      10.643   0.128  21.463  0.00  0.00    +0.119 HD
ATOM      4  H2  UNL     1      10.283  -1.268  22.198  0.00  0.00    +0.119 HD
ENDBRANCH   1   2
BRANCH   1   5
ATOM      5  C   UNL     1       8.653   1.503  21.667  0.00  0.00    +0.322 C 
ATOM      6  OXT UNL     1       7.636   2.150  21.479  0.00  0.00    -0.249 OA
BRANCH   5   7
ATOM      7  O   UNL     1       9.904   2.012  21.529  0.00  0.00    -0.480 OA
ATOM      8  H   UNL     1      10.332   1.491  20.804  0.00  0.00    +0.295 HD
ENDBRANCH   5   7
ENDBRANCH   1   5
BRANCH   1   9
ATOM      9  C   UNL     1       8.786  -0.052  23.651  0.00  0.00    +0.045 C 
BRANCH   9  10
ATOM     10  C   UNL     1      10.189  -0.422  24.142  0.00  0.00    +0.080 C 
BRANCH  10  11
ATOM     11  N   UNL     1      11.003   0.781  24.274  0.00  0.00    -0.330 NA
ATOM     12  H   UNL     1      10.814   1.408  23.492  0.00  0.00    +0.118 HD
ATOM     13  H   UNL     1      10.705   1.291  25.108  0.00  0.00    +0.118 HD
ENDBRANCH  10  11
ENDBRANCH   9  10
ENDBRANCH   1   9
TORSDOF 6
ENDMDL
MODEL 9
REMARK VINA RESULT:      -3.1      7.443      8.312
REMARK  Name = 
REMARK  6 active torsions:
REMARK  status: ('A' for Active; 'I' for Inactive)
REMARK    1  A    between atoms: N_1  and  C_2
REMARK    2  A    between atoms: C_2  and  C_3
REMARK    3  A    between atoms: C_3  and  CA_4
REMARK    4  A    between atoms: CA_4  and  N_6
REMARK    5  A    between atoms: CA_4  and  C_7
REMARK    6  A    between atoms: C_7  and  O_8
REMARK                            x       y       z     vdW  Elec       q    Type
REMARK                         _______ _______ _______ _____ _____    ______ ____
ROOT
ATOM      1  CA  UNL     1      10.554   2.768  23.309  0.00  0.00    +0.162 C 
ENDROOT
BRANCH   1   2
ATOM      2  N   UNL     1      10.242   2.432  21.886  0.00  0.00    -0.318 NA
ATOM      3  H1  UNL     1      11.050   2.696  21.314  0.00  0.00    +0.119 HD
ATOM      4  H2  UNL     1      10.200   1.410  21.808  0.00  0.00    +0.119 HD
ENDBRANCH   1   2
BRANCH   1   5
ATOM      5  C   UNL     1      10.361   1.492  24.143  0.00  0.00    +0.322 C 
ATOM      6  OXT UNL     1      10.992   0.458  24.001  0.00  0.00    -0.249 OA
BRANCH   5   7
ATOM      7  O   UNL     1       9.410   1.669  25.097  0.00  0.00    -0.480 OA
ATOM      8  H   UNL     1       9.553   0.947  25.759  0.00  0.00    +0.295 HD
ENDBRANCH   5   7
ENDBRANCH   1   5
BRANCH   1   9
ATOM      9  C   UNL     1       9.606   3.875  23.785  0.00  0.00    +0.045 C 
BRANCH   9  10
ATOM     10  C   UNL     1      10.270   5.255  23.808  0.00  0.00    +0.080 C 
BRANCH  10  11
ATOM     11  N   UNL     1      11.490   5.233  23.007  0.00  0.00    -0.330 NA
ATOM     12  H   UNL     1      12.171   4.610  23.441  0.00  0.00    +0.118 HD
ATOM     13  H   UNL     1      11.280   4.816  22.099  0.00  0.00    +0.118 HD
ENDBRANCH  10  11
ENDBRANCH   9  10
ENDBRANCH   1   9
TORSDOF 6
ENDMDL
