MODEL 1
REMARK VINA RESULT:      -7.4      0.000      0.000
REMARK  Name = 
REMARK  6 active torsions:
REMARK  status: ('A' for Active; 'I' for Inactive)
REMARK    1  A    between atoms: C_1  and  O_2
REMARK    2  A    between atoms: O_2  and  C_3
REMARK    3  A    between atoms: C_4  and  O_5
REMARK    4  A    between atoms: C_7  and  C_10
REMARK    5  A    between atoms: C_16  and  O_17
REMARK    6  A    between atoms: C_19  and  O_20
REMARK                            x       y       z     vdW  Elec       q    Type
REMARK                         _______ _______ _______ _____ _____    ______ ____
ROOT
ATOM      1  C   UNL     1       8.173  -2.490  23.110  0.00  0.00    +0.211 C 
ATOM      2  O   UNL     1       7.767  -2.949  24.414  0.00  0.00    -0.483 OA
ATOM      3  C   UNL     1       6.923  -4.026  24.395  0.00  0.00    +0.139 A 
ATOM      4  C   UNL     1       6.177  -4.410  23.280  0.00  0.00    +0.101 A 
ATOM      5  C   UNL     1       5.334  -5.524  23.347  0.00  0.00    +0.134 A 
ATOM      6  C   UNL     1       5.213  -6.243  24.532  0.00  0.00    +0.091 A 
ATOM      7  C   UNL     1       5.938  -5.836  25.648  0.00  0.00    +0.124 A 
ATOM      8  C   UNL     1       6.247  -3.570  22.074  0.00  0.00    +0.174 C 
ATOM      9  O   UNL     1       5.664  -3.916  21.049  0.00  0.00    -0.292 OA
ATOM     10  C   UNL     1       6.794  -4.738  25.588  0.00  0.00    +0.092 A 
ATOM     11  C   UNL     1       6.968  -2.265  22.208  0.00  0.00    +0.129 C 
ENDROOT
BRANCH   1  15
ATOM     12  C   UNL     1      10.231   1.304  23.573  0.00  0.00    +0.161 A 
ATOM     13  C   UNL     1      10.149   0.419  24.644  0.00  0.00    +0.050 A 
ATOM     14  C   UNL     1       9.503  -0.812  24.489  0.00  0.00    +0.011 A 
ATOM     15  C   UNL     1       8.937  -1.186  23.259  0.00  0.00    -0.003 A 
ATOM     16  C   UNL     1       9.015  -0.287  22.185  0.00  0.00    +0.056 A 
ATOM     17  C   UNL     1       9.641   0.944  22.357  0.00  0.00    +0.159 A 
BRANCH  12  19
ATOM     18  C   UNL     1       9.908   3.613  23.947  0.00  0.00    +0.277 C 
ATOM     19  O   UNL     1      10.800   2.550  23.620  0.00  0.00    -0.491 OA
ENDBRANCH  12  19
BRANCH  17  20
ATOM     20  O   UNL     1       9.657   1.811  21.297  0.00  0.00    -0.503 OA
ATOM     21  H   UNL     1       9.945   2.665  21.673  0.00  0.00    +0.292 HD
ENDBRANCH  17  20
ENDBRANCH   1  15
BRANCH   7  22
ATOM     22  O   UNL     1       5.834  -6.494  26.838  0.00  0.00    -0.507 OA
ATOM     23  H   UNL     1       5.234  -5.997  27.419  0.00  0.00    +0.292 HD
ENDBRANCH   7  22
BRANCH   5  24
ATOM     24  O   UNL     1       4.582  -5.953  22.286  0.00  0.00    -0.506 OA
ATOM     25  H   UNL     1       5.183  -6.088  21.518  0.00  0.00    +0.292 HD
ENDBRANCH   5  24
TORSDOF 5
ENDMDL
MODEL 2
REMARK VINA RESULT:      -7.4      1.878      3.471
REMARK  Name = 
REMARK  6 active torsions:
REMARK  status: ('A' for Active; 'I' for Inactive)
REMARK    1  A    between atoms: C_1  and  O_2
REMARK    2  A    between atoms: O_2  and  C_3
REMARK    3  A    between atoms: C_4  and  O_5
REMARK    4  A    between atoms: C_7  and  C_10
REMARK    5  A    between atoms: C_16  and  O_17
REMARK    6  A    between atoms: C_19  and  O_20
REMARK                            x       y       z     vdW  Elec       q    Type
REMARK                         _______ _______ _______ _____ _____    ______ ____
ROOT
ATOM      1  C   UNL     1       7.366  -3.323  25.812  0.00  0.00    +0.211 C 
ATOM      2  O   UNL     1       6.749  -3.939  24.666  0.00  0.00    -0.483 OA
ATOM      3  C   UNL     1       5.923  -4.989  24.968  0.00  0.00    +0.139 A 
ATOM      4  C   UNL     1       5.966  -5.690  26.173  0.00  0.00    +0.101 A 
ATOM      5  C   UNL     1       5.086  -6.754  26.400  0.00  0.00    +0.134 A 
ATOM      6  C   UNL     1       4.180  -7.138  25.416  0.00  0.00    +0.091 A 
ATOM      7  C   UNL     1       4.165  -6.453  24.205  0.00  0.00    +0.124 A 
ATOM      8  C   UNL     1       7.002  -5.328  27.153  0.00  0.00    +0.174 C 
ATOM      9  O   UNL     1       7.023  -5.871  28.254  0.00  0.00    -0.292 OA
ATOM     10  C   UNL     1       5.024  -5.380  23.975  0.00  0.00    +0.092 A 
ATOM     11  C   UNL     1       8.047  -4.360  26.693  0.00  0.00    +0.129 C 
ENDROOT
BRANCH   1  15
ATOM     12  C   UNL     1      10.211  -0.377  24.371  0.00  0.00    +0.161 A 
ATOM     13  C   UNL     1       9.529  -0.163  25.566  0.00  0.00    +0.050 A 
ATOM     14  C   UNL     1       8.627  -1.122  26.040  0.00  0.00    +0.011 A 
ATOM     15  C   UNL     1       8.398  -2.315  25.336  0.00  0.00    -0.003 A 
ATOM     16  C   UNL     1       9.081  -2.521  24.128  0.00  0.00    +0.056 A 
ATOM     17  C   UNL     1       9.959  -1.550  23.655  0.00  0.00    +0.159 A 
BRANCH  12  19
ATOM     18  C   UNL     1      10.623   1.855  23.719  0.00  0.00    +0.277 C 
ATOM     19  O   UNL     1      11.082   0.508  23.790  0.00  0.00    -0.491 OA
ENDBRANCH  12  19
BRANCH  17  20
ATOM     20  O   UNL     1      10.573  -1.770  22.450  0.00  0.00    -0.503 OA
ATOM     21  H   UNL     1      10.935  -2.675  22.512  0.00  0.00    +0.292 HD
ENDBRANCH  17  20
ENDBRANCH   1  15
BRANCH   7  22
ATOM     22  O   UNL     1       3.312  -6.808  23.201  0.00  0.00    -0.507 OA
ATOM     23  H   UNL     1       3.754  -6.659  22.348  0.00  0.00    +0.292 HD
ENDBRANCH   7  22
BRANCH   5  24
ATOM     24  O   UNL     1       5.075  -7.476  27.563  0.00  0.00    -0.506 OA
ATOM     25  H   UNL     1       4.809  -6.874  28.295  0.00  0.00    +0.292 HD
ENDBRANCH   5  24
TORSDOF 5
ENDMDL
MODEL 3
REMARK VINA RESULT:      -7.2      1.357      1.943
REMARK  Name = 
REMARK  6 active torsions:
REMARK  status: ('A' for Active; 'I' for Inactive)
REMARK    1  A    between atoms: C_1  and  O_2
REMARK    2  A    between atoms: O_2  and  C_3
REMARK    3  A    between atoms: C_4  and  O_5
REMARK    4  A    between atoms: C_7  and  C_10
REMARK    5  A    between atoms: C_16  and  O_17
REMARK    6  A    between atoms: C_19  and  O_20
REMARK                            x       y       z     vdW  Elec       q    Type
REMARK                         _______ _______ _______ _____ _____    ______ ____
ROOT
ATOM      1  C   UNL     1       7.510  -4.172  23.760  0.00  0.00    +0.211 C 
ATOM      2  O   UNL     1       7.053  -4.327  25.117  0.00  0.00    -0.483 OA
ATOM      3  C   UNL     1       6.121  -5.316  25.287  0.00  0.00    +0.139 A 
ATOM      4  C   UNL     1       5.358  -5.852  24.250  0.00  0.00    +0.101 A 
ATOM      5  C   UNL     1       4.424  -6.860  24.512  0.00  0.00    +0.134 A 
ATOM      6  C   UNL     1       4.229  -7.316  25.812  0.00  0.00    +0.091 A 
ATOM      7  C   UNL     1       4.973  -6.754  26.846  0.00  0.00    +0.124 A 
ATOM      8  C   UNL     1       5.512  -5.278  22.904  0.00  0.00    +0.174 C 
ATOM      9  O   UNL     1       4.914  -5.774  21.952  0.00  0.00    -0.292 OA
ATOM     10  C   UNL     1       5.919  -5.762  26.594  0.00  0.00    +0.092 A 
ATOM     11  C   UNL     1       6.339  -4.035  22.798  0.00  0.00    +0.129 C 
ENDROOT
BRANCH   1  15
ATOM     12  C   UNL     1       9.873  -0.540  23.498  0.00  0.00    +0.161 A 
ATOM     13  C   UNL     1       9.554  -1.077  24.742  0.00  0.00    +0.050 A 
ATOM     14  C   UNL     1       8.810  -2.258  24.825  0.00  0.00    +0.011 A 
ATOM     15  C   UNL     1       8.380  -2.930  23.669  0.00  0.00    -0.003 A 
ATOM     16  C   UNL     1       8.696  -2.379  22.418  0.00  0.00    +0.056 A 
ATOM     17  C   UNL     1       9.419  -1.191  22.347  0.00  0.00    +0.159 A 
BRANCH  12  19
ATOM     18  C   UNL     1      10.197   1.704  24.161  0.00  0.00    +0.277 C 
ATOM     19  O   UNL     1      10.558   0.631  23.295  0.00  0.00    -0.491 OA
ENDBRANCH  12  19
BRANCH  17  20
ATOM     20  O   UNL     1       9.670  -0.665  21.109  0.00  0.00    -0.503 OA
ATOM     21  H   UNL     1      10.012   0.234  21.281  0.00  0.00    +0.292 HD
ENDBRANCH  17  20
ENDBRANCH   1  15
BRANCH   7  22
ATOM     22  O   UNL     1       4.801  -7.151  28.139  0.00  0.00    -0.507 OA
ATOM     23  H   UNL     1       5.574  -6.871  28.658  0.00  0.00    +0.292 HD
ENDBRANCH   7  22
BRANCH   5  24
ATOM     24  O   UNL     1       3.650  -7.430  23.537  0.00  0.00    -0.506 OA
ATOM     25  H   UNL     1       2.730  -7.503  23.879  0.00  0.00    +0.292 HD
ENDBRANCH   5  24
TORSDOF 5
ENDMDL
MODEL 4
REMARK VINA RESULT:      -7.0      1.142      2.650
REMARK  Name = 
REMARK  6 active torsions:
REMARK  status: ('A' for Active; 'I' for Inactive)
REMARK    1  A    between atoms: C_1  and  O_2
REMARK    2  A    between atoms: O_2  and  C_3
REMARK    3  A    between atoms: C_4  and  O_5
REMARK    4  A    between atoms: C_7  and  C_10
REMARK    5  A    between atoms: C_16  and  O_17
REMARK    6  A    between atoms: C_19  and  O_20
REMARK                            x       y       z     vdW  Elec       q    Type
REMARK                         _______ _______ _______ _____ _____    ______ ____
ROOT
ATOM      1  C   UNL     1       7.761  -1.976  24.648  0.00  0.00    +0.211 C 
ATOM      2  O   UNL     1       7.182  -2.713  23.554  0.00  0.00    -0.483 OA
ATOM      3  C   UNL     1       6.526  -3.854  23.929  0.00  0.00    +0.139 A 
ATOM      4  C   UNL     1       6.722  -4.498  25.151  0.00  0.00    +0.101 A 
ATOM      5  C   UNL     1       6.011  -5.664  25.454  0.00  0.00    +0.134 A 
ATOM      6  C   UNL     1       5.122  -6.205  24.531  0.00  0.00    +0.091 A 
ATOM      7  C   UNL     1       4.955  -5.573  23.302  0.00  0.00    +0.124 A 
ATOM      8  C   UNL     1       7.743  -3.961  26.065  0.00  0.00    +0.174 C 
ATOM      9  O   UNL     1       7.891  -4.455  27.179  0.00  0.00    -0.292 OA
ATOM     10  C   UNL     1       5.645  -4.402  22.996  0.00  0.00    +0.092 A 
ATOM     11  C   UNL     1       8.621  -2.877  25.522  0.00  0.00    +0.129 C 
ENDROOT
BRANCH   1  15
ATOM     12  C   UNL     1      10.117   1.328  23.105  0.00  0.00    +0.161 A 
ATOM     13  C   UNL     1      10.392   0.802  24.364  0.00  0.00    +0.050 A 
ATOM     14  C   UNL     1       9.645  -0.275  24.853  0.00  0.00    +0.011 A 
ATOM     15  C   UNL     1       8.620  -0.854  24.089  0.00  0.00    -0.003 A 
ATOM     16  C   UNL     1       8.341  -0.315  22.824  0.00  0.00    +0.056 A 
ATOM     17  C   UNL     1       9.075   0.771  22.357  0.00  0.00    +0.159 A 
BRANCH  12  19
ATOM     18  C   UNL     1      10.940   3.520  23.411  0.00  0.00    +0.277 C 
ATOM     19  O   UNL     1      10.752   2.405  22.542  0.00  0.00    -0.491 OA
ENDBRANCH  12  19
BRANCH  17  20
ATOM     20  O   UNL     1       8.743   1.295  21.136  0.00  0.00    -0.503 OA
ATOM     21  H   UNL     1       9.543   1.182  20.587  0.00  0.00    +0.292 HD
ENDBRANCH  17  20
ENDBRANCH   1  15
BRANCH   7  22
ATOM     22  O   UNL     1       4.113  -6.079  22.355  0.00  0.00    -0.507 OA
ATOM     23  H   UNL     1       3.854  -5.361  21.752  0.00  0.00    +0.292 HD
ENDBRANCH   7  22
BRANCH   5  24
ATOM     24  O   UNL     1       6.155  -6.338  26.638  0.00  0.00    -0.506 OA
ATOM     25  H   UNL     1       6.816  -7.056  26.504  0.00  0.00    +0.292 HD
ENDBRANCH   5  24
TORSDOF 5
ENDMDL
MODEL 5
REMARK VINA RESULT:      -7.0      1.926      7.885
REMARK  Name = 
REMARK  6 active torsions:
REMARK  status: ('A' for Active; 'I' for Inactive)
REMARK    1  A    between atoms: C_1  and  O_2
REMARK    2  A    between atoms: O_2  and  C_3
REMARK    3  A    between atoms: C_4  and  O_5
REMARK    4  A    between atoms: C_7  and  C_10
REMARK    5  A    between atoms: C_16  and  O_17
REMARK    6  A    between atoms: C_19  and  O_20
REMARK                            x       y       z     vdW  Elec       q    Type
REMARK                         _______ _______ _______ _____ _____    ______ ____
ROOT
ATOM      1  C   UNL     1       7.504  -4.135  24.999  0.00  0.00    +0.211 C 
ATOM      2  O   UNL     1       7.523  -3.502  23.705  0.00  0.00    -0.483 OA
ATOM      3  C   UNL     1       8.333  -2.401  23.629  0.00  0.00    +0.139 A 
ATOM      4  C   UNL     1       8.777  -1.683  24.741  0.00  0.00    +0.101 A 
ATOM      5  C   UNL     1       9.601  -0.565  24.574  0.00  0.00    +0.134 A 
ATOM      6  C   UNL     1       9.964  -0.145  23.298  0.00  0.00    +0.091 A 
ATOM      7  C   UNL     1       9.493  -0.848  22.193  0.00  0.00    +0.124 A 
ATOM      8  C   UNL     1       8.293  -2.090  26.069  0.00  0.00    +0.174 C 
ATOM      9  O   UNL     1       8.720  -1.531  27.077  0.00  0.00    -0.292 OA
ATOM     10  C   UNL     1       8.685  -1.973  22.348  0.00  0.00    +0.092 A 
ATOM     11  C   UNL     1       7.212  -3.124  26.099  0.00  0.00    +0.129 C 
ENDROOT
BRANCH   1  15
ATOM     12  C   UNL     1       4.336  -7.102  25.054  0.00  0.00    +0.161 A 
ATOM     13  C   UNL     1       4.716  -6.508  23.853  0.00  0.00    +0.050 A 
ATOM     14  C   UNL     1       5.750  -5.566  23.833  0.00  0.00    +0.011 A 
ATOM     15  C   UNL     1       6.430  -5.209  25.008  0.00  0.00    -0.003 A 
ATOM     16  C   UNL     1       6.038  -5.804  26.217  0.00  0.00    +0.056 A 
ATOM     17  C   UNL     1       4.992  -6.723  26.228  0.00  0.00    +0.159 A 
BRANCH  12  19
ATOM     18  C   UNL     1       2.325  -7.973  24.172  0.00  0.00    +0.277 C 
ATOM     19  O   UNL     1       3.312  -8.001  25.201  0.00  0.00    -0.491 OA
ENDBRANCH  12  19
BRANCH  17  20
ATOM     20  O   UNL     1       4.611  -7.248  27.434  0.00  0.00    -0.503 OA
ATOM     21  H   UNL     1       4.809  -8.202  27.369  0.00  0.00    +0.292 HD
ENDBRANCH  17  20
ENDBRANCH   1  15
BRANCH   7  22
ATOM     22  O   UNL     1       9.801  -0.460  20.923  0.00  0.00    -0.507 OA
ATOM     23  H   UNL     1      10.477  -1.063  20.567  0.00  0.00    +0.292 HD
ENDBRANCH   7  22
BRANCH   5  24
ATOM     24  O   UNL     1      10.073   0.175  25.624  0.00  0.00    -0.506 OA
ATOM     25  H   UNL     1      10.903   0.620  25.337  0.00  0.00    +0.292 HD
ENDBRANCH   5  24
TORSDOF 5
ENDMDL
MODEL 6
REMARK VINA RESULT:      -6.9      2.329      8.553
REMARK  Name = 
REMARK  6 active torsions:
REMARK  status: ('A' for Active; 'I' for Inactive)
REMARK    1  A    between atoms: C_1  and  O_2
REMARK    2  A    between atoms: O_2  and  C_3
REMARK    3  A    between atoms: C_4  and  O_5
REMARK    4  A    between atoms: C_7  and  C_10
REMARK    5  A    between atoms: C_16  and  O_17
REMARK    6  A    between atoms: C_19  and  O_20
REMARK                            x       y       z     vdW  Elec       q    Type
REMARK                         _______ _______ _______ _____ _____    ______ ____
ROOT
ATOM      1  C   UNL     1       9.232   1.698  24.098  0.00  0.00    +0.211 C 
ATOM      2  O   UNL     1      10.512   2.001  23.513  0.00  0.00    -0.483 OA
ATOM      3  C   UNL     1      10.854   3.326  23.559  0.00  0.00    +0.139 A 
ATOM      4  C   UNL     1       9.936   4.359  23.751  0.00  0.00    +0.101 A 
ATOM      5  C   UNL     1      10.370   5.689  23.782  0.00  0.00    +0.134 A 
ATOM      6  C   UNL     1      11.715   5.993  23.596  0.00  0.00    +0.091 A 
ATOM      7  C   UNL     1      12.619   4.959  23.375  0.00  0.00    +0.124 A 
ATOM      8  C   UNL     1       8.509   4.014  23.843  0.00  0.00    +0.174 C 
ATOM      9  O   UNL     1       7.680   4.887  24.087  0.00  0.00    -0.292 OA
ATOM     10  C   UNL     1      12.201   3.629  23.359  0.00  0.00    +0.092 A 
ATOM     11  C   UNL     1       8.143   2.597  23.530  0.00  0.00    +0.129 C 
ENDROOT
BRANCH   1  15
ATOM     12  C   UNL     1       8.267  -2.422  23.129  0.00  0.00    +0.161 A 
ATOM     13  C   UNL     1       9.567  -2.074  23.486  0.00  0.00    +0.050 A 
ATOM     14  C   UNL     1       9.873  -0.750  23.817  0.00  0.00    +0.011 A 
ATOM     15  C   UNL     1       8.885   0.248  23.809  0.00  0.00    -0.003 A 
ATOM     16  C   UNL     1       7.579  -0.106  23.441  0.00  0.00    +0.056 A 
ATOM     17  C   UNL     1       7.290  -1.422  23.092  0.00  0.00    +0.159 A 
BRANCH  12  19
ATOM     18  C   UNL     1       7.944  -4.676  23.756  0.00  0.00    +0.277 C 
ATOM     19  O   UNL     1       7.861  -3.674  22.745  0.00  0.00    -0.491 OA
ENDBRANCH  12  19
BRANCH  17  20
ATOM     20  O   UNL     1       6.013  -1.717  22.696  0.00  0.00    -0.503 OA
ATOM     21  H   UNL     1       5.592  -2.118  23.481  0.00  0.00    +0.292 HD
ENDBRANCH  17  20
ENDBRANCH   1  15
BRANCH   7  22
ATOM     22  O   UNL     1      13.943   5.209  23.163  0.00  0.00    -0.507 OA
ATOM     23  H   UNL     1      14.100   6.164  23.259  0.00  0.00    +0.292 HD
ENDBRANCH   7  22
BRANCH   5  24
ATOM     24  O   UNL     1       9.520   6.745  23.974  0.00  0.00    -0.506 OA
ATOM     25  H   UNL     1       8.597   6.421  23.860  0.00  0.00    +0.292 HD
ENDBRANCH   5  24
TORSDOF 5
ENDMDL
MODEL 7
REMARK VINA RESULT:      -6.9      2.842      7.448
REMARK  Name = 
REMARK  6 active torsions:
REMARK  status: ('A' for Active; 'I' for Inactive)
REMARK    1  A    between atoms: C_1  and  O_2
REMARK    2  A    between atoms: O_2  and  C_3
REMARK    3  A    between atoms: C_4  and  O_5
REMARK    4  A    between atoms: C_7  and  C_10
REMARK    5  A    between atoms: C_16  and  O_17
REMARK    6  A    between atoms: C_19  and  O_20
REMARK                            x       y       z     vdW  Elec       q    Type
REMARK                         _______ _______ _______ _____ _____    ______ ____
ROOT
ATOM      1  C   UNL     1       8.731  -1.183  24.363  0.00  0.00    +0.211 C 
ATOM      2  O   UNL     1       7.541  -0.401  24.145  0.00  0.00    -0.483 OA
ATOM      3  C   UNL     1       7.769   0.828  23.586  0.00  0.00    +0.139 A 
ATOM      4  C   UNL     1       9.008   1.470  23.598  0.00  0.00    +0.101 A 
ATOM      5  C   UNL     1       9.153   2.728  23.006  0.00  0.00    +0.134 A 
ATOM      6  C   UNL     1       8.060   3.362  22.424  0.00  0.00    +0.091 A 
ATOM      7  C   UNL     1       6.821   2.728  22.444  0.00  0.00    +0.124 A 
ATOM      8  C   UNL     1      10.120   0.822  24.310  0.00  0.00    +0.174 C 
ATOM      9  O   UNL     1      11.243   1.318  24.277  0.00  0.00    -0.292 OA
ATOM     10  C   UNL     1       6.668   1.466  23.016  0.00  0.00    +0.092 A 
ATOM     11  C   UNL     1       9.779  -0.385  25.126  0.00  0.00    +0.129 C 
ENDROOT
BRANCH   1  15
ATOM     12  C   UNL     1       7.789  -4.688  26.745  0.00  0.00    +0.161 A 
ATOM     13  C   UNL     1       7.011  -3.538  26.856  0.00  0.00    +0.050 A 
ATOM     14  C   UNL     1       7.303  -2.416  26.074  0.00  0.00    +0.011 A 
ATOM     15  C   UNL     1       8.369  -2.425  25.160  0.00  0.00    -0.003 A 
ATOM     16  C   UNL     1       9.155  -3.582  25.058  0.00  0.00    +0.056 A 
ATOM     17  C   UNL     1       8.869  -4.685  25.857  0.00  0.00    +0.159 A 
BRANCH  12  19
ATOM     18  C   UNL     1       6.406  -5.901  28.226  0.00  0.00    +0.277 C 
ATOM     19  O   UNL     1       7.624  -5.828  27.488  0.00  0.00    -0.491 OA
ENDBRANCH  12  19
BRANCH  17  20
ATOM     20  O   UNL     1       9.686  -5.779  25.759  0.00  0.00    -0.503 OA
ATOM     21  H   UNL     1       9.304  -6.437  26.372  0.00  0.00    +0.292 HD
ENDBRANCH  17  20
ENDBRANCH   1  15
BRANCH   7  22
ATOM     22  O   UNL     1       5.715   3.320  21.908  0.00  0.00    -0.507 OA
ATOM     23  H   UNL     1       5.825   4.285  21.949  0.00  0.00    +0.292 HD
ENDBRANCH   7  22
BRANCH   5  24
ATOM     24  O   UNL     1      10.343   3.405  22.979  0.00  0.00    -0.506 OA
ATOM     25  H   UNL     1      10.159   4.340  22.728  0.00  0.00    +0.292 HD
ENDBRANCH   5  24
TORSDOF 5
ENDMDL
MODEL 8
REMARK VINA RESULT:      -6.9      1.929      2.547
REMARK  Name = 
REMARK  6 active torsions:
REMARK  status: ('A' for Active; 'I' for Inactive)
REMARK    1  A    between atoms: C_1  and  O_2
REMARK    2  A    between atoms: O_2  and  C_3
REMARK    3  A    between atoms: C_4  and  O_5
REMARK    4  A    between atoms: C_7  and  C_10
REMARK    5  A    between atoms: C_16  and  O_17
REMARK    6  A    between atoms: C_19  and  O_20
REMARK                            x       y       z     vdW  Elec       q    Type
REMARK                         _______ _______ _______ _____ _____    ______ ____
ROOT
ATOM      1  C   UNL     1       8.594  -0.844  22.917  0.00  0.00    +0.211 C 
ATOM      2  O   UNL     1       9.169  -1.641  23.970  0.00  0.00    -0.483 OA
ATOM      3  C   UNL     1       8.705  -2.928  24.020  0.00  0.00    +0.139 A 
ATOM      4  C   UNL     1       7.515  -3.349  23.425  0.00  0.00    +0.101 A 
ATOM      5  C   UNL     1       7.112  -4.685  23.528  0.00  0.00    +0.134 A 
ATOM      6  C   UNL     1       7.880  -5.597  24.244  0.00  0.00    +0.091 A 
ATOM      7  C   UNL     1       9.050  -5.162  24.859  0.00  0.00    +0.124 A 
ATOM      8  C   UNL     1       6.674  -2.341  22.762  0.00  0.00    +0.174 C 
ATOM      9  O   UNL     1       5.658  -2.686  22.163  0.00  0.00    -0.292 OA
ATOM     10  C   UNL     1       9.471  -3.838  24.750  0.00  0.00    +0.092 A 
ATOM     11  C   UNL     1       7.074  -0.911  22.947  0.00  0.00    +0.129 C 
ENDROOT
BRANCH   1  15
ATOM     12  C   UNL     1       9.964   3.233  23.501  0.00  0.00    +0.161 A 
ATOM     13  C   UNL     1      10.443   2.482  22.431  0.00  0.00    +0.050 A 
ATOM     14  C   UNL     1       9.986   1.175  22.232  0.00  0.00    +0.011 A 
ATOM     15  C   UNL     1       9.036   0.599  23.090  0.00  0.00    -0.003 A 
ATOM     16  C   UNL     1       8.563   1.357  24.172  0.00  0.00    +0.056 A 
ATOM     17  C   UNL     1       9.041   2.649  24.373  0.00  0.00    +0.159 A 
BRANCH  12  19
ATOM     18  C   UNL     1      11.704   4.829  23.434  0.00  0.00    +0.277 C 
ATOM     19  O   UNL     1      10.370   4.503  23.819  0.00  0.00    -0.491 OA
ENDBRANCH  12  19
BRANCH  17  20
ATOM     20  O   UNL     1       8.587   3.339  25.465  0.00  0.00    -0.503 OA
ATOM     21  H   UNL     1       7.617   3.222  25.453  0.00  0.00    +0.292 HD
ENDBRANCH  17  20
ENDBRANCH   1  15
BRANCH   7  22
ATOM     22  O   UNL     1       9.823  -6.014  25.593  0.00  0.00    -0.507 OA
ATOM     23  H   UNL     1      10.081  -5.569  26.419  0.00  0.00    +0.292 HD
ENDBRANCH   7  22
BRANCH   5  24
ATOM     24  O   UNL     1       5.960  -5.160  22.961  0.00  0.00    -0.506 OA
ATOM     25  H   UNL     1       5.526  -4.419  22.479  0.00  0.00    +0.292 HD
ENDBRANCH   5  24
TORSDOF 5
ENDMDL
MODEL 9
REMARK VINA RESULT:      -6.7      2.139      3.434
REMARK  Name = 
REMARK  6 active torsions:
REMARK  status: ('A' for Active; 'I' for Inactive)
REMARK    1  A    between atoms: C_1  and  O_2
REMARK    2  A    between atoms: O_2  and  C_3
REMARK    3  A    between atoms: C_4  and  O_5
REMARK    4  A    between atoms: C_7  and  C_10
REMARK    5  A    between atoms: C_16  and  O_17
REMARK    6  A    between atoms: C_19  and  O_20
REMARK                            x       y       z     vdW  Elec       q    Type
REMARK                         _______ _______ _______ _____ _____    ______ ____
ROOT
ATOM      1  C   UNL     1       8.872   0.113  24.655  0.00  0.00    +0.211 C 
ATOM      2  O   UNL     1       7.486  -0.152  24.367  0.00  0.00    -0.483 OA
ATOM      3  C   UNL     1       7.170  -1.482  24.297  0.00  0.00    +0.139 A 
ATOM      4  C   UNL     1       8.108  -2.495  24.099  0.00  0.00    +0.101 A 
ATOM      5  C   UNL     1       7.698  -3.831  24.036  0.00  0.00    +0.134 A 
ATOM      6  C   UNL     1       6.350  -4.159  24.146  0.00  0.00    +0.091 A 
ATOM      7  C   UNL     1       5.417  -3.139  24.313  0.00  0.00    +0.124 A 
ATOM      8  C   UNL     1       9.512  -2.111  23.884  0.00  0.00    +0.174 C 
ATOM      9  O   UNL     1      10.377  -2.977  23.782  0.00  0.00    -0.292 OA
ATOM     10  C   UNL     1       5.816  -1.806  24.394  0.00  0.00    +0.092 A 
ATOM     11  C   UNL     1       9.785  -0.651  23.707  0.00  0.00    +0.129 C 
ENDROOT
BRANCH   1  15
ATOM     12  C   UNL     1       9.537   4.369  24.116  0.00  0.00    +0.161 A 
ATOM     13  C   UNL     1       8.459   3.921  24.873  0.00  0.00    +0.050 A 
ATOM     14  C   UNL     1       8.256   2.550  25.063  0.00  0.00    +0.011 A 
ATOM     15  C   UNL     1       9.132   1.603  24.510  0.00  0.00    -0.003 A 
ATOM     16  C   UNL     1      10.213   2.058  23.740  0.00  0.00    +0.056 A 
ATOM     17  C   UNL     1      10.392   3.424  23.540  0.00  0.00    +0.159 A 
BRANCH  12  19
ATOM     18  C   UNL     1      10.215   6.476  24.940  0.00  0.00    +0.277 C 
ATOM     19  O   UNL     1       9.810   5.681  23.828  0.00  0.00    -0.491 OA
ENDBRANCH  12  19
BRANCH  17  20
ATOM     20  O   UNL     1      11.433   3.826  22.747  0.00  0.00    -0.503 OA
ATOM     21  H   UNL     1      12.154   4.046  23.368  0.00  0.00    +0.292 HD
ENDBRANCH  17  20
ENDBRANCH   1  15
BRANCH   7  22
ATOM     22  O   UNL     1       4.084  -3.408  24.400  0.00  0.00    -0.507 OA
ATOM     23  H   UNL     1       3.968  -4.342  24.645  0.00  0.00    +0.292 HD
ENDBRANCH   7  22
BRANCH   5  24
ATOM     24  O   UNL     1       8.571  -4.870  23.851  0.00  0.00    -0.506 OA
ATOM     25  H   UNL     1       8.695  -4.997  22.882  0.00  0.00    +0.292 HD
ENDBRANCH   5  24
TORSDOF 5
ENDMDL
