MODEL 1
REMARK VINA RESULT:      -6.3      0.000      0.000
REMARK  Name = 
REMARK  27 active torsions:
REMARK  status: ('A' for Active; 'I' for Inactive)
REMARK    1  A    between atoms: C_1  and  C_2
REMARK    2  A    between atoms: C_6  and  C_8
REMARK    3  A    between atoms: N_14  and  C_15
REMARK    4  A    between atoms: C_18  and  C_19
REMARK    5  A    between atoms: C_19  and  C_20
REMARK    6  A    between atoms: C_20  and  O_22
REMARK    7  A    between atoms: C_20  and  C_23
REMARK    8  A    between atoms: C_23  and  O_25
REMARK    9  A    between atoms: C_23  and  C_26
REMARK   10  A    between atoms: C_26  and  O_28
REMARK   11  A    between atoms: C_26  and  C_29
REMARK   12  A    between atoms: C_29  and  O_30
REMARK   13  A    between atoms: O_30  and  C_31
REMARK   14  A    between atoms: C_34  and  C_36
REMARK   15  A    between atoms: C_36  and  O_37
REMARK   16  A    between atoms: O_37  and  P_38
REMARK   17  A    between atoms: P_38  and  O_39
REMARK   18  A    between atoms: P_38  and  O_41
REMARK   19  A    between atoms: O_41  and  C_42
REMARK   20  A    between atoms: C_42  and  C_44
REMARK   21  A    between atoms: C_42  and  C_49
REMARK   22  A    between atoms: C_44  and  C_45
REMARK   23  A    between atoms: C_45  and  C_46
REMARK   24  A    between atoms: C_46  and  O_47
REMARK   25  A    between atoms: C_49  and  O_50
REMARK   26  A    between atoms: C_52  and  O_54
REMARK   27  A    between atoms: C_55  and  O_57
REMARK                            x       y       z     vdW  Elec       q    Type
REMARK                         _______ _______ _______ _____ _____    ______ ____
ROOT
ATOM      1  C   UNL     1       8.751   1.542  23.224  0.00  0.00    +0.174 C 
ENDROOT
BRANCH   1   2
ATOM      2  O   UNL     1       8.822   2.370  24.391  0.00  0.00    -0.387 OA
ATOM      3  H   UNL     1       8.051   2.180  24.950  0.00  0.00    +0.210 HD
ENDBRANCH   1   2
BRANCH   1   4
ATOM      4  C   UNL     1       7.908   2.239  22.133  0.00  0.00    +0.171 C 
BRANCH   4   5
ATOM      5  O   UNL     1       7.999   3.671  22.244  0.00  0.00    -0.387 OA
ATOM      6  H   UNL     1       8.015   3.853  23.203  0.00  0.00    +0.210 HD
ENDBRANCH   4   5
BRANCH   4   7
ATOM      7  C   UNL     1       6.432   1.841  22.197  0.00  0.00    +0.197 C 
BRANCH   7   8
ATOM      8  O   UNL     1       6.101   1.670  23.584  0.00  0.00    -0.346 OA
BRANCH   8   9
ATOM      9  C   UNL     1       5.238   2.689  24.068  0.00  0.00    +0.282 C 
ATOM     10  C   UNL     1       4.381   3.322  22.963  0.00  0.00    +0.201 C 
ATOM     11  C   UNL     1       4.353   4.809  23.312  0.00  0.00    +0.179 C 
ATOM     12  C   UNL     1       5.194   4.936  24.585  0.00  0.00    +0.179 C 
ATOM     13  O   UNL     1       6.028   3.762  24.598  0.00  0.00    -0.341 OA
BRANCH  11  14
ATOM     14  O   UNL     1       4.950   5.543  22.233  0.00  0.00    -0.386 OA
ATOM     15  H   UNL     1       4.241   5.794  21.609  0.00  0.00    +0.210 HD
ENDBRANCH  11  14
BRANCH  10  16
ATOM     16  O   UNL     1       3.060   2.774  22.944  0.00  0.00    -0.384 OA
ATOM     17  H   UNL     1       2.497   3.383  23.456  0.00  0.00    +0.210 HD
ENDBRANCH  10  16
BRANCH  12  18
ATOM     18  C   UNL     1       4.344   4.989  25.870  0.00  0.00    +0.206 C 
BRANCH  18  19
ATOM     19  O   UNL     1       5.134   4.582  26.983  0.00  0.00    -0.284 OA
BRANCH  19  20
ATOM     20  P   UNL     1       4.519   3.517  28.012  0.00  0.00    +0.476 P 
ATOM     21  O   UNL     1       3.118   3.776  28.446  0.00  0.00    -0.227 OA
BRANCH  20  22
ATOM     22  O   UNL     1       5.559   3.591  29.227  0.00  0.00    -0.302 OA
ATOM     23  H   UNL     1       6.436   3.878  28.913  0.00  0.00    +0.222 HD
ENDBRANCH  20  22
BRANCH  20  24
ATOM     24  O   UNL     1       4.779   2.065  27.368  0.00  0.00    -0.272 OA
BRANCH  24  25
ATOM     25  C   UNL     1       5.809   1.237  27.924  0.00  0.00    +0.239 C 
BRANCH  25  26
ATOM     26  C   UNL     1       7.054   1.363  27.059  0.00  0.00    +0.335 C 
ATOM     27  O   UNL     1       7.561   0.431  26.438  0.00  0.00    -0.248 OA
BRANCH  26  28
ATOM     28  O   UNL     1       7.500   2.638  26.947  0.00  0.00    -0.479 OA
ATOM     29  H   UNL     1       6.737   3.259  26.936  0.00  0.00    +0.295 HD
ENDBRANCH  26  28
ENDBRANCH  25  26
BRANCH  25  30
ATOM     30  C   UNL     1       5.373  -0.237  27.993  0.00  0.00    +0.055 C 
BRANCH  30  31
ATOM     31  C   UNL     1       4.211  -0.562  27.050  0.00  0.00    +0.123 C 
BRANCH  31  32
ATOM     32  C   UNL     1       4.614  -1.493  25.932  0.00  0.00    +0.305 C 
ATOM     33  O   UNL     1       4.368  -2.688  25.886  0.00  0.00    -0.251 OA
BRANCH  32  34
ATOM     34  O   UNL     1       5.293  -0.848  24.954  0.00  0.00    -0.481 OA
ATOM     35  H   UNL     1       4.897   0.004  24.693  0.00  0.00    +0.295 HD
ENDBRANCH  32  34
ENDBRANCH  31  32
ENDBRANCH  30  31
ENDBRANCH  25  30
ENDBRANCH  24  25
ENDBRANCH  20  24
ENDBRANCH  19  20
ENDBRANCH  18  19
ENDBRANCH  12  18
ENDBRANCH   8   9
ENDBRANCH   7   8
ENDBRANCH   4   7
ENDBRANCH   1   4
BRANCH   1  36
ATOM     36  C   UNL     1      10.148   1.196  22.663  0.00  0.00    +0.150 C 
BRANCH  36  37
ATOM     37  O   UNL     1      10.574   2.269  21.807  0.00  0.00    -0.389 OA
ATOM     38  H   UNL     1      11.432   2.574  22.155  0.00  0.00    +0.210 HD
ENDBRANCH  36  37
BRANCH  36  39
ATOM     39  C   UNL     1      10.160  -0.101  21.838  0.00  0.00    +0.069 C 
BRANCH  39  43
ATOM     40  C   UNL     1       7.842  -3.416  23.475  0.00  0.00    +0.031 A 
ATOM     41  C   UNL     1       9.105  -3.088  23.983  0.00  0.00    +0.023 A 
ATOM     42  C   UNL     1       9.843  -2.001  23.489  0.00  0.00    +0.005 A 
ATOM     43  C   UNL     1       9.333  -1.203  22.463  0.00  0.00    -0.045 A 
ATOM     44  C   UNL     1       8.049  -1.474  21.991  0.00  0.00    +0.005 A 
ATOM     45  C   UNL     1       7.317  -2.544  22.507  0.00  0.00    +0.023 A 
BRANCH  40  48
ATOM     46  C   UNL     1       6.361  -5.856  21.967  0.00  0.00    +0.030 C 
ATOM     47  C   UNL     1       5.930  -5.064  23.203  0.00  0.00    +0.094 C 
ATOM     48  N   UNL     1       7.118  -4.524  23.886  0.00  0.00    -0.309 N 
ATOM     49  C   UNL     1       7.056  -4.792  25.327  0.00  0.00    +0.214 C 
ATOM     50  N   UNL     1       5.941  -5.682  25.510  0.00  0.00    -0.301 N 
ATOM     51  C   UNL     1       5.355  -6.046  26.728  0.00  0.00    +0.137 A 
ATOM     52  C   UNL     1       6.087  -5.858  28.016  0.00  0.00    +0.276 A 
ATOM     53  N   UNL     1       5.447  -6.324  29.123  0.00  0.00    -0.294 N 
ATOM     54  H   UNL     1       5.950  -6.255  29.990  0.00  0.00    +0.172 HD
ATOM     55  C   UNL     1       4.203  -6.860  29.076  0.00  0.00    +0.195 A 
ATOM     56  N   UNL     1       3.518  -6.967  27.984  0.00  0.00    -0.199 NA
ATOM     57  N   UNL     1       3.688  -7.279  30.259  0.00  0.00    -0.329 N 
ATOM     58  H   UNL     1       2.694  -7.469  30.204  0.00  0.00    +0.145 HD
ATOM     59  H   UNL     1       3.958  -6.767  31.085  0.00  0.00    +0.145 HD
ATOM     60  O   UNL     1       7.186  -5.315  28.101  0.00  0.00    -0.266 OA
ATOM     61  C   UNL     1       4.098  -6.565  26.803  0.00  0.00    +0.149 A 
ATOM     62  N   UNL     1       3.351  -6.670  25.617  0.00  0.00    -0.323 N 
ATOM     63  H   UNL     1       2.358  -6.708  25.837  0.00  0.00    +0.148 HD
ATOM     64  C   UNL     1       3.745  -5.868  24.435  0.00  0.00    +0.091 C 
ATOM     65  C   UNL     1       2.956  -6.322  23.215  0.00  0.00    +0.030 C 
ATOM     66  C   UNL     1       5.282  -6.012  24.241  0.00  0.00    +0.115 C 
ENDBRANCH  40  48
ENDBRANCH  39  43
ENDBRANCH  36  39
ENDBRANCH   1  36
TORSDOF 25
ENDMDL
MODEL 2
REMARK VINA RESULT:      -6.1      3.909      9.499
REMARK  Name = 
REMARK  27 active torsions:
REMARK  status: ('A' for Active; 'I' for Inactive)
REMARK    1  A    between atoms: C_1  and  C_2
REMARK    2  A    between atoms: C_6  and  C_8
REMARK    3  A    between atoms: N_14  and  C_15
REMARK    4  A    between atoms: C_18  and  C_19
REMARK    5  A    between atoms: C_19  and  C_20
REMARK    6  A    between atoms: C_20  and  O_22
REMARK    7  A    between atoms: C_20  and  C_23
REMARK    8  A    between atoms: C_23  and  O_25
REMARK    9  A    between atoms: C_23  and  C_26
REMARK   10  A    between atoms: C_26  and  O_28
REMARK   11  A    between atoms: C_26  and  C_29
REMARK   12  A    between atoms: C_29  and  O_30
REMARK   13  A    between atoms: O_30  and  C_31
REMARK   14  A    between atoms: C_34  and  C_36
REMARK   15  A    between atoms: C_36  and  O_37
REMARK   16  A    between atoms: O_37  and  P_38
REMARK   17  A    between atoms: P_38  and  O_39
REMARK   18  A    between atoms: P_38  and  O_41
REMARK   19  A    between atoms: O_41  and  C_42
REMARK   20  A    between atoms: C_42  and  C_44
REMARK   21  A    between atoms: C_42  and  C_49
REMARK   22  A    between atoms: C_44  and  C_45
REMARK   23  A    between atoms: C_45  and  C_46
REMARK   24  A    between atoms: C_46  and  O_47
REMARK   25  A    between atoms: C_49  and  O_50
REMARK   26  A    between atoms: C_52  and  O_54
REMARK   27  A    between atoms: C_55  and  O_57
REMARK                            x       y       z     vdW  Elec       q    Type
REMARK                         _______ _______ _______ _____ _____    ______ ____
ROOT
ATOM      1  C   UNL     1       3.838  -5.941  27.357  0.00  0.00    +0.174 C 
ENDROOT
BRANCH   1   2
ATOM      2  O   UNL     1       3.996  -7.024  28.280  0.00  0.00    -0.387 OA
ATOM      3  H   UNL     1       4.835  -6.903  28.756  0.00  0.00    +0.210 HD
ENDBRANCH   1   2
BRANCH   1   4
ATOM      4  C   UNL     1       3.736  -6.486  25.915  0.00  0.00    +0.171 C 
BRANCH   4   5
ATOM      5  O   UNL     1       3.268  -7.847  25.907  0.00  0.00    -0.387 OA
ATOM      6  H   UNL     1       2.862  -7.973  25.029  0.00  0.00    +0.210 HD
ENDBRANCH   4   5
BRANCH   4   7
ATOM      7  C   UNL     1       5.076  -6.431  25.179  0.00  0.00    +0.197 C 
BRANCH   7   8
ATOM      8  O   UNL     1       6.097  -6.254  26.173  0.00  0.00    -0.346 OA
BRANCH   8   9
ATOM      9  C   UNL     1       6.909  -5.115  25.923  0.00  0.00    +0.282 C 
ATOM     10  C   UNL     1       7.905  -5.329  24.775  0.00  0.00    +0.201 C 
ATOM     11  C   UNL     1       9.180  -4.635  25.247  0.00  0.00    +0.179 C 
ATOM     12  C   UNL     1       8.841  -4.073  26.631  0.00  0.00    +0.179 C 
ATOM     13  O   UNL     1       7.714  -4.849  27.080  0.00  0.00    -0.341 OA
BRANCH  11  14
ATOM     14  O   UNL     1      10.226  -5.614  25.339  0.00  0.00    -0.386 OA
ATOM     15  H   UNL     1      10.284  -6.076  24.480  0.00  0.00    +0.210 HD
ENDBRANCH  11  14
BRANCH  10  16
ATOM     16  O   UNL     1       7.430  -4.755  23.555  0.00  0.00    -0.384 OA
ATOM     17  H   UNL     1       6.952  -3.940  23.795  0.00  0.00    +0.210 HD
ENDBRANCH  10  16
BRANCH  12  18
ATOM     18  C   UNL     1       8.470  -2.577  26.603  0.00  0.00    +0.206 C 
BRANCH  18  19
ATOM     19  O   UNL     1       8.359  -2.138  25.252  0.00  0.00    -0.284 OA
BRANCH  19  20
ATOM     20  P   UNL     1       9.198  -0.851  24.792  0.00  0.00    +0.476 P 
ATOM     21  O   UNL     1      10.614  -1.109  24.409  0.00  0.00    -0.227 OA
BRANCH  20  22
ATOM     22  O   UNL     1       9.075   0.101  26.073  0.00  0.00    -0.302 OA
ATOM     23  H   UNL     1       8.833   1.007  25.808  0.00  0.00    +0.222 HD
ENDBRANCH  20  22
BRANCH  20  24
ATOM     24  O   UNL     1       8.310  -0.110  23.673  0.00  0.00    -0.272 OA
BRANCH  24  25
ATOM     25  C   UNL     1       8.743  -0.155  22.306  0.00  0.00    +0.239 C 
BRANCH  25  26
ATOM     26  C   UNL     1       8.994  -1.605  21.924  0.00  0.00    +0.335 C 
ATOM     27  O   UNL     1       8.122  -2.471  21.884  0.00  0.00    -0.248 OA
BRANCH  26  28
ATOM     28  O   UNL     1      10.269  -1.840  21.524  0.00  0.00    -0.479 OA
ATOM     29  H   UNL     1      10.287  -2.596  20.894  0.00  0.00    +0.295 HD
ENDBRANCH  26  28
ENDBRANCH  25  26
BRANCH  25  30
ATOM     30  C   UNL     1      10.026   0.666  22.093  0.00  0.00    +0.055 C 
BRANCH  30  31
ATOM     31  C   UNL     1       9.778   2.178  22.099  0.00  0.00    +0.123 C 
BRANCH  31  32
ATOM     32  C   UNL     1      10.348   2.855  23.322  0.00  0.00    +0.305 C 
ATOM     33  O   UNL     1      11.307   3.610  23.328  0.00  0.00    -0.251 OA
BRANCH  32  34
ATOM     34  O   UNL     1       9.663   2.534  24.445  0.00  0.00    -0.481 OA
ATOM     35  H   UNL     1      10.005   2.959  25.253  0.00  0.00    +0.295 HD
ENDBRANCH  32  34
ENDBRANCH  31  32
ENDBRANCH  30  31
ENDBRANCH  25  30
ENDBRANCH  24  25
ENDBRANCH  20  24
ENDBRANCH  19  20
ENDBRANCH  18  19
ENDBRANCH  12  18
ENDBRANCH   8   9
ENDBRANCH   7   8
ENDBRANCH   4   7
ENDBRANCH   1   4
BRANCH   1  36
ATOM     36  C   UNL     1       2.600  -5.074  27.676  0.00  0.00    +0.150 C 
BRANCH  36  37
ATOM     37  O   UNL     1       1.457  -5.937  27.791  0.00  0.00    -0.389 OA
ATOM     38  H   UNL     1       1.805  -6.844  27.879  0.00  0.00    +0.210 HD
ENDBRANCH  36  37
BRANCH  36  39
ATOM     39  C   UNL     1       2.299  -4.032  26.586  0.00  0.00    +0.069 C 
BRANCH  39  43
ATOM     40  C   UNL     1       4.927  -0.549  26.516  0.00  0.00    +0.031 A 
ATOM     41  C   UNL     1       4.015  -0.754  27.559  0.00  0.00    +0.023 A 
ATOM     42  C   UNL     1       3.192  -1.890  27.611  0.00  0.00    +0.005 A 
ATOM     43  C   UNL     1       3.258  -2.862  26.611  0.00  0.00    -0.045 A 
ATOM     44  C   UNL     1       4.207  -2.707  25.601  0.00  0.00    +0.005 A 
ATOM     45  C   UNL     1       5.035  -1.585  25.574  0.00  0.00    +0.023 A 
BRANCH  40  48
ATOM     46  C   UNL     1       6.823   1.139  28.509  0.00  0.00    +0.030 C 
ATOM     47  C   UNL     1       5.858   1.630  27.428  0.00  0.00    +0.094 C 
ATOM     48  N   UNL     1       5.702   0.593  26.393  0.00  0.00    -0.309 N 
ATOM     49  C   UNL     1       5.844   1.171  25.052  0.00  0.00    +0.214 C 
ATOM     50  N   UNL     1       6.299   2.520  25.256  0.00  0.00    -0.301 N 
ATOM     51  C   UNL     1       6.371   3.532  24.291  0.00  0.00    +0.137 A 
ATOM     52  C   UNL     1       6.357   3.202  22.835  0.00  0.00    +0.276 A 
ATOM     53  N   UNL     1       6.514   4.263  21.996  0.00  0.00    -0.294 N 
ATOM     54  H   UNL     1       6.562   4.051  21.015  0.00  0.00    +0.172 HD
ATOM     55  C   UNL     1       6.606   5.539  22.442  0.00  0.00    +0.195 A 
ATOM     56  N   UNL     1       6.548   5.859  23.694  0.00  0.00    -0.199 NA
ATOM     57  N   UNL     1       6.756   6.495  21.491  0.00  0.00    -0.329 N 
ATOM     58  H   UNL     1       6.607   7.430  21.854  0.00  0.00    +0.145 HD
ATOM     59  H   UNL     1       6.312   6.330  20.600  0.00  0.00    +0.145 HD
ATOM     60  O   UNL     1       6.207   2.064  22.396  0.00  0.00    -0.266 OA
ATOM     61  C   UNL     1       6.435   4.851  24.624  0.00  0.00    +0.149 A 
ATOM     62  N   UNL     1       6.360   5.197  25.984  0.00  0.00    -0.323 N 
ATOM     63  H   UNL     1       6.052   6.162  26.078  0.00  0.00    +0.148 HD
ATOM     64  C   UNL     1       5.810   4.220  26.955  0.00  0.00    +0.091 C 
ATOM     65  C   UNL     1       6.051   4.711  28.375  0.00  0.00    +0.030 C 
ATOM     66  C   UNL     1       6.469   2.838  26.679  0.00  0.00    +0.115 C 
ENDBRANCH  40  48
ENDBRANCH  39  43
ENDBRANCH  36  39
ENDBRANCH   1  36
TORSDOF 25
ENDMDL
MODEL 3
REMARK VINA RESULT:      -6.0      1.387      3.658
REMARK  Name = 
REMARK  27 active torsions:
REMARK  status: ('A' for Active; 'I' for Inactive)
REMARK    1  A    between atoms: C_1  and  C_2
REMARK    2  A    between atoms: C_6  and  C_8
REMARK    3  A    between atoms: N_14  and  C_15
REMARK    4  A    between atoms: C_18  and  C_19
REMARK    5  A    between atoms: C_19  and  C_20
REMARK    6  A    between atoms: C_20  and  O_22
REMARK    7  A    between atoms: C_20  and  C_23
REMARK    8  A    between atoms: C_23  and  O_25
REMARK    9  A    between atoms: C_23  and  C_26
REMARK   10  A    between atoms: C_26  and  O_28
REMARK   11  A    between atoms: C_26  and  C_29
REMARK   12  A    between atoms: C_29  and  O_30
REMARK   13  A    between atoms: O_30  and  C_31
REMARK   14  A    between atoms: C_34  and  C_36
REMARK   15  A    between atoms: C_36  and  O_37
REMARK   16  A    between atoms: O_37  and  P_38
REMARK   17  A    between atoms: P_38  and  O_39
REMARK   18  A    between atoms: P_38  and  O_41
REMARK   19  A    between atoms: O_41  and  C_42
REMARK   20  A    between atoms: C_42  and  C_44
REMARK   21  A    between atoms: C_42  and  C_49
REMARK   22  A    between atoms: C_44  and  C_45
REMARK   23  A    between atoms: C_45  and  C_46
REMARK   24  A    between atoms: C_46  and  O_47
REMARK   25  A    between atoms: C_49  and  O_50
REMARK   26  A    between atoms: C_52  and  O_54
REMARK   27  A    between atoms: C_55  and  O_57
REMARK                            x       y       z     vdW  Elec       q    Type
REMARK                         _______ _______ _______ _____ _____    ______ ____
ROOT
ATOM      1  C   UNL     1       8.995   1.269  23.561  0.00  0.00    +0.174 C 
ENDROOT
BRANCH   1   2
ATOM      2  O   UNL     1       9.281   1.969  24.777  0.00  0.00    -0.387 OA
ATOM      3  H   UNL     1       8.825   1.517  25.506  0.00  0.00    +0.210 HD
ENDBRANCH   1   2
BRANCH   1   4
ATOM      4  C   UNL     1       7.929   2.036  22.747  0.00  0.00    +0.171 C 
BRANCH   4   5
ATOM      5  O   UNL     1       7.947   3.440  23.063  0.00  0.00    -0.387 OA
ATOM      6  H   UNL     1       8.278   3.492  23.980  0.00  0.00    +0.210 HD
ENDBRANCH   4   5
BRANCH   4   7
ATOM      7  C   UNL     1       6.517   1.502  22.994  0.00  0.00    +0.197 C 
BRANCH   7   8
ATOM      8  O   UNL     1       6.572   0.695  24.181  0.00  0.00    -0.346 OA
BRANCH   8   9
ATOM      9  C   UNL     1       5.930   1.312  25.288  0.00  0.00    +0.282 C 
ATOM     10  C   UNL     1       6.513   0.873  26.638  0.00  0.00    +0.201 C 
ATOM     11  C   UNL     1       5.295   0.738  27.550  0.00  0.00    +0.179 C 
ATOM     12  C   UNL     1       4.096   1.100  26.670  0.00  0.00    +0.179 C 
ATOM     13  O   UNL     1       4.554   0.907  25.319  0.00  0.00    -0.341 OA
BRANCH  11  14
ATOM     14  O   UNL     1       5.206  -0.625  27.994  0.00  0.00    -0.386 OA
ATOM     15  H   UNL     1       4.261  -0.874  28.016  0.00  0.00    +0.210 HD
ENDBRANCH  11  14
BRANCH  10  16
ATOM     16  O   UNL     1       7.434   1.838  27.152  0.00  0.00    -0.384 OA
ATOM     17  H   UNL     1       8.329   1.485  26.991  0.00  0.00    +0.210 HD
ENDBRANCH  10  16
BRANCH  12  18
ATOM     18  C   UNL     1       3.624   2.556  26.860  0.00  0.00    +0.206 C 
BRANCH  18  19
ATOM     19  O   UNL     1       2.590   2.849  25.926  0.00  0.00    -0.284 OA
BRANCH  19  20
ATOM     20  P   UNL     1       2.931   3.790  24.673  0.00  0.00    +0.476 P 
ATOM     21  O   UNL     1       1.901   4.811  24.336  0.00  0.00    -0.227 OA
BRANCH  20  22
ATOM     22  O   UNL     1       3.139   2.719  23.501  0.00  0.00    -0.302 OA
ATOM     23  H   UNL     1       2.304   2.568  23.021  0.00  0.00    +0.222 HD
ENDBRANCH  20  22
BRANCH  20  24
ATOM     24  O   UNL     1       4.410   4.369  24.934  0.00  0.00    -0.272 OA
BRANCH  24  25
ATOM     25  C   UNL     1       4.719   5.699  24.493  0.00  0.00    +0.239 C 
BRANCH  25  26
ATOM     26  C   UNL     1       5.629   5.607  23.278  0.00  0.00    +0.335 C 
ATOM     27  O   UNL     1       6.736   6.138  23.202  0.00  0.00    -0.248 OA
BRANCH  26  28
ATOM     28  O   UNL     1       5.149   4.787  22.310  0.00  0.00    -0.479 OA
ATOM     29  H   UNL     1       5.638   3.933  22.324  0.00  0.00    +0.295 HD
ENDBRANCH  26  28
ENDBRANCH  25  26
BRANCH  25  30
ATOM     30  C   UNL     1       5.411   6.514  25.598  0.00  0.00    +0.055 C 
BRANCH  30  31
ATOM     31  C   UNL     1       5.919   5.646  26.754  0.00  0.00    +0.123 C 
BRANCH  31  32
ATOM     32  C   UNL     1       7.387   5.316  26.630  0.00  0.00    +0.305 C 
ATOM     33  O   UNL     1       8.283   5.832  27.277  0.00  0.00    -0.251 OA
BRANCH  32  34
ATOM     34  O   UNL     1       7.613   4.356  25.702  0.00  0.00    -0.481 OA
ATOM     35  H   UNL     1       7.099   4.469  24.881  0.00  0.00    +0.295 HD
ENDBRANCH  32  34
ENDBRANCH  31  32
ENDBRANCH  30  31
ENDBRANCH  25  30
ENDBRANCH  24  25
ENDBRANCH  20  24
ENDBRANCH  19  20
ENDBRANCH  18  19
ENDBRANCH  12  18
ENDBRANCH   8   9
ENDBRANCH   7   8
ENDBRANCH   4   7
ENDBRANCH   1   4
BRANCH   1  36
ATOM     36  C   UNL     1      10.258   1.056  22.696  0.00  0.00    +0.150 C 
BRANCH  36  37
ATOM     37  O   UNL     1      10.402   2.181  21.814  0.00  0.00    -0.389 OA
ATOM     38  H   UNL     1       9.659   2.132  21.183  0.00  0.00    +0.210 HD
ENDBRANCH  36  37
BRANCH  36  39
ATOM     39  C   UNL     1      10.189  -0.216  21.835  0.00  0.00    +0.069 C 
BRANCH  39  43
ATOM     40  C   UNL     1       7.845  -3.505  23.489  0.00  0.00    +0.031 A 
ATOM     41  C   UNL     1       9.110  -3.183  23.996  0.00  0.00    +0.023 A 
ATOM     42  C   UNL     1       9.856  -2.104  23.497  0.00  0.00    +0.005 A 
ATOM     43  C   UNL     1       9.353  -1.308  22.466  0.00  0.00    -0.045 A 
ATOM     44  C   UNL     1       8.068  -1.573  21.995  0.00  0.00    +0.005 A 
ATOM     45  C   UNL     1       7.328  -2.635  22.515  0.00  0.00    +0.023 A 
BRANCH  40  48
ATOM     46  C   UNL     1       6.363  -5.952  21.995  0.00  0.00    +0.030 C 
ATOM     47  C   UNL     1       5.927  -5.146  23.219  0.00  0.00    +0.094 C 
ATOM     48  N   UNL     1       7.113  -4.605  23.906  0.00  0.00    -0.309 N 
ATOM     49  C   UNL     1       7.039  -4.858  25.350  0.00  0.00    +0.214 C 
ATOM     50  N   UNL     1       5.919  -5.741  25.533  0.00  0.00    -0.301 N 
ATOM     51  C   UNL     1       5.322  -6.090  26.750  0.00  0.00    +0.137 A 
ATOM     52  C   UNL     1       6.045  -5.892  28.041  0.00  0.00    +0.276 A 
ATOM     53  N   UNL     1       5.395  -6.344  29.148  0.00  0.00    -0.294 N 
ATOM     54  H   UNL     1       5.892  -6.269  30.018  0.00  0.00    +0.172 HD
ATOM     55  C   UNL     1       4.149  -6.874  29.097  0.00  0.00    +0.195 A 
ATOM     56  N   UNL     1       3.471  -6.990  28.002  0.00  0.00    -0.199 NA
ATOM     57  N   UNL     1       3.623  -7.279  30.281  0.00  0.00    -0.329 N 
ATOM     58  H   UNL     1       2.628  -7.465  30.221  0.00  0.00    +0.145 HD
ATOM     59  H   UNL     1       3.890  -6.760  31.104  0.00  0.00    +0.145 HD
ATOM     60  O   UNL     1       7.146  -5.354  28.129  0.00  0.00    -0.266 OA
ATOM     61  C   UNL     1       4.061  -6.602  26.821  0.00  0.00    +0.149 A 
ATOM     62  N   UNL     1       3.323  -6.715  25.631  0.00  0.00    -0.323 N 
ATOM     63  H   UNL     1       2.329  -6.747  25.843  0.00  0.00    +0.148 HD
ATOM     64  C   UNL     1       3.729  -5.927  24.443  0.00  0.00    +0.091 C 
ATOM     65  C   UNL     1       2.947  -6.390  23.223  0.00  0.00    +0.030 C 
ATOM     66  C   UNL     1       5.267  -6.080  24.262  0.00  0.00    +0.115 C 
ENDBRANCH  40  48
ENDBRANCH  39  43
ENDBRANCH  36  39
ENDBRANCH   1  36
TORSDOF 25
ENDMDL
MODEL 4
REMARK VINA RESULT:      -5.9      4.103      9.466
REMARK  Name = 
REMARK  27 active torsions:
REMARK  status: ('A' for Active; 'I' for Inactive)
REMARK    1  A    between atoms: C_1  and  C_2
REMARK    2  A    between atoms: C_6  and  C_8
REMARK    3  A    between atoms: N_14  and  C_15
REMARK    4  A    between atoms: C_18  and  C_19
REMARK    5  A    between atoms: C_19  and  C_20
REMARK    6  A    between atoms: C_20  and  O_22
REMARK    7  A    between atoms: C_20  and  C_23
REMARK    8  A    between atoms: C_23  and  O_25
REMARK    9  A    between atoms: C_23  and  C_26
REMARK   10  A    between atoms: C_26  and  O_28
REMARK   11  A    between atoms: C_26  and  C_29
REMARK   12  A    between atoms: C_29  and  O_30
REMARK   13  A    between atoms: O_30  and  C_31
REMARK   14  A    between atoms: C_34  and  C_36
REMARK   15  A    between atoms: C_36  and  O_37
REMARK   16  A    between atoms: O_37  and  P_38
REMARK   17  A    between atoms: P_38  and  O_39
REMARK   18  A    between atoms: P_38  and  O_41
REMARK   19  A    between atoms: O_41  and  C_42
REMARK   20  A    between atoms: C_42  and  C_44
REMARK   21  A    between atoms: C_42  and  C_49
REMARK   22  A    between atoms: C_44  and  C_45
REMARK   23  A    between atoms: C_45  and  C_46
REMARK   24  A    between atoms: C_46  and  O_47
REMARK   25  A    between atoms: C_49  and  O_50
REMARK   26  A    between atoms: C_52  and  O_54
REMARK   27  A    between atoms: C_55  and  O_57
REMARK                            x       y       z     vdW  Elec       q    Type
REMARK                         _______ _______ _______ _____ _____    ______ ____
ROOT
ATOM      1  C   UNL     1       5.524  -6.474  27.597  0.00  0.00    +0.174 C 
ENDROOT
BRANCH   1   2
ATOM      2  O   UNL     1       5.318  -7.517  28.558  0.00  0.00    -0.387 OA
ATOM      3  H   UNL     1       6.117  -8.070  28.587  0.00  0.00    +0.210 HD
ENDBRANCH   1   2
BRANCH   1   4
ATOM      4  C   UNL     1       4.340  -6.429  26.605  0.00  0.00    +0.171 C 
BRANCH   4   5
ATOM      5  O   UNL     1       3.427  -7.517  26.839  0.00  0.00    -0.387 OA
ATOM      6  H   UNL     1       3.803  -8.010  27.592  0.00  0.00    +0.210 HD
ENDBRANCH   4   5
BRANCH   4   7
ATOM      7  C   UNL     1       4.802  -6.489  25.149  0.00  0.00    +0.197 C 
BRANCH   7   8
ATOM      8  O   UNL     1       4.457  -5.232  24.545  0.00  0.00    -0.346 OA
BRANCH   8   9
ATOM      9  C   UNL     1       5.599  -4.501  24.118  0.00  0.00    +0.282 C 
ATOM     10  C   UNL     1       5.811  -4.554  22.599  0.00  0.00    +0.201 C 
ATOM     11  C   UNL     1       7.323  -4.677  22.433  0.00  0.00    +0.179 C 
ATOM     12  C   UNL     1       7.882  -4.693  23.858  0.00  0.00    +0.179 C 
ATOM     13  O   UNL     1       6.775  -5.093  24.687  0.00  0.00    -0.341 OA
BRANCH  11  14
ATOM     14  O   UNL     1       7.610  -5.914  21.761  0.00  0.00    -0.386 OA
ATOM     15  H   UNL     1       7.946  -5.702  20.868  0.00  0.00    +0.210 HD
ENDBRANCH  11  14
BRANCH  10  16
ATOM     16  O   UNL     1       5.318  -3.374  21.959  0.00  0.00    -0.384 OA
ATOM     17  H   UNL     1       4.441  -3.192  22.345  0.00  0.00    +0.210 HD
ENDBRANCH  10  16
BRANCH  12  18
ATOM     18  C   UNL     1       8.409  -3.318  24.316  0.00  0.00    +0.206 C 
BRANCH  18  19
ATOM     19  O   UNL     1       9.198  -2.739  23.281  0.00  0.00    -0.284 OA
BRANCH  19  20
ATOM     20  P   UNL     1       8.688  -1.384  22.594  0.00  0.00    +0.476 P 
ATOM     21  O   UNL     1       7.214  -1.170  22.609  0.00  0.00    -0.227 OA
BRANCH  20  22
ATOM     22  O   UNL     1       9.270  -1.524  21.110  0.00  0.00    -0.302 OA
ATOM     23  H   UNL     1       9.823  -2.323  21.031  0.00  0.00    +0.222 HD
ENDBRANCH  20  22
BRANCH  20  24
ATOM     24  O   UNL     1       9.558  -0.194  23.240  0.00  0.00    -0.272 OA
BRANCH  24  25
ATOM     25  C   UNL     1       9.010   1.131  23.260  0.00  0.00    +0.239 C 
BRANCH  25  26
ATOM     26  C   UNL     1       9.017   1.679  21.841  0.00  0.00    +0.335 C 
ATOM     27  O   UNL     1       8.029   1.717  21.110  0.00  0.00    -0.248 OA
BRANCH  26  28
ATOM     28  O   UNL     1      10.204   2.229  21.485  0.00  0.00    -0.479 OA
ATOM     29  H   UNL     1      10.112   2.694  20.623  0.00  0.00    +0.295 HD
ENDBRANCH  26  28
ENDBRANCH  25  26
BRANCH  25  30
ATOM     30  C   UNL     1       9.819   2.063  24.178  0.00  0.00    +0.055 C 
BRANCH  30  31
ATOM     31  C   UNL     1       8.985   3.214  24.748  0.00  0.00    +0.123 C 
BRANCH  31  32
ATOM     32  C   UNL     1       9.256   4.526  24.054  0.00  0.00    +0.305 C 
ATOM     33  O   UNL     1       8.534   5.510  24.097  0.00  0.00    -0.251 OA
BRANCH  32  34
ATOM     34  O   UNL     1      10.419   4.503  23.360  0.00  0.00    -0.481 OA
ATOM     35  H   UNL     1      10.866   3.636  23.367  0.00  0.00    +0.295 HD
ENDBRANCH  32  34
ENDBRANCH  31  32
ENDBRANCH  30  31
ENDBRANCH  25  30
ENDBRANCH  24  25
ENDBRANCH  20  24
ENDBRANCH  19  20
ENDBRANCH  18  19
ENDBRANCH  12  18
ENDBRANCH   8   9
ENDBRANCH   7   8
ENDBRANCH   4   7
ENDBRANCH   1   4
BRANCH   1  36
ATOM     36  C   UNL     1       5.701  -5.091  28.262  0.00  0.00    +0.150 C 
BRANCH  36  37
ATOM     37  O   UNL     1       5.975  -5.288  29.658  0.00  0.00    -0.389 OA
ATOM     38  H   UNL     1       6.704  -4.680  29.884  0.00  0.00    +0.210 HD
ENDBRANCH  36  37
BRANCH  36  39
ATOM     39  C   UNL     1       4.452  -4.203  28.144  0.00  0.00    +0.069 C 
BRANCH  39  43
ATOM     40  C   UNL     1       5.473  -0.104  27.051  0.00  0.00    +0.031 A 
ATOM     41  C   UNL     1       6.262  -1.186  26.643  0.00  0.00    +0.023 A 
ATOM     42  C   UNL     1       5.923  -2.511  26.957  0.00  0.00    +0.005 A 
ATOM     43  C   UNL     1       4.772  -2.794  27.695  0.00  0.00    -0.045 A 
ATOM     44  C   UNL     1       3.939  -1.734  28.053  0.00  0.00    +0.005 A 
ATOM     45  C   UNL     1       4.277  -0.424  27.714  0.00  0.00    +0.023 A 
BRANCH  40  48
ATOM     46  C   UNL     1       6.817   2.238  28.821  0.00  0.00    +0.030 C 
ATOM     47  C   UNL     1       5.679   2.313  27.801  0.00  0.00    +0.094 C 
ATOM     48  N   UNL     1       5.815   1.220  26.823  0.00  0.00    -0.309 N 
ATOM     49  C   UNL     1       5.674   1.726  25.453  0.00  0.00    +0.214 C 
ATOM     50  N   UNL     1       5.665   3.160  25.568  0.00  0.00    -0.301 N 
ATOM     51  C   UNL     1       5.337   4.075  24.561  0.00  0.00    +0.137 A 
ATOM     52  C   UNL     1       5.344   3.668  23.125  0.00  0.00    +0.276 A 
ATOM     53  N   UNL     1       5.087   4.666  22.235  0.00  0.00    -0.294 N 
ATOM     54  H   UNL     1       5.143   4.420  21.263  0.00  0.00    +0.172 HD
ATOM     55  C   UNL     1       4.776   5.927  22.622  0.00  0.00    +0.195 A 
ATOM     56  N   UNL     1       4.691   6.288  23.861  0.00  0.00    -0.199 NA
ATOM     57  N   UNL     1       4.540   6.816  21.625  0.00  0.00    -0.329 N 
ATOM     58  H   UNL     1       4.111   7.671  21.961  0.00  0.00    +0.145 HD
ATOM     59  H   UNL     1       4.124   6.459  20.779  0.00  0.00    +0.145 HD
ATOM     60  O   UNL     1       5.554   2.519  22.744  0.00  0.00    -0.266 OA
ATOM     61  C   UNL     1       4.978   5.361  24.836  0.00  0.00    +0.149 A 
ATOM     62  N   UNL     1       4.875   5.748  26.183  0.00  0.00    -0.323 N 
ATOM     63  H   UNL     1       4.270   6.561  26.263  0.00  0.00    +0.148 HD
ATOM     64  C   UNL     1       4.742   4.708  27.232  0.00  0.00    +0.091 C 
ATOM     65  C   UNL     1       4.893   5.340  28.608  0.00  0.00    +0.030 C 
ATOM     66  C   UNL     1       5.806   3.605  26.959  0.00  0.00    +0.115 C 
ENDBRANCH  40  48
ENDBRANCH  39  43
ENDBRANCH  36  39
ENDBRANCH   1  36
TORSDOF 25
ENDMDL
MODEL 5
REMARK VINA RESULT:      -5.9      1.778      2.621
REMARK  Name = 
REMARK  27 active torsions:
REMARK  status: ('A' for Active; 'I' for Inactive)
REMARK    1  A    between atoms: C_1  and  C_2
REMARK    2  A    between atoms: C_6  and  C_8
REMARK    3  A    between atoms: N_14  and  C_15
REMARK    4  A    between atoms: C_18  and  C_19
REMARK    5  A    between atoms: C_19  and  C_20
REMARK    6  A    between atoms: C_20  and  O_22
REMARK    7  A    between atoms: C_20  and  C_23
REMARK    8  A    between atoms: C_23  and  O_25
REMARK    9  A    between atoms: C_23  and  C_26
REMARK   10  A    between atoms: C_26  and  O_28
REMARK   11  A    between atoms: C_26  and  C_29
REMARK   12  A    between atoms: C_29  and  O_30
REMARK   13  A    between atoms: O_30  and  C_31
REMARK   14  A    between atoms: C_34  and  C_36
REMARK   15  A    between atoms: C_36  and  O_37
REMARK   16  A    between atoms: O_37  and  P_38
REMARK   17  A    between atoms: P_38  and  O_39
REMARK   18  A    between atoms: P_38  and  O_41
REMARK   19  A    between atoms: O_41  and  C_42
REMARK   20  A    between atoms: C_42  and  C_44
REMARK   21  A    between atoms: C_42  and  C_49
REMARK   22  A    between atoms: C_44  and  C_45
REMARK   23  A    between atoms: C_45  and  C_46
REMARK   24  A    between atoms: C_46  and  O_47
REMARK   25  A    between atoms: C_49  and  O_50
REMARK   26  A    between atoms: C_52  and  O_54
REMARK   27  A    between atoms: C_55  and  O_57
REMARK                            x       y       z     vdW  Elec       q    Type
REMARK                         _______ _______ _______ _____ _____    ______ ____
ROOT
ATOM      1  C   UNL     1      10.557   1.489  22.559  0.00  0.00    +0.174 C 
ENDROOT
BRANCH   1   2
ATOM      2  O   UNL     1      10.193   2.368  21.488  0.00  0.00    -0.387 OA
ATOM      3  H   UNL     1       9.654   1.869  20.852  0.00  0.00    +0.210 HD
ENDBRANCH   1   2
BRANCH   1   4
ATOM      4  C   UNL     1      10.600   2.271  23.892  0.00  0.00    +0.171 C 
BRANCH   4   5
ATOM      5  O   UNL     1       9.956   1.534  24.946  0.00  0.00    -0.387 OA
ATOM      6  H   UNL     1      10.463   1.744  25.753  0.00  0.00    +0.210 HD
ENDBRANCH   4   5
BRANCH   4   7
ATOM      7  C   UNL     1       9.932   3.642  23.781  0.00  0.00    +0.197 C 
BRANCH   7   8
ATOM      8  O   UNL     1       8.573   3.418  23.374  0.00  0.00    -0.346 OA
BRANCH   8   9
ATOM      9  C   UNL     1       7.633   3.953  24.296  0.00  0.00    +0.282 C 
ATOM     10  C   UNL     1       7.890   5.431  24.622  0.00  0.00    +0.201 C 
ATOM     11  C   UNL     1       7.603   5.543  26.117  0.00  0.00    +0.179 C 
ATOM     12  C   UNL     1       7.207   4.130  26.555  0.00  0.00    +0.179 C 
ATOM     13  O   UNL     1       7.755   3.262  25.546  0.00  0.00    -0.341 OA
BRANCH  11  14
ATOM     14  O   UNL     1       8.804   5.964  26.783  0.00  0.00    -0.386 OA
ATOM     15  H   UNL     1       9.061   5.263  27.414  0.00  0.00    +0.210 HD
ENDBRANCH  11  14
BRANCH  10  16
ATOM     16  O   UNL     1       7.031   6.291  23.868  0.00  0.00    -0.384 OA
ATOM     17  H   UNL     1       7.278   7.206  24.100  0.00  0.00    +0.210 HD
ENDBRANCH  10  16
BRANCH  12  18
ATOM     18  C   UNL     1       5.681   3.930  26.646  0.00  0.00    +0.206 C 
BRANCH  18  19
ATOM     19  O   UNL     1       5.391   2.552  26.859  0.00  0.00    -0.284 OA
BRANCH  19  20
ATOM     20  P   UNL     1       4.738   1.711  25.661  0.00  0.00    +0.476 P 
ATOM     21  O   UNL     1       4.197   2.516  24.530  0.00  0.00    -0.227 OA
BRANCH  20  22
ATOM     22  O   UNL     1       3.600   0.881  26.420  0.00  0.00    -0.302 OA
ATOM     23  H   UNL     1       3.896   0.626  27.313  0.00  0.00    +0.222 HD
ENDBRANCH  20  22
BRANCH  20  24
ATOM     24  O   UNL     1       5.822   0.595  25.249  0.00  0.00    -0.272 OA
BRANCH  24  25
ATOM     25  C   UNL     1       5.986  -0.553  26.094  0.00  0.00    +0.239 C 
BRANCH  25  26
ATOM     26  C   UNL     1       7.401  -0.546  26.653  0.00  0.00    +0.335 C 
ATOM     27  O   UNL     1       8.056  -1.559  26.888  0.00  0.00    -0.248 OA
BRANCH  26  28
ATOM     28  O   UNL     1       7.923   0.700  26.770  0.00  0.00    -0.479 OA
ATOM     29  H   UNL     1       7.297   1.361  26.395  0.00  0.00    +0.295 HD
ENDBRANCH  26  28
ENDBRANCH  25  26
BRANCH  25  30
ATOM     30  C   UNL     1       5.741  -1.861  25.323  0.00  0.00    +0.055 C 
BRANCH  30  31
ATOM     31  C   UNL     1       4.394  -2.510  25.657  0.00  0.00    +0.123 C 
BRANCH  31  32
ATOM     32  C   UNL     1       4.149  -2.608  27.142  0.00  0.00    +0.305 C 
ATOM     33  O   UNL     1       4.812  -3.269  27.925  0.00  0.00    -0.251 OA
BRANCH  32  34
ATOM     34  O   UNL     1       3.088  -1.861  27.532  0.00  0.00    -0.481 OA
ATOM     35  H   UNL     1       2.238  -2.153  27.153  0.00  0.00    +0.295 HD
ENDBRANCH  32  34
ENDBRANCH  31  32
ENDBRANCH  30  31
ENDBRANCH  25  30
ENDBRANCH  24  25
ENDBRANCH  20  24
ENDBRANCH  19  20
ENDBRANCH  18  19
ENDBRANCH  12  18
ENDBRANCH   8   9
ENDBRANCH   7   8
ENDBRANCH   4   7
ENDBRANCH   1   4
BRANCH   1  36
ATOM     36  C   UNL     1       9.592   0.290  22.689  0.00  0.00    +0.150 C 
BRANCH  36  37
ATOM     37  O   UNL     1       8.655   0.571  23.742  0.00  0.00    -0.389 OA
ATOM     38  H   UNL     1       8.141  -0.247  23.878  0.00  0.00    +0.210 HD
ENDBRANCH  36  37
BRANCH  36  39
ATOM     39  C   UNL     1      10.310  -1.025  23.032  0.00  0.00    +0.069 C 
BRANCH  39  43
ATOM     40  C   UNL     1       7.448  -4.262  23.643  0.00  0.00    +0.031 A 
ATOM     41  C   UNL     1       7.343  -3.391  22.550  0.00  0.00    +0.023 A 
ATOM     42  C   UNL     1       8.279  -2.371  22.324  0.00  0.00    +0.005 A 
ATOM     43  C   UNL     1       9.358  -2.190  23.192  0.00  0.00    -0.045 A 
ATOM     44  C   UNL     1       9.515  -3.089  24.246  0.00  0.00    +0.005 A 
ATOM     45  C   UNL     1       8.589  -4.113  24.447  0.00  0.00    +0.023 A 
BRANCH  40  48
ATOM     46  C   UNL     1       5.545  -6.195  21.892  0.00  0.00    +0.030 C 
ATOM     47  C   UNL     1       5.250  -5.453  23.197  0.00  0.00    +0.094 C 
ATOM     48  N   UNL     1       6.504  -5.233  23.938  0.00  0.00    -0.309 N 
ATOM     49  C   UNL     1       6.352  -5.618  25.346  0.00  0.00    +0.214 C 
ATOM     50  N   UNL     1       5.075  -6.276  25.433  0.00  0.00    -0.301 N 
ATOM     51  C   UNL     1       4.396  -6.628  26.605  0.00  0.00    +0.137 A 
ATOM     52  C   UNL     1       5.116  -6.715  27.910  0.00  0.00    +0.276 A 
ATOM     53  N   UNL     1       4.366  -7.144  28.961  0.00  0.00    -0.294 N 
ATOM     54  H   UNL     1       4.849  -7.262  29.834  0.00  0.00    +0.172 HD
ATOM     55  C   UNL     1       3.041  -7.408  28.853  0.00  0.00    +0.195 A 
ATOM     56  N   UNL     1       2.378  -7.270  27.752  0.00  0.00    -0.199 NA
ATOM     57  N   UNL     1       2.421  -7.825  29.986  0.00  0.00    -0.329 N 
ATOM     58  H   UNL     1       1.410  -7.802  29.906  0.00  0.00    +0.145 HD
ATOM     59  H   UNL     1       2.767  -7.459  30.861  0.00  0.00    +0.145 HD
ATOM     60  O   UNL     1       6.299  -6.418  28.056  0.00  0.00    -0.266 OA
ATOM     61  C   UNL     1       3.058  -6.884  26.620  0.00  0.00    +0.149 A 
ATOM     62  N   UNL     1       2.337  -6.722  25.425  0.00  0.00    -0.323 N 
ATOM     63  H   UNL     1       1.352  -6.578  25.633  0.00  0.00    +0.148 HD
ATOM     64  C   UNL     1       2.916  -5.908  24.329  0.00  0.00    +0.091 C 
ATOM     65  C   UNL     1       2.084  -6.075  23.066  0.00  0.00    +0.030 C 
ATOM     66  C   UNL     1       4.397  -6.343  24.133  0.00  0.00    +0.115 C 
ENDBRANCH  40  48
ENDBRANCH  39  43
ENDBRANCH  36  39
ENDBRANCH   1  36
TORSDOF 25
ENDMDL
MODEL 6
REMARK VINA RESULT:      -5.8      4.055      9.348
REMARK  Name = 
REMARK  27 active torsions:
REMARK  status: ('A' for Active; 'I' for Inactive)
REMARK    1  A    between atoms: C_1  and  C_2
REMARK    2  A    between atoms: C_6  and  C_8
REMARK    3  A    between atoms: N_14  and  C_15
REMARK    4  A    between atoms: C_18  and  C_19
REMARK    5  A    between atoms: C_19  and  C_20
REMARK    6  A    between atoms: C_20  and  O_22
REMARK    7  A    between atoms: C_20  and  C_23
REMARK    8  A    between atoms: C_23  and  O_25
REMARK    9  A    between atoms: C_23  and  C_26
REMARK   10  A    between atoms: C_26  and  O_28
REMARK   11  A    between atoms: C_26  and  C_29
REMARK   12  A    between atoms: C_29  and  O_30
REMARK   13  A    between atoms: O_30  and  C_31
REMARK   14  A    between atoms: C_34  and  C_36
REMARK   15  A    between atoms: C_36  and  O_37
REMARK   16  A    between atoms: O_37  and  P_38
REMARK   17  A    between atoms: P_38  and  O_39
REMARK   18  A    between atoms: P_38  and  O_41
REMARK   19  A    between atoms: O_41  and  C_42
REMARK   20  A    between atoms: C_42  and  C_44
REMARK   21  A    between atoms: C_42  and  C_49
REMARK   22  A    between atoms: C_44  and  C_45
REMARK   23  A    between atoms: C_45  and  C_46
REMARK   24  A    between atoms: C_46  and  O_47
REMARK   25  A    between atoms: C_49  and  O_50
REMARK   26  A    between atoms: C_52  and  O_54
REMARK   27  A    between atoms: C_55  and  O_57
REMARK                            x       y       z     vdW  Elec       q    Type
REMARK                         _______ _______ _______ _____ _____    ______ ____
ROOT
ATOM      1  C   UNL     1       5.246  -6.397  27.344  0.00  0.00    +0.174 C 
ENDROOT
BRANCH   1   2
ATOM      2  O   UNL     1       5.329  -7.523  28.227  0.00  0.00    -0.387 OA
ATOM      3  H   UNL     1       5.233  -8.334  27.700  0.00  0.00    +0.210 HD
ENDBRANCH   1   2
BRANCH   1   4
ATOM      4  C   UNL     1       3.876  -6.387  26.629  0.00  0.00    +0.171 C 
BRANCH   4   5
ATOM      5  O   UNL     1       3.029  -7.442  27.118  0.00  0.00    -0.387 OA
ATOM      6  H   UNL     1       2.383  -7.603  26.404  0.00  0.00    +0.210 HD
ENDBRANCH   4   5
BRANCH   4   7
ATOM      7  C   UNL     1       4.013  -6.537  25.113  0.00  0.00    +0.197 C 
BRANCH   7   8
ATOM      8  O   UNL     1       3.988  -5.215  24.553  0.00  0.00    -0.346 OA
BRANCH   8   9
ATOM      9  C   UNL     1       5.266  -4.791  24.099  0.00  0.00    +0.282 C 
ATOM     10  C   UNL     1       5.207  -4.037  22.764  0.00  0.00    +0.201 C 
ATOM     11  C   UNL     1       6.434  -4.527  21.999  0.00  0.00    +0.179 C 
ATOM     12  C   UNL     1       7.115  -5.530  22.936  0.00  0.00    +0.179 C 
ATOM     13  O   UNL     1       6.082  -5.943  23.850  0.00  0.00    -0.341 OA
BRANCH  11  14
ATOM     14  O   UNL     1       5.995  -5.175  20.795  0.00  0.00    -0.386 OA
ATOM     15  H   UNL     1       6.773  -5.589  20.373  0.00  0.00    +0.210 HD
ENDBRANCH  11  14
BRANCH  10  16
ATOM     16  O   UNL     1       5.253  -2.622  22.957  0.00  0.00    -0.384 OA
ATOM     17  H   UNL     1       5.462  -2.228  22.090  0.00  0.00    +0.210 HD
ENDBRANCH  10  16
BRANCH  12  18
ATOM     18  C   UNL     1       8.295  -4.921  23.719  0.00  0.00    +0.206 C 
BRANCH  18  19
ATOM     19  O   UNL     1       8.408  -3.534  23.412  0.00  0.00    -0.284 OA
BRANCH  19  20
ATOM     20  P   UNL     1       8.613  -2.496  24.615  0.00  0.00    +0.476 P 
ATOM     21  O   UNL     1       8.664  -3.093  25.979  0.00  0.00    -0.227 OA
BRANCH  20  22
ATOM     22  O   UNL     1       7.364  -1.514  24.423  0.00  0.00    -0.302 OA
ATOM     23  H   UNL     1       6.826  -1.786  23.658  0.00  0.00    +0.222 HD
ENDBRANCH  20  22
BRANCH  20  24
ATOM     24  O   UNL     1       9.883  -1.589  24.217  0.00  0.00    -0.272 OA
BRANCH  24  25
ATOM     25  C   UNL     1       9.660  -0.363  23.507  0.00  0.00    +0.239 C 
BRANCH  25  26
ATOM     26  C   UNL     1       9.734  -0.647  22.014  0.00  0.00    +0.335 C 
ATOM     27  O   UNL     1       9.332   0.122  21.144  0.00  0.00    -0.248 OA
BRANCH  26  28
ATOM     28  O   UNL     1      10.390  -1.797  21.721  0.00  0.00    -0.479 OA
ATOM     29  H   UNL     1       9.922  -2.272  20.996  0.00  0.00    +0.295 HD
ENDBRANCH  26  28
ENDBRANCH  25  26
BRANCH  25  30
ATOM     30  C   UNL     1      10.702   0.704  23.883  0.00  0.00    +0.055 C 
BRANCH  30  31
ATOM     31  C   UNL     1      10.075   2.055  24.242  0.00  0.00    +0.123 C 
BRANCH  31  32
ATOM     32  C   UNL     1      10.448   3.145  23.267  0.00  0.00    +0.305 C 
ATOM     33  O   UNL     1      10.712   4.299  23.567  0.00  0.00    -0.251 OA
BRANCH  32  34
ATOM     34  O   UNL     1      10.466   2.699  21.989  0.00  0.00    -0.481 OA
ATOM     35  H   UNL     1      10.217   3.374  21.330  0.00  0.00    +0.295 HD
ENDBRANCH  32  34
ENDBRANCH  31  32
ENDBRANCH  30  31
ENDBRANCH  25  30
ENDBRANCH  24  25
ENDBRANCH  20  24
ENDBRANCH  19  20
ENDBRANCH  18  19
ENDBRANCH  12  18
ENDBRANCH   8   9
ENDBRANCH   7   8
ENDBRANCH   4   7
ENDBRANCH   1   4
BRANCH   1  36
ATOM     36  C   UNL     1       5.461  -5.057  28.082  0.00  0.00    +0.150 C 
BRANCH  36  37
ATOM     37  O   UNL     1       6.083  -5.327  29.348  0.00  0.00    -0.389 OA
ATOM     38  H   UNL     1       6.157  -4.470  29.807  0.00  0.00    +0.210 HD
ENDBRANCH  36  37
BRANCH  36  39
ATOM     39  C   UNL     1       4.148  -4.302  28.349  0.00  0.00    +0.069 C 
BRANCH  39  43
ATOM     40  C   UNL     1       4.204  -0.057  27.339  0.00  0.00    +0.031 A 
ATOM     41  C   UNL     1       3.972  -0.493  28.650  0.00  0.00    +0.023 A 
ATOM     42  C   UNL     1       3.989  -1.853  28.993  0.00  0.00    +0.005 A 
ATOM     43  C   UNL     1       4.242  -2.827  28.025  0.00  0.00    -0.045 A 
ATOM     44  C   UNL     1       4.541  -2.408  26.729  0.00  0.00    +0.005 A 
ATOM     45  C   UNL     1       4.542  -1.051  26.407  0.00  0.00    +0.023 A 
BRANCH  40  48
ATOM     46  C   UNL     1       1.794   2.049  26.922  0.00  0.00    +0.030 C 
ATOM     47  C   UNL     1       3.066   1.843  26.098  0.00  0.00    +0.094 C 
ATOM     48  N   UNL     1       4.123   1.271  26.950  0.00  0.00    -0.309 N 
ATOM     49  C   UNL     1       5.384   2.001  26.778  0.00  0.00    +0.214 C 
ATOM     50  N   UNL     1       5.058   3.156  25.985  0.00  0.00    -0.301 N 
ATOM     51  C   UNL     1       5.964   4.035  25.381  0.00  0.00    +0.137 A 
ATOM     52  C   UNL     1       7.387   4.097  25.831  0.00  0.00    +0.276 A 
ATOM     53  N   UNL     1       8.149   5.047  25.224  0.00  0.00    -0.294 N 
ATOM     54  H   UNL     1       9.093   5.138  25.555  0.00  0.00    +0.172 HD
ATOM     55  C   UNL     1       7.676   5.837  24.230  0.00  0.00    +0.195 A 
ATOM     56  N   UNL     1       6.470   5.754  23.771  0.00  0.00    -0.199 NA
ATOM     57  N   UNL     1       8.551   6.737  23.715  0.00  0.00    -0.329 N 
ATOM     58  H   UNL     1       8.222   7.147  22.848  0.00  0.00    +0.145 HD
ATOM     59  H   UNL     1       9.525   6.472  23.694  0.00  0.00    +0.145 HD
ATOM     60  O   UNL     1       7.865   3.350  26.681  0.00  0.00    -0.266 OA
ATOM     61  C   UNL     1       5.608   4.854  24.352  0.00  0.00    +0.149 A 
ATOM     62  N   UNL     1       4.300   4.754  23.847  0.00  0.00    -0.323 N 
ATOM     63  H   UNL     1       4.268   5.114  22.896  0.00  0.00    +0.148 HD
ATOM     64  C   UNL     1       3.501   3.536  24.128  0.00  0.00    +0.091 C 
ATOM     65  C   UNL     1       2.058   3.754  23.698  0.00  0.00    +0.030 C 
ATOM     66  C   UNL     1       3.632   3.210  25.644  0.00  0.00    +0.115 C 
ENDBRANCH  40  48
ENDBRANCH  39  43
ENDBRANCH  36  39
ENDBRANCH   1  36
TORSDOF 25
ENDMDL
MODEL 7
REMARK VINA RESULT:      -5.7      3.152      6.737
REMARK  Name = 
REMARK  27 active torsions:
REMARK  status: ('A' for Active; 'I' for Inactive)
REMARK    1  A    between atoms: C_1  and  C_2
REMARK    2  A    between atoms: C_6  and  C_8
REMARK    3  A    between atoms: N_14  and  C_15
REMARK    4  A    between atoms: C_18  and  C_19
REMARK    5  A    between atoms: C_19  and  C_20
REMARK    6  A    between atoms: C_20  and  O_22
REMARK    7  A    between atoms: C_20  and  C_23
REMARK    8  A    between atoms: C_23  and  O_25
REMARK    9  A    between atoms: C_23  and  C_26
REMARK   10  A    between atoms: C_26  and  O_28
REMARK   11  A    between atoms: C_26  and  C_29
REMARK   12  A    between atoms: C_29  and  O_30
REMARK   13  A    between atoms: O_30  and  C_31
REMARK   14  A    between atoms: C_34  and  C_36
REMARK   15  A    between atoms: C_36  and  O_37
REMARK   16  A    between atoms: O_37  and  P_38
REMARK   17  A    between atoms: P_38  and  O_39
REMARK   18  A    between atoms: P_38  and  O_41
REMARK   19  A    between atoms: O_41  and  C_42
REMARK   20  A    between atoms: C_42  and  C_44
REMARK   21  A    between atoms: C_42  and  C_49
REMARK   22  A    between atoms: C_44  and  C_45
REMARK   23  A    between atoms: C_45  and  C_46
REMARK   24  A    between atoms: C_46  and  O_47
REMARK   25  A    between atoms: C_49  and  O_50
REMARK   26  A    between atoms: C_52  and  O_54
REMARK   27  A    between atoms: C_55  and  O_57
REMARK                            x       y       z     vdW  Elec       q    Type
REMARK                         _______ _______ _______ _____ _____    ______ ____
ROOT
ATOM      1  C   UNL     1       9.399   6.083  23.347  0.00  0.00    +0.174 C 
ENDROOT
BRANCH   1   2
ATOM      2  O   UNL     1       9.404   6.958  24.480  0.00  0.00    -0.387 OA
ATOM      3  H   UNL     1       9.563   6.427  25.278  0.00  0.00    +0.210 HD
ENDBRANCH   1   2
BRANCH   1   4
ATOM      4  C   UNL     1      10.052   4.732  23.720  0.00  0.00    +0.171 C 
BRANCH   4   5
ATOM      5  O   UNL     1      11.274   4.528  22.988  0.00  0.00    -0.387 OA
ATOM      6  H   UNL     1      11.407   5.348  22.476  0.00  0.00    +0.210 HD
ENDBRANCH   4   5
BRANCH   4   7
ATOM      7  C   UNL     1       9.123   3.547  23.453  0.00  0.00    +0.197 C 
BRANCH   7   8
ATOM      8  O   UNL     1       9.400   2.559  24.458  0.00  0.00    -0.346 OA
BRANCH   8   9
ATOM      9  C   UNL     1       9.435   1.240  23.930  0.00  0.00    +0.282 C 
ATOM     10  C   UNL     1       8.666   1.104  22.609  0.00  0.00    +0.201 C 
ATOM     11  C   UNL     1       7.971  -0.252  22.714  0.00  0.00    +0.179 C 
ATOM     12  C   UNL     1       8.377  -0.804  24.083  0.00  0.00    +0.179 C 
ATOM     13  O   UNL     1       8.779   0.350  24.844  0.00  0.00    -0.341 OA
BRANCH  11  14
ATOM     14  O   UNL     1       6.552  -0.044  22.651  0.00  0.00    -0.386 OA
ATOM     15  H   UNL     1       6.137  -0.572  23.361  0.00  0.00    +0.210 HD
ENDBRANCH  11  14
BRANCH  10  16
ATOM     16  O   UNL     1       9.547   1.143  21.483  0.00  0.00    -0.384 OA
ATOM     17  H   UNL     1       9.374   0.336  20.964  0.00  0.00    +0.210 HD
ENDBRANCH  10  16
BRANCH  12  18
ATOM     18  C   UNL     1       9.540  -1.813  24.008  0.00  0.00    +0.206 C 
BRANCH  18  19
ATOM     19  O   UNL     1       9.064  -3.055  23.498  0.00  0.00    -0.284 OA
BRANCH  19  20
ATOM     20  P   UNL     1       8.341  -4.072  24.504  0.00  0.00    +0.476 P 
ATOM     21  O   UNL     1       8.438  -3.725  25.949  0.00  0.00    -0.227 OA
BRANCH  20  22
ATOM     22  O   UNL     1       9.069  -5.455  24.157  0.00  0.00    -0.302 OA
ATOM     23  H   UNL     1       9.102  -5.595  23.193  0.00  0.00    +0.222 HD
ENDBRANCH  20  22
BRANCH  20  24
ATOM     24  O   UNL     1       6.844  -4.271  23.947  0.00  0.00    -0.272 OA
BRANCH  24  25
ATOM     25  C   UNL     1       6.663  -4.834  22.639  0.00  0.00    +0.239 C 
BRANCH  25  26
ATOM     26  C   UNL     1       6.066  -3.769  21.732  0.00  0.00    +0.335 C 
ATOM     27  O   UNL     1       5.897  -3.908  20.522  0.00  0.00    -0.248 OA
BRANCH  26  28
ATOM     28  O   UNL     1       5.632  -2.675  22.405  0.00  0.00    -0.479 OA
ATOM     29  H   UNL     1       4.650  -2.698  22.482  0.00  0.00    +0.295 HD
ENDBRANCH  26  28
ENDBRANCH  25  26
BRANCH  25  30
ATOM     30  C   UNL     1       5.738  -6.062  22.677  0.00  0.00    +0.055 C 
BRANCH  30  31
ATOM     31  C   UNL     1       5.065  -6.265  24.038  0.00  0.00    +0.123 C 
BRANCH  31  32
ATOM     32  C   UNL     1       3.658  -5.723  24.077  0.00  0.00    +0.305 C 
ATOM     33  O   UNL     1       2.642  -6.399  24.128  0.00  0.00    -0.251 OA
BRANCH  32  34
ATOM     34  O   UNL     1       3.635  -4.369  24.052  0.00  0.00    -0.481 OA
ATOM     35  H   UNL     1       3.900  -3.984  23.196  0.00  0.00    +0.295 HD
ENDBRANCH  32  34
ENDBRANCH  31  32
ENDBRANCH  30  31
ENDBRANCH  25  30
ENDBRANCH  24  25
ENDBRANCH  20  24
ENDBRANCH  19  20
ENDBRANCH  18  19
ENDBRANCH  12  18
ENDBRANCH   8   9
ENDBRANCH   7   8
ENDBRANCH   4   7
ENDBRANCH   1   4
BRANCH   1  36
ATOM     36  C   UNL     1       7.975   5.840  22.799  0.00  0.00    +0.150 C 
BRANCH  36  37
ATOM     37  O   UNL     1       7.880   6.438  21.496  0.00  0.00    -0.389 OA
ATOM     38  H   UNL     1       8.044   7.392  21.618  0.00  0.00    +0.210 HD
ENDBRANCH  36  37
BRANCH  36  39
ATOM     39  C   UNL     1       6.878   6.455  23.683  0.00  0.00    +0.069 C 
BRANCH  39  43
ATOM     40  C   UNL     1       4.672   3.292  25.727  0.00  0.00    +0.031 A 
ATOM     41  C   UNL     1       5.626   4.068  26.398  0.00  0.00    +0.023 A 
ATOM     42  C   UNL     1       6.314   5.112  25.760  0.00  0.00    +0.005 A 
ATOM     43  C   UNL     1       6.065   5.413  24.420  0.00  0.00    -0.045 A 
ATOM     44  C   UNL     1       5.071   4.696  23.756  0.00  0.00    +0.005 A 
ATOM     45  C   UNL     1       4.379   3.676  24.408  0.00  0.00    +0.023 A 
BRANCH  40  48
ATOM     46  C   UNL     1       2.075   2.926  27.608  0.00  0.00    +0.030 C 
ATOM     47  C   UNL     1       3.419   2.196  27.643  0.00  0.00    +0.094 C 
ATOM     48  N   UNL     1       4.027   2.209  26.302  0.00  0.00    -0.309 N 
ATOM     49  C   UNL     1       4.497   0.869  25.930  0.00  0.00    +0.214 C 
ATOM     50  N   UNL     1       3.991  -0.015  26.945  0.00  0.00    -0.301 N 
ATOM     51  C   UNL     1       4.353  -1.353  27.141  0.00  0.00    +0.137 A 
ATOM     52  C   UNL     1       5.019  -2.133  26.056  0.00  0.00    +0.276 A 
ATOM     53  N   UNL     1       5.248  -3.445  26.337  0.00  0.00    -0.294 N 
ATOM     54  H   UNL     1       5.644  -3.996  25.597  0.00  0.00    +0.172 HD
ATOM     55  C   UNL     1       4.958  -3.994  27.542  0.00  0.00    +0.195 A 
ATOM     56  N   UNL     1       4.449  -3.324  28.523  0.00  0.00    -0.199 NA
ATOM     57  N   UNL     1       5.244  -5.313  27.681  0.00  0.00    -0.329 N 
ATOM     58  H   UNL     1       5.210  -5.618  28.647  0.00  0.00    +0.145 HD
ATOM     59  H   UNL     1       6.041  -5.667  27.172  0.00  0.00    +0.145 HD
ATOM     60  O   UNL     1       5.356  -1.649  24.978  0.00  0.00    -0.266 OA
ATOM     61  C   UNL     1       4.139  -1.999  28.321  0.00  0.00    +0.149 A 
ATOM     62  N   UNL     1       3.596  -1.265  29.390  0.00  0.00    -0.323 N 
ATOM     63  H   UNL     1       3.824  -1.719  30.271  0.00  0.00    +0.148 HD
ATOM     64  C   UNL     1       3.659   0.216  29.364  0.00  0.00    +0.091 C 
ATOM     65  C   UNL     1       2.806   0.790  30.485  0.00  0.00    +0.030 C 
ATOM     66  C   UNL     1       3.201   0.696  27.956  0.00  0.00    +0.115 C 
ENDBRANCH  40  48
ENDBRANCH  39  43
ENDBRANCH  36  39
ENDBRANCH   1  36
TORSDOF 25
ENDMDL
MODEL 8
REMARK VINA RESULT:      -5.7      3.965      9.389
REMARK  Name = 
REMARK  27 active torsions:
REMARK  status: ('A' for Active; 'I' for Inactive)
REMARK    1  A    between atoms: C_1  and  C_2
REMARK    2  A    between atoms: C_6  and  C_8
REMARK    3  A    between atoms: N_14  and  C_15
REMARK    4  A    between atoms: C_18  and  C_19
REMARK    5  A    between atoms: C_19  and  C_20
REMARK    6  A    between atoms: C_20  and  O_22
REMARK    7  A    between atoms: C_20  and  C_23
REMARK    8  A    between atoms: C_23  and  O_25
REMARK    9  A    between atoms: C_23  and  C_26
REMARK   10  A    between atoms: C_26  and  O_28
REMARK   11  A    between atoms: C_26  and  C_29
REMARK   12  A    between atoms: C_29  and  O_30
REMARK   13  A    between atoms: O_30  and  C_31
REMARK   14  A    between atoms: C_34  and  C_36
REMARK   15  A    between atoms: C_36  and  O_37
REMARK   16  A    between atoms: O_37  and  P_38
REMARK   17  A    between atoms: P_38  and  O_39
REMARK   18  A    between atoms: P_38  and  O_41
REMARK   19  A    between atoms: O_41  and  C_42
REMARK   20  A    between atoms: C_42  and  C_44
REMARK   21  A    between atoms: C_42  and  C_49
REMARK   22  A    between atoms: C_44  and  C_45
REMARK   23  A    between atoms: C_45  and  C_46
REMARK   24  A    between atoms: C_46  and  O_47
REMARK   25  A    between atoms: C_49  and  O_50
REMARK   26  A    between atoms: C_52  and  O_54
REMARK   27  A    between atoms: C_55  and  O_57
REMARK                            x       y       z     vdW  Elec       q    Type
REMARK                         _______ _______ _______ _____ _____    ______ ____
ROOT
ATOM      1  C   UNL     1       4.464  -5.008  29.438  0.00  0.00    +0.174 C 
ENDROOT
BRANCH   1   2
ATOM      2  O   UNL     1       3.519  -5.377  30.449  0.00  0.00    -0.387 OA
ATOM      3  H   UNL     1       3.549  -6.342  30.560  0.00  0.00    +0.210 HD
ENDBRANCH   1   2
BRANCH   1   4
ATOM      4  C   UNL     1       4.693  -6.192  28.472  0.00  0.00    +0.171 C 
BRANCH   4   5
ATOM      5  O   UNL     1       4.231  -7.427  29.048  0.00  0.00    -0.387 OA
ATOM      6  H   UNL     1       4.678  -7.490  29.913  0.00  0.00    +0.210 HD
ENDBRANCH   4   5
BRANCH   4   7
ATOM      7  C   UNL     1       6.166  -6.355  28.093  0.00  0.00    +0.197 C 
BRANCH   7   8
ATOM      8  O   UNL     1       6.242  -6.302  26.660  0.00  0.00    -0.346 OA
BRANCH   8   9
ATOM      9  C   UNL     1       6.928  -5.149  26.193  0.00  0.00    +0.282 C 
ATOM     10  C   UNL     1       7.844  -5.441  24.996  0.00  0.00    +0.201 C 
ATOM     11  C   UNL     1       9.087  -4.595  25.256  0.00  0.00    +0.179 C 
ATOM     12  C   UNL     1       8.812  -3.878  26.581  0.00  0.00    +0.179 C 
ATOM     13  O   UNL     1       7.797  -4.668  27.227  0.00  0.00    -0.341 OA
BRANCH  11  14
ATOM     14  O   UNL     1      10.219  -5.470  25.378  0.00  0.00    -0.386 OA
ATOM     15  H   UNL     1       9.890  -6.390  25.382  0.00  0.00    +0.210 HD
ENDBRANCH  11  14
BRANCH  10  16
ATOM     16  O   UNL     1       7.224  -5.077  23.760  0.00  0.00    -0.384 OA
ATOM     17  H   UNL     1       7.168  -4.104  23.751  0.00  0.00    +0.210 HD
ENDBRANCH  10  16
BRANCH  12  18
ATOM     18  C   UNL     1       8.311  -2.432  26.394  0.00  0.00    +0.206 C 
BRANCH  18  19
ATOM     19  O   UNL     1       7.996  -2.209  25.023  0.00  0.00    -0.284 OA
BRANCH  19  20
ATOM     20  P   UNL     1       6.633  -1.446  24.663  0.00  0.00    +0.476 P 
ATOM     21  O   UNL     1       5.561  -1.520  25.695  0.00  0.00    -0.227 OA
BRANCH  20  22
ATOM     22  O   UNL     1       6.210  -2.151  23.290  0.00  0.00    -0.302 OA
ATOM     23  H   UNL     1       5.350  -1.814  22.979  0.00  0.00    +0.222 HD
ENDBRANCH  20  22
BRANCH  20  24
ATOM     24  O   UNL     1       7.054   0.043  24.219  0.00  0.00    -0.272 OA
BRANCH  24  25
ATOM     25  C   UNL     1       8.399   0.279  23.779  0.00  0.00    +0.239 C 
BRANCH  25  26
ATOM     26  C   UNL     1       9.023   1.338  24.675  0.00  0.00    +0.335 C 
ATOM     27  O   UNL     1       9.734   2.255  24.269  0.00  0.00    -0.248 OA
BRANCH  26  28
ATOM     28  O   UNL     1       8.633   1.240  25.970  0.00  0.00    -0.479 OA
ATOM     29  H   UNL     1       9.132   1.888  26.519  0.00  0.00    +0.295 HD
ENDBRANCH  26  28
ENDBRANCH  25  26
BRANCH  25  30
ATOM     30  C   UNL     1       8.440   0.749  22.316  0.00  0.00    +0.055 C 
BRANCH  30  31
ATOM     31  C   UNL     1       9.415  -0.059  21.454  0.00  0.00    +0.123 C 
BRANCH  31  32
ATOM     32  C   UNL     1       9.470  -1.515  21.849  0.00  0.00    +0.305 C 
ATOM     33  O   UNL     1       8.561  -2.318  21.709  0.00  0.00    -0.251 OA
BRANCH  32  34
ATOM     34  O   UNL     1      10.667  -1.850  22.387  0.00  0.00    -0.481 OA
ATOM     35  H   UNL     1      11.330  -2.133  21.731  0.00  0.00    +0.295 HD
ENDBRANCH  32  34
ENDBRANCH  31  32
ENDBRANCH  30  31
ENDBRANCH  25  30
ENDBRANCH  24  25
ENDBRANCH  20  24
ENDBRANCH  19  20
ENDBRANCH  18  19
ENDBRANCH  12  18
ENDBRANCH   8   9
ENDBRANCH   7   8
ENDBRANCH   4   7
ENDBRANCH   1   4
BRANCH   1  36
ATOM     36  C   UNL     1       4.016  -3.763  28.641  0.00  0.00    +0.150 C 
BRANCH  36  37
ATOM     37  O   UNL     1       5.088  -3.368  27.770  0.00  0.00    -0.389 OA
ATOM     38  H   UNL     1       4.685  -2.831  27.063  0.00  0.00    +0.210 HD
ENDBRANCH  36  37
BRANCH  36  39
ATOM     39  C   UNL     1       3.671  -2.565  29.542  0.00  0.00    +0.069 C 
BRANCH  39  43
ATOM     40  C   UNL     1       3.863   1.143  27.250  0.00  0.00    +0.031 A 
ATOM     41  C   UNL     1       2.811   0.235  27.082  0.00  0.00    +0.023 A 
ATOM     42  C   UNL     1       2.719  -0.942  27.840  0.00  0.00    +0.005 A 
ATOM     43  C   UNL     1       3.688  -1.248  28.798  0.00  0.00    -0.045 A 
ATOM     44  C   UNL     1       4.707  -0.323  29.026  0.00  0.00    +0.005 A 
ATOM     45  C   UNL     1       4.773   0.854  28.280  0.00  0.00    +0.023 A 
BRANCH  40  48
ATOM     46  C   UNL     1       1.880   3.039  25.549  0.00  0.00    +0.030 C 
ATOM     47  C   UNL     1       3.296   2.562  25.222  0.00  0.00    +0.094 C 
ATOM     48  N   UNL     1       4.026   2.277  26.470  0.00  0.00    -0.309 N 
ATOM     49  C   UNL     1       5.356   2.897  26.448  0.00  0.00    +0.214 C 
ATOM     50  N   UNL     1       5.373   3.741  25.285  0.00  0.00    -0.301 N 
ATOM     51  C   UNL     1       6.492   4.368  24.725  0.00  0.00    +0.137 A 
ATOM     52  C   UNL     1       7.743   4.551  25.518  0.00  0.00    +0.276 A 
ATOM     53  N   UNL     1       8.733   5.246  24.893  0.00  0.00    -0.294 N 
ATOM     54  H   UNL     1       9.560   5.425  25.434  0.00  0.00    +0.172 HD
ATOM     55  C   UNL     1       8.623   5.683  23.615  0.00  0.00    +0.195 A 
ATOM     56  N   UNL     1       7.579   5.474  22.882  0.00  0.00    -0.199 NA
ATOM     57  N   UNL     1       9.691   6.358  23.121  0.00  0.00    -0.329 N 
ATOM     58  H   UNL     1       9.646   6.474  22.115  0.00  0.00    +0.145 HD
ATOM     59  H   UNL     1      10.603   6.087  23.458  0.00  0.00    +0.145 HD
ATOM     60  O   UNL     1       7.900   4.109  26.654  0.00  0.00    -0.266 OA
ATOM     61  C   UNL     1       6.505   4.819  23.439  0.00  0.00    +0.149 A 
ATOM     62  N   UNL     1       5.374   4.581  22.640  0.00  0.00    -0.323 N 
ATOM     63  H   UNL     1       5.632   4.619  21.657  0.00  0.00    +0.148 HD
ATOM     64  C   UNL     1       4.408   3.529  23.039  0.00  0.00    +0.091 C 
ATOM     65  C   UNL     1       3.160   3.617  22.173  0.00  0.00    +0.030 C 
ATOM     66  C   UNL     1       4.100   3.704  24.555  0.00  0.00    +0.115 C 
ENDBRANCH  40  48
ENDBRANCH  39  43
ENDBRANCH  36  39
ENDBRANCH   1  36
TORSDOF 25
ENDMDL
MODEL 9
REMARK VINA RESULT:      -5.7      2.274      5.804
REMARK  Name = 
REMARK  27 active torsions:
REMARK  status: ('A' for Active; 'I' for Inactive)
REMARK    1  A    between atoms: C_1  and  C_2
REMARK    2  A    between atoms: C_6  and  C_8
REMARK    3  A    between atoms: N_14  and  C_15
REMARK    4  A    between atoms: C_18  and  C_19
REMARK    5  A    between atoms: C_19  and  C_20
REMARK    6  A    between atoms: C_20  and  O_22
REMARK    7  A    between atoms: C_20  and  C_23
REMARK    8  A    between atoms: C_23  and  O_25
REMARK    9  A    between atoms: C_23  and  C_26
REMARK   10  A    between atoms: C_26  and  O_28
REMARK   11  A    between atoms: C_26  and  C_29
REMARK   12  A    between atoms: C_29  and  O_30
REMARK   13  A    between atoms: O_30  and  C_31
REMARK   14  A    between atoms: C_34  and  C_36
REMARK   15  A    between atoms: C_36  and  O_37
REMARK   16  A    between atoms: O_37  and  P_38
REMARK   17  A    between atoms: P_38  and  O_39
REMARK   18  A    between atoms: P_38  and  O_41
REMARK   19  A    between atoms: O_41  and  C_42
REMARK   20  A    between atoms: C_42  and  C_44
REMARK   21  A    between atoms: C_42  and  C_49
REMARK   22  A    between atoms: C_44  and  C_45
REMARK   23  A    between atoms: C_45  and  C_46
REMARK   24  A    between atoms: C_46  and  O_47
REMARK   25  A    between atoms: C_49  and  O_50
REMARK   26  A    between atoms: C_52  and  O_54
REMARK   27  A    between atoms: C_55  and  O_57
REMARK                            x       y       z     vdW  Elec       q    Type
REMARK                         _______ _______ _______ _____ _____    ______ ____
ROOT
ATOM      1  C   UNL     1       6.392   4.722  26.827  0.00  0.00    +0.174 C 
ENDROOT
BRANCH   1   2
ATOM      2  O   UNL     1       5.857   6.024  27.095  0.00  0.00    -0.387 OA
ATOM      3  H   UNL     1       5.343   5.981  27.919  0.00  0.00    +0.210 HD
ENDBRANCH   1   2
BRANCH   1   4
ATOM      4  C   UNL     1       7.603   4.835  25.875  0.00  0.00    +0.171 C 
BRANCH   4   5
ATOM      5  O   UNL     1       8.683   5.559  26.494  0.00  0.00    -0.387 OA
ATOM      6  H   UNL     1       9.485   5.283  26.012  0.00  0.00    +0.210 HD
ENDBRANCH   4   5
BRANCH   4   7
ATOM      7  C   UNL     1       7.244   5.531  24.561  0.00  0.00    +0.197 C 
BRANCH   7   8
ATOM      8  O   UNL     1       7.847   4.770  23.502  0.00  0.00    -0.346 OA
BRANCH   8   9
ATOM      9  C   UNL     1       7.885   3.378  23.784  0.00  0.00    +0.282 C 
ATOM     10  C   UNL     1       9.093   2.672  23.154  0.00  0.00    +0.201 C 
ATOM     11  C   UNL     1       8.539   1.332  22.673  0.00  0.00    +0.179 C 
ATOM     12  C   UNL     1       7.055   1.355  23.051  0.00  0.00    +0.179 C 
ATOM     13  O   UNL     1       6.733   2.750  23.206  0.00  0.00    -0.341 OA
BRANCH  11  14
ATOM     14  O   UNL     1       8.699   1.256  21.248  0.00  0.00    -0.386 OA
ATOM     15  H   UNL     1       8.182   1.981  20.847  0.00  0.00    +0.210 HD
ENDBRANCH  11  14
BRANCH  10  16
ATOM     16  O   UNL     1      10.144   2.481  24.104  0.00  0.00    -0.384 OA
ATOM     17  H   UNL     1      10.661   1.713  23.799  0.00  0.00    +0.210 HD
ENDBRANCH  10  16
BRANCH  12  18
ATOM     18  C   UNL     1       6.752   0.599  24.360  0.00  0.00    +0.206 C 
BRANCH  18  19
ATOM     19  O   UNL     1       7.742  -0.403  24.573  0.00  0.00    -0.284 OA
BRANCH  19  20
ATOM     20  P   UNL     1       8.421  -0.514  26.021  0.00  0.00    +0.476 P 
ATOM     21  O   UNL     1       7.573  -0.078  27.165  0.00  0.00    -0.227 OA
BRANCH  20  22
ATOM     22  O   UNL     1       9.727   0.394  25.846  0.00  0.00    -0.302 OA
ATOM     23  H   UNL     1      10.445  -0.112  25.425  0.00  0.00    +0.222 HD
ENDBRANCH  20  22
BRANCH  20  24
ATOM     24  O   UNL     1       9.003  -2.011  26.132  0.00  0.00    -0.272 OA
BRANCH  24  25
ATOM     25  C   UNL     1       8.209  -3.099  25.639  0.00  0.00    +0.239 C 
BRANCH  25  26
ATOM     26  C   UNL     1       8.160  -4.185  26.703  0.00  0.00    +0.335 C 
ATOM     27  O   UNL     1       7.177  -4.425  27.400  0.00  0.00    -0.248 OA
BRANCH  26  28
ATOM     28  O   UNL     1       9.282  -4.947  26.742  0.00  0.00    -0.479 OA
ATOM     29  H   UNL     1       9.843  -4.675  27.503  0.00  0.00    +0.295 HD
ENDBRANCH  26  28
ENDBRANCH  25  26
BRANCH  25  30
ATOM     30  C   UNL     1       8.790  -3.676  24.337  0.00  0.00    +0.055 C 
BRANCH  30  31
ATOM     31  C   UNL     1       9.917  -2.820  23.751  0.00  0.00    +0.123 C 
BRANCH  31  32
ATOM     32  C   UNL     1       9.508  -2.111  22.483  0.00  0.00    +0.305 C 
ATOM     33  O   UNL     1      10.254  -1.463  21.766  0.00  0.00    -0.251 OA
BRANCH  32  34
ATOM     34  O   UNL     1       8.192  -2.274  22.212  0.00  0.00    -0.481 OA
ATOM     35  H   UNL     1       7.987  -2.327  21.260  0.00  0.00    +0.295 HD
ENDBRANCH  32  34
ENDBRANCH  31  32
ENDBRANCH  30  31
ENDBRANCH  25  30
ENDBRANCH  24  25
ENDBRANCH  20  24
ENDBRANCH  19  20
ENDBRANCH  18  19
ENDBRANCH  12  18
ENDBRANCH   8   9
ENDBRANCH   7   8
ENDBRANCH   4   7
ENDBRANCH   1   4
BRANCH   1  36
ATOM     36  C   UNL     1       6.809   3.982  28.118  0.00  0.00    +0.150 C 
BRANCH  36  37
ATOM     37  O   UNL     1       7.544   2.804  27.750  0.00  0.00    -0.389 OA
ATOM     38  H   UNL     1       8.464   2.953  28.037  0.00  0.00    +0.210 HD
ENDBRANCH  36  37
BRANCH  36  39
ATOM     39  C   UNL     1       5.610   3.545  28.974  0.00  0.00    +0.069 C 
BRANCH  39  43
ATOM     40  C   UNL     1       4.074  -0.284  27.549  0.00  0.00    +0.031 A 
ATOM     41  C   UNL     1       4.629  -0.150  28.828  0.00  0.00    +0.023 A 
ATOM     42  C   UNL     1       5.092   1.084  29.311  0.00  0.00    +0.005 A 
ATOM     43  C   UNL     1       5.011   2.232  28.519  0.00  0.00    -0.045 A 
ATOM     44  C   UNL     1       4.401   2.131  27.269  0.00  0.00    +0.005 A 
ATOM     45  C   UNL     1       3.925   0.902  26.812  0.00  0.00    +0.023 A 
BRANCH  40  48
ATOM     46  C   UNL     1       1.796  -2.452  28.273  0.00  0.00    +0.030 C 
ATOM     47  C   UNL     1       3.232  -2.666  27.793  0.00  0.00    +0.094 C 
ATOM     48  N   UNL     1       3.675  -1.497  27.013  0.00  0.00    -0.309 N 
ATOM     49  C   UNL     1       4.303  -1.918  25.755  0.00  0.00    +0.214 C 
ATOM     50  N   UNL     1       4.059  -3.332  25.653  0.00  0.00    -0.301 N 
ATOM     51  C   UNL     1       4.645  -4.216  24.739  0.00  0.00    +0.137 A 
ATOM     52  C   UNL     1       5.297  -3.709  23.495  0.00  0.00    +0.276 A 
ATOM     53  N   UNL     1       5.758  -4.668  22.647  0.00  0.00    -0.294 N 
ATOM     54  H   UNL     1       6.150  -4.345  21.780  0.00  0.00    +0.172 HD
ATOM     55  C   UNL     1       5.696  -5.991  22.937  0.00  0.00    +0.195 A 
ATOM     56  N   UNL     1       5.202  -6.452  24.040  0.00  0.00    -0.199 NA
ATOM     57  N   UNL     1       6.198  -6.832  21.999  0.00  0.00    -0.329 N 
ATOM     58  H   UNL     1       6.321  -7.776  22.349  0.00  0.00    +0.145 HD
ATOM     59  H   UNL     1       6.977  -6.498  21.451  0.00  0.00    +0.145 HD
ATOM     60  O   UNL     1       5.431  -2.516  23.234  0.00  0.00    -0.266 OA
ATOM     61  C   UNL     1       4.669  -5.562  24.943  0.00  0.00    +0.149 A 
ATOM     62  N   UNL     1       4.142  -6.061  26.147  0.00  0.00    -0.323 N 
ATOM     63  H   UNL     1       4.536  -6.978  26.342  0.00  0.00    +0.148 HD
ATOM     64  C   UNL     1       3.970  -5.146  27.301  0.00  0.00    +0.091 C 
ATOM     65  C   UNL     1       3.170  -5.838  28.395  0.00  0.00    +0.030 C 
ATOM     66  C   UNL     1       3.287  -3.844  26.791  0.00  0.00    +0.115 C 
ENDBRANCH  40  48
ENDBRANCH  39  43
ENDBRANCH  36  39
ENDBRANCH   1  36
TORSDOF 25
ENDMDL
