MODEL 1
REMARK VINA RESULT:      -4.6      0.000      0.000
REMARK  Name = 
REMARK  5 active torsions:
REMARK  status: ('A' for Active; 'I' for Inactive)
REMARK    1  A    between atoms: O_1  and  C_2
REMARK    2  A    between atoms: C_2  and  C_3
REMARK    3  A    between atoms: C_6  and  O_8
REMARK    4  A    between atoms: C_9  and  O_11
REMARK    5  A    between atoms: C_12  and  O_14
REMARK                            x       y       z     vdW  Elec       q    Type
REMARK                         _______ _______ _______ _____ _____    ______ ____
ROOT
ATOM      1  C   UNL     1       8.664  -3.107  23.825  0.00  0.00    +0.149 C 
ATOM      2  O   UNL     1       9.795  -3.784  24.384  0.00  0.00    -0.343 OA
ATOM      3  C   UNL     1       9.415  -4.939  25.126  0.00  0.00    +0.279 C 
ATOM      4  C   UNL     1       8.534  -4.536  26.323  0.00  0.00    +0.198 C 
ATOM      5  C   UNL     1       7.328  -3.728  25.839  0.00  0.00    +0.150 C 
ATOM      6  C   UNL     1       7.772  -2.572  24.951  0.00  0.00    +0.068 C 
ENDROOT
BRANCH   3   7
ATOM      7  O   UNL     1      10.586  -5.603  25.592  0.00  0.00    -0.365 OA
ATOM      8  H   UNL     1      10.471  -5.696  26.556  0.00  0.00    +0.213 HD
ENDBRANCH   3   7
BRANCH   4   9
ATOM      9  O   UNL     1       8.093  -5.705  27.028  0.00  0.00    -0.384 OA
ATOM     10  H   UNL     1       8.912  -6.187  27.258  0.00  0.00    +0.210 HD
ENDBRANCH   4   9
BRANCH   5  11
ATOM     11  O   UNL     1       6.615  -3.249  26.984  0.00  0.00    -0.389 OA
ATOM     12  H   UNL     1       5.816  -3.797  27.086  0.00  0.00    +0.210 HD
ENDBRANCH   5  11
BRANCH   1  13
ATOM     13  C   UNL     1       9.168  -1.982  22.919  0.00  0.00    +0.187 C 
BRANCH  13  14
ATOM     14  O   UNL     1      10.537  -2.178  22.589  0.00  0.00    -0.392 OA
ATOM     15  H   UNL     1      10.615  -2.035  21.628  0.00  0.00    +0.210 HD
ENDBRANCH  13  14
ENDBRANCH   1  13
TORSDOF 5
ENDMDL
MODEL 2
REMARK VINA RESULT:      -4.5      2.458      4.278
REMARK  Name = 
REMARK  5 active torsions:
REMARK  status: ('A' for Active; 'I' for Inactive)
REMARK    1  A    between atoms: O_1  and  C_2
REMARK    2  A    between atoms: C_2  and  C_3
REMARK    3  A    between atoms: C_6  and  O_8
REMARK    4  A    between atoms: C_9  and  O_11
REMARK    5  A    between atoms: C_12  and  O_14
REMARK                            x       y       z     vdW  Elec       q    Type
REMARK                         _______ _______ _______ _____ _____    ______ ____
ROOT
ATOM      1  C   UNL     1       5.626  -5.371  25.194  0.00  0.00    +0.149 C 
ATOM      2  O   UNL     1       6.018  -6.185  26.304  0.00  0.00    -0.343 OA
ATOM      3  C   UNL     1       7.033  -5.567  27.090  0.00  0.00    +0.279 C 
ATOM      4  C   UNL     1       8.307  -5.362  26.250  0.00  0.00    +0.198 C 
ATOM      5  C   UNL     1       7.979  -4.566  24.984  0.00  0.00    +0.150 C 
ATOM      6  C   UNL     1       6.810  -5.195  24.237  0.00  0.00    +0.068 C 
ENDROOT
BRANCH   3   7
ATOM      7  O   UNL     1       7.325  -6.393  28.213  0.00  0.00    -0.365 OA
ATOM      8  H   UNL     1       7.030  -5.889  28.995  0.00  0.00    +0.213 HD
ENDBRANCH   3   7
BRANCH   4   9
ATOM      9  O   UNL     1       9.303  -4.675  27.020  0.00  0.00    -0.384 OA
ATOM     10  H   UNL     1       9.272  -3.749  26.706  0.00  0.00    +0.210 HD
ENDBRANCH   4   9
BRANCH   5  11
ATOM     11  O   UNL     1       9.149  -4.521  24.162  0.00  0.00    -0.389 OA
ATOM     12  H   UNL     1       9.355  -5.434  23.889  0.00  0.00    +0.210 HD
ENDBRANCH   5  11
BRANCH   1  13
ATOM     13  C   UNL     1       4.432  -6.031  24.502  0.00  0.00    +0.187 C 
BRANCH  13  14
ATOM     14  O   UNL     1       4.755  -7.358  24.102  0.00  0.00    -0.392 OA
ATOM     15  H   UNL     1       5.281  -7.282  23.285  0.00  0.00    +0.210 HD
ENDBRANCH  13  14
ENDBRANCH   1  13
TORSDOF 5
ENDMDL
MODEL 3
REMARK VINA RESULT:      -4.4      3.801      5.555
REMARK  Name = 
REMARK  5 active torsions:
REMARK  status: ('A' for Active; 'I' for Inactive)
REMARK    1  A    between atoms: O_1  and  C_2
REMARK    2  A    between atoms: C_2  and  C_3
REMARK    3  A    between atoms: C_6  and  O_8
REMARK    4  A    between atoms: C_9  and  O_11
REMARK    5  A    between atoms: C_12  and  O_14
REMARK                            x       y       z     vdW  Elec       q    Type
REMARK                         _______ _______ _______ _____ _____    ______ ____
ROOT
ATOM      1  C   UNL     1      10.509   2.001  23.551  0.00  0.00    +0.149 C 
ATOM      2  O   UNL     1       9.840   1.494  24.710  0.00  0.00    -0.343 OA
ATOM      3  C   UNL     1      10.133   0.119  24.939  0.00  0.00    +0.279 C 
ATOM      4  C   UNL     1       9.634  -0.736  23.760  0.00  0.00    +0.198 C 
ATOM      5  C   UNL     1      10.230  -0.221  22.448  0.00  0.00    +0.150 C 
ATOM      6  C   UNL     1       9.997   1.278  22.300  0.00  0.00    +0.068 C 
ENDROOT
BRANCH   3   7
ATOM      7  O   UNL     1       9.497  -0.302  26.143  0.00  0.00    -0.365 OA
ATOM      8  H   UNL     1      10.165  -0.196  26.845  0.00  0.00    +0.213 HD
ENDBRANCH   3   7
BRANCH   4   9
ATOM      9  O   UNL     1       9.993  -2.111  23.958  0.00  0.00    -0.384 OA
ATOM     10  H   UNL     1      10.770  -2.255  23.382  0.00  0.00    +0.210 HD
ENDBRANCH   4   9
BRANCH   5  11
ATOM     11  O   UNL     1       9.634  -0.941  21.365  0.00  0.00    -0.389 OA
ATOM     12  H   UNL     1       9.207  -1.734  21.737  0.00  0.00    +0.210 HD
ENDBRANCH   5  11
BRANCH   1  13
ATOM     13  C   UNL     1      10.269   3.510  23.470  0.00  0.00    +0.187 C 
BRANCH  13  14
ATOM     14  O   UNL     1      11.433   4.178  22.999  0.00  0.00    -0.392 OA
ATOM     15  H   UNL     1      11.533   4.980  23.543  0.00  0.00    +0.210 HD
ENDBRANCH  13  14
ENDBRANCH   1  13
TORSDOF 5
ENDMDL
MODEL 4
REMARK VINA RESULT:      -4.4      2.109      2.312
REMARK  Name = 
REMARK  5 active torsions:
REMARK  status: ('A' for Active; 'I' for Inactive)
REMARK    1  A    between atoms: O_1  and  C_2
REMARK    2  A    between atoms: C_2  and  C_3
REMARK    3  A    between atoms: C_6  and  O_8
REMARK    4  A    between atoms: C_9  and  O_11
REMARK    5  A    between atoms: C_12  and  O_14
REMARK                            x       y       z     vdW  Elec       q    Type
REMARK                         _______ _______ _______ _____ _____    ______ ____
ROOT
ATOM      1  C   UNL     1       7.242  -4.967  23.441  0.00  0.00    +0.149 C 
ATOM      2  O   UNL     1       8.607  -4.878  23.864  0.00  0.00    -0.343 OA
ATOM      3  C   UNL     1       8.848  -5.622  25.055  0.00  0.00    +0.279 C 
ATOM      4  C   UNL     1       8.012  -5.055  26.216  0.00  0.00    +0.198 C 
ATOM      5  C   UNL     1       6.530  -5.027  25.832  0.00  0.00    +0.150 C 
ATOM      6  C   UNL     1       6.331  -4.326  24.494  0.00  0.00    +0.068 C 
ENDROOT
BRANCH   3   7
ATOM      7  O   UNL     1      10.233  -5.552  25.380  0.00  0.00    -0.365 OA
ATOM      8  H   UNL     1      10.271  -5.370  26.337  0.00  0.00    +0.213 HD
ENDBRANCH   3   7
BRANCH   4   9
ATOM      9  O   UNL     1       8.200  -5.848  27.396  0.00  0.00    -0.384 OA
ATOM     10  H   UNL     1       8.720  -6.622  27.101  0.00  0.00    +0.210 HD
ENDBRANCH   4   9
BRANCH   5  11
ATOM     11  O   UNL     1       5.805  -4.362  26.871  0.00  0.00    -0.389 OA
ATOM     12  H   UNL     1       5.065  -3.883  26.456  0.00  0.00    +0.210 HD
ENDBRANCH   5  11
BRANCH   1  13
ATOM     13  C   UNL     1       7.107  -4.278  22.081  0.00  0.00    +0.187 C 
BRANCH  13  14
ATOM     14  O   UNL     1       5.815  -4.502  21.532  0.00  0.00    -0.392 OA
ATOM     15  H   UNL     1       5.945  -4.710  20.589  0.00  0.00    +0.210 HD
ENDBRANCH  13  14
ENDBRANCH   1  13
TORSDOF 5
ENDMDL
MODEL 5
REMARK VINA RESULT:      -4.4      3.279      4.282
REMARK  Name = 
REMARK  5 active torsions:
REMARK  status: ('A' for Active; 'I' for Inactive)
REMARK    1  A    between atoms: O_1  and  C_2
REMARK    2  A    between atoms: C_2  and  C_3
REMARK    3  A    between atoms: C_6  and  O_8
REMARK    4  A    between atoms: C_9  and  O_11
REMARK    5  A    between atoms: C_12  and  O_14
REMARK                            x       y       z     vdW  Elec       q    Type
REMARK                         _______ _______ _______ _____ _____    ______ ____
ROOT
ATOM      1  C   UNL     1       8.272  -4.548  23.956  0.00  0.00    +0.149 C 
ATOM      2  O   UNL     1       7.403  -5.604  23.533  0.00  0.00    -0.343 OA
ATOM      3  C   UNL     1       6.920  -5.403  22.208  0.00  0.00    +0.279 C 
ATOM      4  C   UNL     1       6.080  -4.115  22.138  0.00  0.00    +0.198 C 
ATOM      5  C   UNL     1       6.895  -2.926  22.651  0.00  0.00    +0.150 C 
ATOM      6  C   UNL     1       7.492  -3.230  24.019  0.00  0.00    +0.068 C 
ENDROOT
BRANCH   3   7
ATOM      7  O   UNL     1       6.124  -6.520  21.824  0.00  0.00    -0.365 OA
ATOM      8  H   UNL     1       5.530  -6.692  22.578  0.00  0.00    +0.213 HD
ENDBRANCH   3   7
BRANCH   4   9
ATOM      9  O   UNL     1       5.654  -3.875  20.788  0.00  0.00    -0.384 OA
ATOM     10  H   UNL     1       6.242  -4.427  20.235  0.00  0.00    +0.210 HD
ENDBRANCH   4   9
BRANCH   5  11
ATOM     11  O   UNL     1       6.039  -1.781  22.708  0.00  0.00    -0.389 OA
ATOM     12  H   UNL     1       6.462  -1.069  22.194  0.00  0.00    +0.210 HD
ENDBRANCH   5  11
BRANCH   1  13
ATOM     13  C   UNL     1       8.867  -4.920  25.316  0.00  0.00    +0.187 C 
BRANCH  13  14
ATOM     14  O   UNL     1       9.955  -5.822  25.158  0.00  0.00    -0.392 OA
ATOM     15  H   UNL     1       9.738  -6.614  25.682  0.00  0.00    +0.210 HD
ENDBRANCH  13  14
ENDBRANCH   1  13
TORSDOF 5
ENDMDL
MODEL 6
REMARK VINA RESULT:      -4.4      1.707      2.741
REMARK  Name = 
REMARK  5 active torsions:
REMARK  status: ('A' for Active; 'I' for Inactive)
REMARK    1  A    between atoms: O_1  and  C_2
REMARK    2  A    between atoms: C_2  and  C_3
REMARK    3  A    between atoms: C_6  and  O_8
REMARK    4  A    between atoms: C_9  and  O_11
REMARK    5  A    between atoms: C_12  and  O_14
REMARK                            x       y       z     vdW  Elec       q    Type
REMARK                         _______ _______ _______ _____ _____    ______ ____
ROOT
ATOM      1  C   UNL     1       6.621  -3.691  24.663  0.00  0.00    +0.149 C 
ATOM      2  O   UNL     1       7.877  -3.049  24.421  0.00  0.00    -0.343 OA
ATOM      3  C   UNL     1       8.958  -3.978  24.396  0.00  0.00    +0.279 C 
ATOM      4  C   UNL     1       9.097  -4.669  25.765  0.00  0.00    +0.198 C 
ATOM      5  C   UNL     1       7.771  -5.323  26.160  0.00  0.00    +0.150 C 
ATOM      6  C   UNL     1       6.624  -4.325  26.058  0.00  0.00    +0.068 C 
ENDROOT
BRANCH   3   7
ATOM      7  O   UNL     1      10.163  -3.287  24.080  0.00  0.00    -0.365 OA
ATOM      8  H   UNL     1      10.216  -2.546  24.712  0.00  0.00    +0.213 HD
ENDBRANCH   3   7
BRANCH   4   9
ATOM      9  O   UNL     1      10.138  -5.655  25.718  0.00  0.00    -0.384 OA
ATOM     10  H   UNL     1      10.009  -6.197  26.521  0.00  0.00    +0.210 HD
ENDBRANCH   4   9
BRANCH   5  11
ATOM     11  O   UNL     1       7.894  -5.826  27.494  0.00  0.00    -0.389 OA
ATOM     12  H   UNL     1       7.541  -5.150  28.100  0.00  0.00    +0.210 HD
ENDBRANCH   5  11
BRANCH   1  13
ATOM     13  C   UNL     1       5.506  -2.653  24.515  0.00  0.00    +0.187 C 
BRANCH  13  14
ATOM     14  O   UNL     1       5.739  -1.825  23.382  0.00  0.00    -0.392 OA
ATOM     15  H   UNL     1       6.663  -1.974  23.113  0.00  0.00    +0.210 HD
ENDBRANCH  13  14
ENDBRANCH   1  13
TORSDOF 5
ENDMDL
MODEL 7
REMARK VINA RESULT:      -4.3      2.046      4.310
REMARK  Name = 
REMARK  5 active torsions:
REMARK  status: ('A' for Active; 'I' for Inactive)
REMARK    1  A    between atoms: O_1  and  C_2
REMARK    2  A    between atoms: C_2  and  C_3
REMARK    3  A    between atoms: C_6  and  O_8
REMARK    4  A    between atoms: C_9  and  O_11
REMARK    5  A    between atoms: C_12  and  O_14
REMARK                            x       y       z     vdW  Elec       q    Type
REMARK                         _______ _______ _______ _____ _____    ______ ____
ROOT
ATOM      1  C   UNL     1       9.510  -3.210  24.462  0.00  0.00    +0.149 C 
ATOM      2  O   UNL     1       9.436  -2.862  23.075  0.00  0.00    -0.343 OA
ATOM      3  C   UNL     1      10.206  -1.702  22.772  0.00  0.00    +0.279 C 
ATOM      4  C   UNL     1       9.660  -0.485  23.539  0.00  0.00    +0.198 C 
ATOM      5  C   UNL     1       9.618  -0.784  25.039  0.00  0.00    +0.150 C 
ATOM      6  C   UNL     1       8.888  -2.094  25.309  0.00  0.00    +0.068 C 
ENDROOT
BRANCH   3   7
ATOM      7  O   UNL     1      10.148  -1.454  21.370  0.00  0.00    -0.365 OA
ATOM      8  H   UNL     1      10.540  -2.240  20.947  0.00  0.00    +0.213 HD
ENDBRANCH   3   7
BRANCH   4   9
ATOM      9  O   UNL     1      10.479   0.666  23.289  0.00  0.00    -0.384 OA
ATOM     10  H   UNL     1      10.407   1.209  24.100  0.00  0.00    +0.210 HD
ENDBRANCH   4   9
BRANCH   5  11
ATOM     11  O   UNL     1       8.973   0.307  25.702  0.00  0.00    -0.389 OA
ATOM     12  H   UNL     1       8.384  -0.066  26.382  0.00  0.00    +0.210 HD
ENDBRANCH   5  11
BRANCH   1  13
ATOM     13  C   UNL     1       8.792  -4.545  24.669  0.00  0.00    +0.187 C 
BRANCH  13  14
ATOM     14  O   UNL     1       9.730  -5.609  24.768  0.00  0.00    -0.392 OA
ATOM     15  H   UNL     1       9.712  -5.911  25.693  0.00  0.00    +0.210 HD
ENDBRANCH  13  14
ENDBRANCH   1  13
TORSDOF 5
ENDMDL
MODEL 8
REMARK VINA RESULT:      -4.3      3.680      6.105
REMARK  Name = 
REMARK  5 active torsions:
REMARK  status: ('A' for Active; 'I' for Inactive)
REMARK    1  A    between atoms: O_1  and  C_2
REMARK    2  A    between atoms: C_2  and  C_3
REMARK    3  A    between atoms: C_6  and  O_8
REMARK    4  A    between atoms: C_9  and  O_11
REMARK    5  A    between atoms: C_12  and  O_14
REMARK                            x       y       z     vdW  Elec       q    Type
REMARK                         _______ _______ _______ _____ _____    ______ ____
ROOT
ATOM      1  C   UNL     1       9.501  -0.008  24.910  0.00  0.00    +0.149 C 
ATOM      2  O   UNL     1       9.330  -0.608  23.621  0.00  0.00    -0.343 OA
ATOM      3  C   UNL     1      10.050   0.087  22.607  0.00  0.00    +0.279 C 
ATOM      4  C   UNL     1       9.526   1.527  22.472  0.00  0.00    +0.198 C 
ATOM      5  C   UNL     1       9.588   2.238  23.826  0.00  0.00    +0.150 C 
ATOM      6  C   UNL     1       8.909   1.405  24.906  0.00  0.00    +0.068 C 
ENDROOT
BRANCH   3   7
ATOM      7  O   UNL     1       9.897  -0.600  21.369  0.00  0.00    -0.365 OA
ATOM      8  H   UNL     1       9.249  -1.309  21.538  0.00  0.00    +0.213 HD
ENDBRANCH   3   7
BRANCH   4   9
ATOM      9  O   UNL     1      10.299   2.248  21.502  0.00  0.00    -0.384 OA
ATOM     10  H   UNL     1      10.537   1.584  20.824  0.00  0.00    +0.210 HD
ENDBRANCH   4   9
BRANCH   5  11
ATOM     11  O   UNL     1       8.960   3.518  23.696  0.00  0.00    -0.389 OA
ATOM     12  H   UNL     1       8.754   3.651  22.753  0.00  0.00    +0.210 HD
ENDBRANCH   5  11
BRANCH   1  13
ATOM     13  C   UNL     1       8.830  -0.901  25.956  0.00  0.00    +0.187 C 
BRANCH  13  14
ATOM     14  O   UNL     1       9.198  -0.497  27.269  0.00  0.00    -0.392 OA
ATOM     15  H   UNL     1       9.120   0.474  27.294  0.00  0.00    +0.210 HD
ENDBRANCH  13  14
ENDBRANCH   1  13
TORSDOF 5
ENDMDL
MODEL 9
REMARK VINA RESULT:      -4.3      1.721      3.869
REMARK  Name = 
REMARK  5 active torsions:
REMARK  status: ('A' for Active; 'I' for Inactive)
REMARK    1  A    between atoms: O_1  and  C_2
REMARK    2  A    between atoms: C_2  and  C_3
REMARK    3  A    between atoms: C_6  and  O_8
REMARK    4  A    between atoms: C_9  and  O_11
REMARK    5  A    between atoms: C_12  and  O_14
REMARK                            x       y       z     vdW  Elec       q    Type
REMARK                         _______ _______ _______ _____ _____    ______ ____
ROOT
ATOM      1  C   UNL     1       8.790  -3.638  25.033  0.00  0.00    +0.149 C 
ATOM      2  O   UNL     1       9.775  -3.425  24.015  0.00  0.00    -0.343 OA
ATOM      3  C   UNL     1       9.714  -2.107  23.478  0.00  0.00    +0.279 C 
ATOM      4  C   UNL     1       8.353  -1.871  22.799  0.00  0.00    +0.198 C 
ATOM      5  C   UNL     1       7.217  -2.154  23.786  0.00  0.00    +0.150 C 
ATOM      6  C   UNL     1       7.387  -3.526  24.426  0.00  0.00    +0.068 C 
ENDROOT
BRANCH   3   7
ATOM      7  O   UNL     1      10.762  -1.940  22.527  0.00  0.00    -0.365 OA
ATOM      8  H   UNL     1      10.324  -1.899  21.657  0.00  0.00    +0.213 HD
ENDBRANCH   3   7
BRANCH   4   9
ATOM      9  O   UNL     1       8.265  -0.521  22.322  0.00  0.00    -0.384 OA
ATOM     10  H   UNL     1       9.082  -0.382  21.803  0.00  0.00    +0.210 HD
ENDBRANCH   4   9
BRANCH   5  11
ATOM     11  O   UNL     1       5.974  -2.067  23.083  0.00  0.00    -0.389 OA
ATOM     12  H   UNL     1       5.952  -1.208  22.625  0.00  0.00    +0.210 HD
ENDBRANCH   5  11
BRANCH   1  13
ATOM     13  C   UNL     1       9.028  -5.012  25.662  0.00  0.00    +0.187 C 
BRANCH  13  14
ATOM     14  O   UNL     1      10.312  -5.510  25.309  0.00  0.00    -0.392 OA
ATOM     15  H   UNL     1      10.681  -4.891  24.654  0.00  0.00    +0.210 HD
ENDBRANCH  13  14
ENDBRANCH   1  13
TORSDOF 5
ENDMDL
