MODEL 1
REMARK VINA RESULT:      -7.1      0.000      0.000
REMARK  Name = 
REMARK  2 active torsions:
REMARK  status: ('A' for Active; 'I' for Inactive)
REMARK    1  A    between atoms: C_2  and  C_4
REMARK    2  A    between atoms: C_11  and  C_14
REMARK                            x       y       z     vdW  Elec       q    Type
REMARK                         _______ _______ _______ _____ _____    ______ ____
ROOT
ATOM      1  C   UNL     1       5.931  -5.593  25.852  0.00  0.00    +0.064 A 
ATOM      2  C   UNL     1       5.800  -4.774  24.711  0.00  0.00    +0.102 A 
ATOM      3  C   UNL     1       4.770  -5.103  23.794  0.00  0.00    +0.090 A 
ATOM      4  N   UNL     1       4.549  -4.383  22.683  0.00  0.00    -0.251 NA
ATOM      5  C   UNL     1       5.376  -3.339  22.458  0.00  0.00    +0.139 A 
ATOM      6  C   UNL     1       6.409  -2.988  23.312  0.00  0.00    +0.090 A 
ATOM      7  C   UNL     1       3.949  -6.199  24.013  0.00  0.00    +0.030 A 
ATOM      8  C   UNL     1       4.108  -7.016  25.126  0.00  0.00    +0.003 A 
ATOM      9  N   UNL     1       6.615  -3.705  24.448  0.00  0.00    -0.243 NA
ATOM     10  C   UNL     1       5.097  -6.711  26.047  0.00  0.00    +0.015 A 
ENDROOT
BRANCH   6  11
ATOM     11  C   UNL     1       7.356  -1.893  23.022  0.00  0.00    +0.002 A 
ATOM     12  C   UNL     1       8.510  -2.118  22.247  0.00  0.00    +0.011 A 
ATOM     13  C   UNL     1       9.369  -1.070  21.892  0.00  0.00    +0.020 A 
ATOM     14  C   UNL     1       9.091   0.225  22.315  0.00  0.00    +0.041 A 
ATOM     15 CL   UNL     1      10.119   1.523  21.848  0.00  0.00    -0.084 Cl
ATOM     16  C   UNL     1       7.978   0.476  23.110  0.00  0.00    +0.020 A 
ATOM     17  C   UNL     1       7.124  -0.576  23.465  0.00  0.00    +0.011 A 
ENDBRANCH   6  11
BRANCH   1  21
ATOM     18  N   UNL     1       8.238  -5.643  26.682  0.00  0.00    -0.325 N 
ATOM     19  H   UNL     1       8.521  -6.056  25.796  0.00  0.00    +0.145 HD
ATOM     20  H   UNL     1       8.931  -5.446  27.388  0.00  0.00    +0.145 HD
ATOM     21  C   UNL     1       6.934  -5.332  26.926  0.00  0.00    +0.244 C 
ATOM     22  O   UNL     1       6.611  -4.831  27.998  0.00  0.00    -0.270 OA
ENDBRANCH   1  21
TORSDOF 2
ENDMDL
MODEL 2
REMARK VINA RESULT:      -6.7      1.954      3.045
REMARK  Name = 
REMARK  2 active torsions:
REMARK  status: ('A' for Active; 'I' for Inactive)
REMARK    1  A    between atoms: C_2  and  C_4
REMARK    2  A    between atoms: C_11  and  C_14
REMARK                            x       y       z     vdW  Elec       q    Type
REMARK                         _______ _______ _______ _____ _____    ______ ____
ROOT
ATOM      1  C   UNL     1       5.322  -5.731  24.511  0.00  0.00    +0.064 A 
ATOM      2  C   UNL     1       6.293  -4.871  25.065  0.00  0.00    +0.102 A 
ATOM      3  C   UNL     1       6.578  -5.020  26.446  0.00  0.00    +0.090 A 
ATOM      4  N   UNL     1       7.494  -4.263  27.070  0.00  0.00    -0.251 NA
ATOM      5  C   UNL     1       8.118  -3.325  26.327  0.00  0.00    +0.139 A 
ATOM      6  C   UNL     1       7.863  -3.124  24.980  0.00  0.00    +0.090 A 
ATOM      7  C   UNL     1       5.904  -5.961  27.210  0.00  0.00    +0.030 A 
ATOM      8  C   UNL     1       4.928  -6.782  26.660  0.00  0.00    +0.003 A 
ATOM      9  N   UNL     1       6.952  -3.908  24.345  0.00  0.00    -0.243 NA
ATOM     10  C   UNL     1       4.639  -6.668  25.309  0.00  0.00    +0.015 A 
ENDROOT
BRANCH   6  11
ATOM     11  C   UNL     1       8.493  -2.047  24.192  0.00  0.00    +0.002 A 
ATOM     12  C   UNL     1       8.069  -1.765  22.879  0.00  0.00    +0.011 A 
ATOM     13  C   UNL     1       8.598  -0.689  22.155  0.00  0.00    +0.020 A 
ATOM     14  C   UNL     1       9.571   0.121  22.731  0.00  0.00    +0.041 A 
ATOM     15 CL   UNL     1      10.194   1.469  21.862  0.00  0.00    -0.084 Cl
ATOM     16  C   UNL     1      10.035  -0.150  24.013  0.00  0.00    +0.020 A 
ATOM     17  C   UNL     1       9.506  -1.229  24.732  0.00  0.00    +0.011 A 
ENDBRANCH   6  11
BRANCH   1  21
ATOM     18  N   UNL     1       5.822  -6.300  22.179  0.00  0.00    -0.325 N 
ATOM     19  H   UNL     1       6.694  -6.719  22.494  0.00  0.00    +0.145 HD
ATOM     20  H   UNL     1       5.577  -6.326  21.200  0.00  0.00    +0.145 HD
ATOM     21  C   UNL     1       4.962  -5.720  23.063  0.00  0.00    +0.244 C 
ATOM     22  O   UNL     1       3.912  -5.225  22.666  0.00  0.00    -0.270 OA
ENDBRANCH   1  21
TORSDOF 2
ENDMDL
MODEL 3
REMARK VINA RESULT:      -6.7      3.556      6.277
REMARK  Name = 
REMARK  2 active torsions:
REMARK  status: ('A' for Active; 'I' for Inactive)
REMARK    1  A    between atoms: C_2  and  C_4
REMARK    2  A    between atoms: C_11  and  C_14
REMARK                            x       y       z     vdW  Elec       q    Type
REMARK                         _______ _______ _______ _____ _____    ______ ____
ROOT
ATOM      1  C   UNL     1       8.915  -3.833  24.525  0.00  0.00    +0.064 A 
ATOM      2  C   UNL     1       7.720  -3.981  23.791  0.00  0.00    +0.102 A 
ATOM      3  C   UNL     1       7.533  -3.122  22.678  0.00  0.00    +0.090 A 
ATOM      4  N   UNL     1       6.439  -3.186  21.904  0.00  0.00    -0.251 NA
ATOM      5  C   UNL     1       5.500  -4.094  22.250  0.00  0.00    +0.139 A 
ATOM      6  C   UNL     1       5.624  -4.943  23.338  0.00  0.00    +0.090 A 
ATOM      7  C   UNL     1       8.485  -2.167  22.353  0.00  0.00    +0.030 A 
ATOM      8  C   UNL     1       9.645  -2.011  23.101  0.00  0.00    +0.003 A 
ATOM      9  N   UNL     1       6.744  -4.890  24.106  0.00  0.00    -0.243 NA
ATOM     10  C   UNL     1       9.861  -2.846  24.186  0.00  0.00    +0.015 A 
ENDROOT
BRANCH   6  11
ATOM     11  C   UNL     1       4.562  -5.878  23.755  0.00  0.00    +0.002 A 
ATOM     12  C   UNL     1       4.679  -6.626  24.943  0.00  0.00    +0.011 A 
ATOM     13  C   UNL     1       3.639  -7.450  25.394  0.00  0.00    +0.020 A 
ATOM     14  C   UNL     1       2.464  -7.546  24.657  0.00  0.00    +0.041 A 
ATOM     15 CL   UNL     1       1.168  -8.523  25.228  0.00  0.00    -0.084 Cl
ATOM     16  C   UNL     1       2.329  -6.847  23.463  0.00  0.00    +0.020 A 
ATOM     17  C   UNL     1       3.372  -6.027  23.014  0.00  0.00    +0.011 A 
ENDBRANCH   6  11
BRANCH   1  21
ATOM     18  N   UNL     1       9.775  -5.943  25.432  0.00  0.00    -0.325 N 
ATOM     19  H   UNL     1       9.899  -6.274  24.478  0.00  0.00    +0.145 HD
ATOM     20  H   UNL     1      10.043  -6.531  26.207  0.00  0.00    +0.145 HD
ATOM     21  C   UNL     1       9.267  -4.704  25.684  0.00  0.00    +0.244 C 
ATOM     22  O   UNL     1       9.128  -4.320  26.841  0.00  0.00    -0.270 OA
ENDBRANCH   1  21
TORSDOF 2
ENDMDL
MODEL 4
REMARK VINA RESULT:      -6.6      3.691      6.853
REMARK  Name = 
REMARK  2 active torsions:
REMARK  status: ('A' for Active; 'I' for Inactive)
REMARK    1  A    between atoms: C_2  and  C_4
REMARK    2  A    between atoms: C_11  and  C_14
REMARK                            x       y       z     vdW  Elec       q    Type
REMARK                         _______ _______ _______ _____ _____    ______ ____
ROOT
ATOM      1  C   UNL     1       8.663   1.546  24.526  0.00  0.00    +0.064 A 
ATOM      2  C   UNL     1       8.748   0.473  23.613  0.00  0.00    +0.102 A 
ATOM      3  C   UNL     1       9.578   0.654  22.478  0.00  0.00    +0.090 A 
ATOM      4  N   UNL     1       9.741  -0.306  21.554  0.00  0.00    -0.251 NA
ATOM      5  C   UNL     1       9.053  -1.453  21.739  0.00  0.00    +0.139 A 
ATOM      6  C   UNL     1       8.215  -1.673  22.820  0.00  0.00    +0.090 A 
ATOM      7  C   UNL     1      10.251   1.850  22.276  0.00  0.00    +0.030 A 
ATOM      8  C   UNL     1      10.135   2.910  23.166  0.00  0.00    +0.003 A 
ATOM      9  N   UNL     1       8.069  -0.708  23.766  0.00  0.00    -0.243 NA
ATOM     10  C   UNL     1       9.342   2.757  24.293  0.00  0.00    +0.015 A 
ENDROOT
BRANCH   6  11
ATOM     11  C   UNL     1       7.407  -2.898  22.977  0.00  0.00    +0.002 A 
ATOM     12  C   UNL     1       7.936  -4.041  23.609  0.00  0.00    +0.011 A 
ATOM     13  C   UNL     1       7.151  -5.177  23.842  0.00  0.00    +0.020 A 
ATOM     14  C   UNL     1       5.821  -5.194  23.437  0.00  0.00    +0.041 A 
ATOM     15 CL   UNL     1       4.841  -6.571  23.759  0.00  0.00    -0.084 Cl
ATOM     16  C   UNL     1       5.277  -4.096  22.782  0.00  0.00    +0.020 A 
ATOM     17  C   UNL     1       6.066  -2.963  22.548  0.00  0.00    +0.011 A 
ENDBRANCH   6  11
BRANCH   1  21
ATOM     18  N   UNL     1       8.148   0.472  26.670  0.00  0.00    -0.325 N 
ATOM     19  H   UNL     1       8.867  -0.220  26.467  0.00  0.00    +0.145 HD
ATOM     20  H   UNL     1       7.640   0.428  27.540  0.00  0.00    +0.145 HD
ATOM     21  C   UNL     1       7.871   1.473  25.789  0.00  0.00    +0.244 C 
ATOM     22  O   UNL     1       7.004   2.301  26.051  0.00  0.00    -0.270 OA
ENDBRANCH   1  21
TORSDOF 2
ENDMDL
MODEL 5
REMARK VINA RESULT:      -6.4      4.282      7.455
REMARK  Name = 
REMARK  2 active torsions:
REMARK  status: ('A' for Active; 'I' for Inactive)
REMARK    1  A    between atoms: C_2  and  C_4
REMARK    2  A    between atoms: C_11  and  C_14
REMARK                            x       y       z     vdW  Elec       q    Type
REMARK                         _______ _______ _______ _____ _____    ______ ____
ROOT
ATOM      1  C   UNL     1       7.871   2.370  23.208  0.00  0.00    +0.064 A 
ATOM      2  C   UNL     1       8.552   1.150  23.395  0.00  0.00    +0.102 A 
ATOM      3  C   UNL     1       9.927   1.222  23.738  0.00  0.00    +0.090 A 
ATOM      4  N   UNL     1      10.666   0.124  23.952  0.00  0.00    -0.251 NA
ATOM      5  C   UNL     1      10.048  -1.067  23.798  0.00  0.00    +0.139 A 
ATOM      6  C   UNL     1       8.714  -1.194  23.445  0.00  0.00    +0.090 A 
ATOM      7  C   UNL     1      10.563   2.449  23.858  0.00  0.00    +0.030 A 
ATOM      8  C   UNL     1       9.887   3.643  23.641  0.00  0.00    +0.003 A 
ATOM      9  N   UNL     1       7.962  -0.078  23.252  0.00  0.00    -0.243 NA
ATOM     10  C   UNL     1       8.541   3.604  23.318  0.00  0.00    +0.015 A 
ENDROOT
BRANCH   6  11
ATOM     11  C   UNL     1       8.065  -2.496  23.203  0.00  0.00    +0.002 A 
ATOM     12  C   UNL     1       7.036  -2.629  22.251  0.00  0.00    +0.011 A 
ATOM     13  C   UNL     1       6.473  -3.876  21.950  0.00  0.00    +0.020 A 
ATOM     14  C   UNL     1       6.927  -5.016  22.605  0.00  0.00    +0.041 A 
ATOM     15 CL   UNL     1       6.270  -6.556  22.210  0.00  0.00    -0.084 Cl
ATOM     16  C   UNL     1       7.919  -4.915  23.575  0.00  0.00    +0.020 A 
ATOM     17  C   UNL     1       8.476  -3.665  23.875  0.00  0.00    +0.011 A 
ENDBRANCH   6  11
BRANCH   1  21
ATOM     18  N   UNL     1       5.567   1.607  23.560  0.00  0.00    -0.325 N 
ATOM     19  H   UNL     1       5.919   0.937  24.240  0.00  0.00    +0.145 HD
ATOM     20  H   UNL     1       4.575   1.666  23.380  0.00  0.00    +0.145 HD
ATOM     21  C   UNL     1       6.413   2.444  22.897  0.00  0.00    +0.244 C 
ATOM     22  O   UNL     1       5.970   3.249  22.084  0.00  0.00    -0.270 OA
ENDBRANCH   1  21
TORSDOF 2
ENDMDL
MODEL 6
REMARK VINA RESULT:      -6.3      1.291      1.557
REMARK  Name = 
REMARK  2 active torsions:
REMARK  status: ('A' for Active; 'I' for Inactive)
REMARK    1  A    between atoms: C_2  and  C_4
REMARK    2  A    between atoms: C_11  and  C_14
REMARK                            x       y       z     vdW  Elec       q    Type
REMARK                         _______ _______ _______ _____ _____    ______ ____
ROOT
ATOM      1  C   UNL     1       6.651  -5.253  25.510  0.00  0.00    +0.064 A 
ATOM      2  C   UNL     1       6.516  -4.175  24.610  0.00  0.00    +0.102 A 
ATOM      3  C   UNL     1       5.501  -4.278  23.625  0.00  0.00    +0.090 A 
ATOM      4  N   UNL     1       5.278  -3.305  22.728  0.00  0.00    -0.251 NA
ATOM      5  C   UNL     1       6.088  -2.225  22.786  0.00  0.00    +0.139 A 
ATOM      6  C   UNL     1       7.106  -2.084  23.715  0.00  0.00    +0.090 A 
ATOM      7  C   UNL     1       4.700  -5.407  23.549  0.00  0.00    +0.030 A 
ATOM      8  C   UNL     1       4.862  -6.475  24.422  0.00  0.00    +0.003 A 
ATOM      9  N   UNL     1       7.314  -3.061  24.637  0.00  0.00    -0.243 NA
ATOM     10  C   UNL     1       5.836  -6.397  25.404  0.00  0.00    +0.015 A 
ENDROOT
BRANCH   6  11
ATOM     11  C   UNL     1       8.034  -0.938  23.725  0.00  0.00    +0.002 A 
ATOM     12  C   UNL     1       8.877  -0.696  24.827  0.00  0.00    +0.011 A 
ATOM     13  C   UNL     1       9.825   0.336  24.811  0.00  0.00    +0.020 A 
ATOM     14  C   UNL     1       9.940   1.152  23.691  0.00  0.00    +0.041 A 
ATOM     15 CL   UNL     1      11.130   2.393  23.649  0.00  0.00    -0.084 Cl
ATOM     16  C   UNL     1       9.101   0.961  22.599  0.00  0.00    +0.020 A 
ATOM     17  C   UNL     1       8.153  -0.070  22.621  0.00  0.00    +0.011 A 
ENDBRANCH   6  11
BRANCH   1  21
ATOM     18  N   UNL     1       8.963  -5.171  26.322  0.00  0.00    -0.325 N 
ATOM     19  H   UNL     1       9.275  -5.120  25.354  0.00  0.00    +0.145 HD
ATOM     20  H   UNL     1       9.640  -5.143  27.070  0.00  0.00    +0.145 HD
ATOM     21  C   UNL     1       7.639  -5.256  26.628  0.00  0.00    +0.244 C 
ATOM     22  O   UNL     1       7.281  -5.313  27.800  0.00  0.00    -0.270 OA
ENDBRANCH   1  21
TORSDOF 2
ENDMDL
MODEL 7
REMARK VINA RESULT:      -6.2      2.882      4.110
REMARK  Name = 
REMARK  2 active torsions:
REMARK  status: ('A' for Active; 'I' for Inactive)
REMARK    1  A    between atoms: C_2  and  C_4
REMARK    2  A    between atoms: C_11  and  C_14
REMARK                            x       y       z     vdW  Elec       q    Type
REMARK                         _______ _______ _______ _____ _____    ______ ____
ROOT
ATOM      1  C   UNL     1       6.447  -2.970  25.230  0.00  0.00    +0.064 A 
ATOM      2  C   UNL     1       7.643  -2.426  24.717  0.00  0.00    +0.102 A 
ATOM      3  C   UNL     1       8.682  -3.336  24.394  0.00  0.00    +0.090 A 
ATOM      4  N   UNL     1       9.855  -2.927  23.887  0.00  0.00    -0.251 NA
ATOM      5  C   UNL     1      10.018  -1.596  23.725  0.00  0.00    +0.139 A 
ATOM      6  C   UNL     1       9.044  -0.664  24.043  0.00  0.00    +0.090 A 
ATOM      7  C   UNL     1       8.519  -4.698  24.600  0.00  0.00    +0.030 A 
ATOM      8  C   UNL     1       7.347  -5.218  25.133  0.00  0.00    +0.003 A 
ATOM      9  N   UNL     1       7.848  -1.083  24.534  0.00  0.00    -0.243 NA
ATOM     10  C   UNL     1       6.310  -4.354  25.446  0.00  0.00    +0.015 A 
ENDROOT
BRANCH   6  11
ATOM     11  C   UNL     1       9.257   0.792  23.934  0.00  0.00    +0.002 A 
ATOM     12  C   UNL     1       8.520   1.694  24.726  0.00  0.00    +0.011 A 
ATOM     13  C   UNL     1       8.775   3.072  24.696  0.00  0.00    +0.020 A 
ATOM     14  C   UNL     1       9.769   3.573  23.863  0.00  0.00    +0.041 A 
ATOM     15 CL   UNL     1      10.115   5.258  23.852  0.00  0.00    -0.084 Cl
ATOM     16  C   UNL     1      10.492   2.713  23.044  0.00  0.00    +0.020 A 
ATOM     17  C   UNL     1      10.232   1.337  23.075  0.00  0.00    +0.011 A 
ENDBRANCH   6  11
BRANCH   1  21
ATOM     18  N   UNL     1       5.430  -1.045  26.359  0.00  0.00    -0.325 N 
ATOM     19  H   UNL     1       6.348  -0.811  26.732  0.00  0.00    +0.145 HD
ATOM     20  H   UNL     1       4.637  -0.457  26.568  0.00  0.00    +0.145 HD
ATOM     21  C   UNL     1       5.255  -2.136  25.562  0.00  0.00    +0.244 C 
ATOM     22  O   UNL     1       4.142  -2.401  25.118  0.00  0.00    -0.270 OA
ENDBRANCH   1  21
TORSDOF 2
ENDMDL
MODEL 8
REMARK VINA RESULT:      -6.1      3.784      7.085
REMARK  Name = 
REMARK  2 active torsions:
REMARK  status: ('A' for Active; 'I' for Inactive)
REMARK    1  A    between atoms: C_2  and  C_4
REMARK    2  A    between atoms: C_11  and  C_14
REMARK                            x       y       z     vdW  Elec       q    Type
REMARK                         _______ _______ _______ _____ _____    ______ ____
ROOT
ATOM      1  C   UNL     1       7.601   1.235  22.651  0.00  0.00    +0.064 A 
ATOM      2  C   UNL     1       7.973  -0.123  22.742  0.00  0.00    +0.102 A 
ATOM      3  C   UNL     1       9.309  -0.452  22.400  0.00  0.00    +0.090 A 
ATOM      4  N   UNL     1       9.772  -1.710  22.464  0.00  0.00    -0.251 NA
ATOM      5  C   UNL     1       8.894  -2.663  22.844  0.00  0.00    +0.139 A 
ATOM      6  C   UNL     1       7.574  -2.399  23.170  0.00  0.00    +0.090 A 
ATOM      7  C   UNL     1      10.193   0.529  21.974  0.00  0.00    +0.030 A 
ATOM      8  C   UNL     1       9.806   1.858  21.860  0.00  0.00    +0.003 A 
ATOM      9  N   UNL     1       7.115  -1.120  23.126  0.00  0.00    -0.243 NA
ATOM     10  C   UNL     1       8.510   2.211  22.201  0.00  0.00    +0.015 A 
ENDROOT
BRANCH   6  11
ATOM     11  C   UNL     1       6.601  -3.454  23.510  0.00  0.00    +0.002 A 
ATOM     12  C   UNL     1       5.452  -3.663  22.724  0.00  0.00    +0.011 A 
ATOM     13  C   UNL     1       4.568  -4.718  22.985  0.00  0.00    +0.020 A 
ATOM     14  C   UNL     1       4.815  -5.580  24.047  0.00  0.00    +0.041 A 
ATOM     15 CL   UNL     1       3.757  -6.903  24.348  0.00  0.00    -0.084 Cl
ATOM     16  C   UNL     1       5.923  -5.383  24.863  0.00  0.00    +0.020 A 
ATOM     17  C   UNL     1       6.802  -4.324  24.600  0.00  0.00    +0.011 A 
ENDBRANCH   6  11
BRANCH   1  21
ATOM     18  N   UNL     1       5.632   1.174  24.113  0.00  0.00    -0.325 N 
ATOM     19  H   UNL     1       6.080   0.429  24.643  0.00  0.00    +0.145 HD
ATOM     20  H   UNL     1       4.728   1.519  24.397  0.00  0.00    +0.145 HD
ATOM     21  C   UNL     1       6.245   1.730  23.031  0.00  0.00    +0.244 C 
ATOM     22  O   UNL     1       5.693   2.630  22.406  0.00  0.00    -0.270 OA
ENDBRANCH   1  21
TORSDOF 2
ENDMDL
MODEL 9
REMARK VINA RESULT:      -6.1      3.657      6.732
REMARK  Name = 
REMARK  2 active torsions:
REMARK  status: ('A' for Active; 'I' for Inactive)
REMARK    1  A    between atoms: C_2  and  C_4
REMARK    2  A    between atoms: C_11  and  C_14
REMARK                            x       y       z     vdW  Elec       q    Type
REMARK                         _______ _______ _______ _____ _____    ______ ____
ROOT
ATOM      1  C   UNL     1       8.635   0.762  24.068  0.00  0.00    +0.064 A 
ATOM      2  C   UNL     1       8.462  -0.573  23.648  0.00  0.00    +0.102 A 
ATOM      3  C   UNL     1       8.821  -0.884  22.312  0.00  0.00    +0.090 A 
ATOM      4  N   UNL     1       8.710  -2.125  21.814  0.00  0.00    -0.251 NA
ATOM      5  C   UNL     1       8.209  -3.070  22.639  0.00  0.00    +0.139 A 
ATOM      6  C   UNL     1       7.825  -2.815  23.946  0.00  0.00    +0.090 A 
ATOM      7  C   UNL     1       9.299   0.101  21.460  0.00  0.00    +0.030 A 
ATOM      8  C   UNL     1       9.436   1.419  21.876  0.00  0.00    +0.003 A 
ATOM      9  N   UNL     1       7.961  -1.562  24.454  0.00  0.00    -0.243 NA
ATOM     10  C   UNL     1       9.107   1.749  23.181  0.00  0.00    +0.015 A 
ENDROOT
BRANCH   6  11
ATOM     11  C   UNL     1       7.209  -3.834  24.817  0.00  0.00    +0.002 A 
ATOM     12  C   UNL     1       7.391  -3.802  26.214  0.00  0.00    +0.011 A 
ATOM     13  C   UNL     1       6.739  -4.710  27.058  0.00  0.00    +0.020 A 
ATOM     14  C   UNL     1       5.897  -5.675  26.517  0.00  0.00    +0.041 A 
ATOM     15 CL   UNL     1       5.061  -6.766  27.552  0.00  0.00    -0.084 Cl
ATOM     16  C   UNL     1       5.721  -5.755  25.140  0.00  0.00    +0.020 A 
ATOM     17  C   UNL     1       6.377  -4.847  24.300  0.00  0.00    +0.011 A 
ENDBRANCH   6  11
BRANCH   1  21
ATOM     18  N   UNL     1       8.671   0.387  26.491  0.00  0.00    -0.325 N 
ATOM     19  H   UNL     1       9.083  -0.527  26.318  0.00  0.00    +0.145 HD
ATOM     20  H   UNL     1       8.510   0.695  27.439  0.00  0.00    +0.145 HD
ATOM     21  C   UNL     1       8.350   1.218  25.460  0.00  0.00    +0.244 C 
ATOM     22  O   UNL     1       7.858   2.319  25.687  0.00  0.00    -0.270 OA
ENDBRANCH   1  21
TORSDOF 2
ENDMDL
