MODEL 1
REMARK VINA RESULT:      -5.6      0.000      0.000
REMARK  Name = 
REMARK  5 active torsions:
REMARK  status: ('A' for Active; 'I' for Inactive)
REMARK    1  A    between atoms: CA_2  and  CB_3
REMARK    2  A    between atoms: CA_2  and  N_4
REMARK    3  A    between atoms: CA_2  and  C_13
REMARK    4  A    between atoms: C_5  and  C_7
REMARK    5  A    between atoms: C_13  and  O_14
REMARK                            x       y       z     vdW  Elec       q    Type
REMARK                         _______ _______ _______ _____ _____    ______ ____
ROOT
ATOM      1  N   ALA A   1       8.674  -2.424  24.079  0.00  0.00    -0.299 N 
ATOM      2  H   ALA A   1       8.185  -1.804  24.713  0.00  0.00    +0.150 HD
ATOM      3  C   UNK A   0       9.796  -1.938  23.450  0.00  0.00    +0.245 C 
ATOM      4  O   UNK A   0      10.691  -2.694  23.082  0.00  0.00    -0.270 OA
ENDROOT
BRANCH   3   5
ATOM      5  C   UNK A   0       9.916  -0.457  23.356  0.00  0.00    +0.037 A 
ATOM      6  C   UNK A   0      10.192   0.334  24.482  0.00  0.00    +0.013 A 
ATOM      7  C   UNK A   0      10.364   1.712  24.344  0.00  0.00    +0.001 A 
ATOM      8  C   UNK A   0      10.246   2.308  23.089  0.00  0.00    +0.000 A 
ATOM      9  C   UNK A   0       9.934   1.531  21.973  0.00  0.00    +0.001 A 
ATOM     10  C   UNK A   0       9.762   0.151  22.105  0.00  0.00    +0.013 A 
ENDBRANCH   3   5
BRANCH   1  11
ATOM     11  CA  ALA A   1       8.433  -3.858  24.245  0.00  0.00    +0.179 C 
ATOM     12  CB  ALA A   1       6.945  -4.105  24.437  0.00  0.00    +0.040 C 
BRANCH  11  13
ATOM     13  C   ALA A   1       9.267  -4.407  25.414  0.00  0.00    +0.325 C 
ATOM     14  OXT ALA A   1       8.991  -4.264  26.597  0.00  0.00    -0.249 OA
BRANCH  13  15
ATOM     15  O   ALA A   1      10.343  -5.124  25.005  0.00  0.00    -0.479 OA
ATOM     16  H   ALA A   1      10.838  -5.520  25.763  0.00  0.00    +0.295 HD
ENDBRANCH  13  15
ENDBRANCH  11  13
ENDBRANCH   1  11
TORSDOF 4
ENDMDL
MODEL 2
REMARK VINA RESULT:      -5.5      1.218      2.064
REMARK  Name = 
REMARK  5 active torsions:
REMARK  status: ('A' for Active; 'I' for Inactive)
REMARK    1  A    between atoms: CA_2  and  CB_3
REMARK    2  A    between atoms: CA_2  and  N_4
REMARK    3  A    between atoms: CA_2  and  C_13
REMARK    4  A    between atoms: C_5  and  C_7
REMARK    5  A    between atoms: C_13  and  O_14
REMARK                            x       y       z     vdW  Elec       q    Type
REMARK                         _______ _______ _______ _____ _____    ______ ____
ROOT
ATOM      1  N   ALA A   1       8.139  -3.391  24.646  0.00  0.00    -0.299 N 
ATOM      2  H   ALA A   1       7.570  -2.593  24.901  0.00  0.00    +0.150 HD
ATOM      3  C   UNK A   0       9.408  -3.146  24.177  0.00  0.00    +0.245 C 
ATOM      4  O   UNK A   0      10.301  -3.978  24.309  0.00  0.00    -0.270 OA
ENDROOT
BRANCH   3   5
ATOM      5  C   UNK A   0       9.661  -1.787  23.624  0.00  0.00    +0.037 A 
ATOM      6  C   UNK A   0       9.637  -1.534  22.245  0.00  0.00    +0.013 A 
ATOM      7  C   UNK A   0       9.811  -0.234  21.767  0.00  0.00    +0.001 A 
ATOM      8  C   UNK A   0      10.028   0.813  22.661  0.00  0.00    +0.000 A 
ATOM      9  C   UNK A   0      10.091   0.562  24.032  0.00  0.00    +0.001 A 
ATOM     10  C   UNK A   0       9.915  -0.737  24.515  0.00  0.00    +0.013 A 
ENDBRANCH   3   5
BRANCH   1  11
ATOM     11  CA  ALA A   1       7.756  -4.681  25.221  0.00  0.00    +0.179 C 
ATOM     12  CB  ALA A   1       6.308  -4.986  24.870  0.00  0.00    +0.040 C 
BRANCH  11  13
ATOM     13  C   ALA A   1       7.995  -4.681  26.739  0.00  0.00    +0.325 C 
ATOM     14  OXT ALA A   1       7.119  -4.570  27.586  0.00  0.00    -0.249 OA
BRANCH  13  15
ATOM     15  O   ALA A   1       9.298  -4.866  27.070  0.00  0.00    -0.479 OA
ATOM     16  H   ALA A   1       9.456  -5.748  27.487  0.00  0.00    +0.295 HD
ENDBRANCH  13  15
ENDBRANCH  11  13
ENDBRANCH   1  11
TORSDOF 4
ENDMDL
MODEL 3
REMARK VINA RESULT:      -5.3      2.026      5.713
REMARK  Name = 
REMARK  5 active torsions:
REMARK  status: ('A' for Active; 'I' for Inactive)
REMARK    1  A    between atoms: CA_2  and  CB_3
REMARK    2  A    between atoms: CA_2  and  N_4
REMARK    3  A    between atoms: CA_2  and  C_13
REMARK    4  A    between atoms: C_5  and  C_7
REMARK    5  A    between atoms: C_13  and  O_14
REMARK                            x       y       z     vdW  Elec       q    Type
REMARK                         _______ _______ _______ _____ _____    ______ ____
ROOT
ATOM      1  N   ALA A   1       9.427  -0.684  23.598  0.00  0.00    -0.299 N 
ATOM      2  H   ALA A   1       8.448  -0.468  23.742  0.00  0.00    +0.150 HD
ATOM      3  C   UNK A   0       9.762  -1.996  23.358  0.00  0.00    +0.245 C 
ATOM      4  O   UNK A   0      10.767  -2.283  22.715  0.00  0.00    -0.270 OA
ENDROOT
BRANCH   3   5
ATOM      5  C   UNK A   0       8.783  -3.025  23.807  0.00  0.00    +0.037 A 
ATOM      6  C   UNK A   0       7.776  -3.506  22.958  0.00  0.00    +0.013 A 
ATOM      7  C   UNK A   0       6.919  -4.519  23.391  0.00  0.00    +0.001 A 
ATOM      8  C   UNK A   0       7.052  -5.042  24.676  0.00  0.00    +0.000 A 
ATOM      9  C   UNK A   0       8.027  -4.540  25.538  0.00  0.00    +0.001 A 
ATOM     10  C   UNK A   0       8.888  -3.528  25.109  0.00  0.00    +0.013 A 
ENDBRANCH   3   5
BRANCH   1  11
ATOM     11  CA  ALA A   1      10.294   0.426  23.204  0.00  0.00    +0.179 C 
ATOM     12  CB  ALA A   1      10.361   1.445  24.331  0.00  0.00    +0.040 C 
BRANCH  11  13
ATOM     13  C   ALA A   1       9.799   1.049  21.889  0.00  0.00    +0.325 C 
ATOM     14  OXT ALA A   1       9.020   0.514  21.111  0.00  0.00    -0.249 OA
BRANCH  13  15
ATOM     15  O   ALA A   1      10.279   2.301  21.682  0.00  0.00    -0.479 OA
ATOM     16  H   ALA A   1       9.597   2.996  21.848  0.00  0.00    +0.295 HD
ENDBRANCH  13  15
ENDBRANCH  11  13
ENDBRANCH   1  11
TORSDOF 4
ENDMDL
MODEL 4
REMARK VINA RESULT:      -5.3      1.820      5.776
REMARK  Name = 
REMARK  5 active torsions:
REMARK  status: ('A' for Active; 'I' for Inactive)
REMARK    1  A    between atoms: CA_2  and  CB_3
REMARK    2  A    between atoms: CA_2  and  N_4
REMARK    3  A    between atoms: CA_2  and  C_13
REMARK    4  A    between atoms: C_5  and  C_7
REMARK    5  A    between atoms: C_13  and  O_14
REMARK                            x       y       z     vdW  Elec       q    Type
REMARK                         _______ _______ _______ _____ _____    ______ ____
ROOT
ATOM      1  N   ALA A   1       8.723  -2.492  23.651  0.00  0.00    -0.299 N 
ATOM      2  H   ALA A   1       8.040  -2.288  22.932  0.00  0.00    +0.150 HD
ATOM      3  C   UNK A   0       8.805  -3.788  24.105  0.00  0.00    +0.245 C 
ATOM      4  O   UNK A   0       9.853  -4.229  24.567  0.00  0.00    -0.270 OA
ENDROOT
BRANCH   3   5
ATOM      5  C   UNK A   0       7.607  -4.644  23.889  0.00  0.00    +0.037 A 
ATOM      6  C   UNK A   0       6.693  -4.908  24.920  0.00  0.00    +0.013 A 
ATOM      7  C   UNK A   0       5.545  -5.660  24.663  0.00  0.00    +0.001 A 
ATOM      8  C   UNK A   0       5.314  -6.165  23.384  0.00  0.00    +0.000 A 
ATOM      9  C   UNK A   0       6.239  -5.937  22.365  0.00  0.00    +0.001 A 
ATOM     10  C   UNK A   0       7.388  -5.184  22.616  0.00  0.00    +0.013 A 
ENDBRANCH   3   5
BRANCH   1  11
ATOM     11  CA  ALA A   1       9.830  -1.545  23.792  0.00  0.00    +0.179 C 
ATOM     12  CB  ALA A   1       9.552  -0.607  24.957  0.00  0.00    +0.040 C 
BRANCH  11  13
ATOM     13  C   ALA A   1      10.052  -0.783  22.476  0.00  0.00    +0.325 C 
ATOM     14  OXT ALA A   1      10.174   0.431  22.383  0.00  0.00    -0.249 OA
BRANCH  13  15
ATOM     15  O   ALA A   1      10.148  -1.602  21.400  0.00  0.00    -0.479 OA
ATOM     16  H   ALA A   1       9.301  -2.077  21.214  0.00  0.00    +0.295 HD
ENDBRANCH  13  15
ENDBRANCH  11  13
ENDBRANCH   1  11
TORSDOF 4
ENDMDL
MODEL 5
REMARK VINA RESULT:      -5.2      1.445      2.080
REMARK  Name = 
REMARK  5 active torsions:
REMARK  status: ('A' for Active; 'I' for Inactive)
REMARK    1  A    between atoms: CA_2  and  CB_3
REMARK    2  A    between atoms: CA_2  and  N_4
REMARK    3  A    between atoms: CA_2  and  C_13
REMARK    4  A    between atoms: C_5  and  C_7
REMARK    5  A    between atoms: C_13  and  O_14
REMARK                            x       y       z     vdW  Elec       q    Type
REMARK                         _______ _______ _______ _____ _____    ______ ____
ROOT
ATOM      1  N   ALA A   1       8.170  -3.064  23.140  0.00  0.00    -0.299 N 
ATOM      2  H   ALA A   1       7.439  -2.369  23.050  0.00  0.00    +0.150 HD
ATOM      3  C   UNK A   0       9.418  -2.631  23.519  0.00  0.00    +0.245 C 
ATOM      4  O   UNK A   0      10.193  -3.378  24.110  0.00  0.00    -0.270 OA
ENDROOT
BRANCH   3   5
ATOM      5  C   UNK A   0       9.721  -1.192  23.289  0.00  0.00    +0.037 A 
ATOM      6  C   UNK A   0       9.582  -0.601  22.024  0.00  0.00    +0.013 A 
ATOM      7  C   UNK A   0       9.810   0.766  21.860  0.00  0.00    +0.001 A 
ATOM      8  C   UNK A   0      10.193   1.545  22.951  0.00  0.00    +0.000 A 
ATOM      9  C   UNK A   0      10.370   0.955  24.203  0.00  0.00    +0.001 A 
ATOM     10  C   UNK A   0      10.142  -0.412  24.373  0.00  0.00    +0.013 A 
ENDBRANCH   3   5
BRANCH   1  11
ATOM     11  CA  ALA A   1       7.739  -4.451  23.315  0.00  0.00    +0.179 C 
ATOM     12  CB  ALA A   1       6.760  -4.824  22.212  0.00  0.00    +0.040 C 
BRANCH  11  13
ATOM     13  C   ALA A   1       7.136  -4.650  24.715  0.00  0.00    +0.325 C 
ATOM     14  OXT ALA A   1       5.969  -4.431  25.012  0.00  0.00    -0.249 OA
BRANCH  13  15
ATOM     15  O   ALA A   1       8.027  -5.147  25.609  0.00  0.00    -0.479 OA
ATOM     16  H   ALA A   1       8.575  -5.874  25.226  0.00  0.00    +0.295 HD
ENDBRANCH  13  15
ENDBRANCH  11  13
ENDBRANCH   1  11
TORSDOF 4
ENDMDL
MODEL 6
REMARK VINA RESULT:      -5.2      1.788      2.135
REMARK  Name = 
REMARK  5 active torsions:
REMARK  status: ('A' for Active; 'I' for Inactive)
REMARK    1  A    between atoms: CA_2  and  CB_3
REMARK    2  A    between atoms: CA_2  and  N_4
REMARK    3  A    between atoms: CA_2  and  C_13
REMARK    4  A    between atoms: C_5  and  C_7
REMARK    5  A    between atoms: C_13  and  O_14
REMARK                            x       y       z     vdW  Elec       q    Type
REMARK                         _______ _______ _______ _____ _____    ______ ____
ROOT
ATOM      1  N   ALA A   1       8.079  -3.528  23.201  0.00  0.00    -0.299 N 
ATOM      2  H   ALA A   1       7.313  -2.906  22.969  0.00  0.00    +0.150 HD
ATOM      3  C   UNK A   0       9.272  -2.957  23.576  0.00  0.00    +0.245 C 
ATOM      4  O   UNK A   0      10.053  -3.554  24.312  0.00  0.00    -0.270 OA
ENDROOT
BRANCH   3   5
ATOM      5  C   UNK A   0       9.499  -1.549  23.148  0.00  0.00    +0.037 A 
ATOM      6  C   UNK A   0      10.078  -0.601  24.005  0.00  0.00    +0.013 A 
ATOM      7  C   UNK A   0      10.337   0.691  23.547  0.00  0.00    +0.001 A 
ATOM      8  C   UNK A   0      10.006   1.048  22.240  0.00  0.00    +0.000 A 
ATOM      9  C   UNK A   0       9.395   0.120  21.396  0.00  0.00    +0.001 A 
ATOM     10  C   UNK A   0       9.135  -1.176  21.849  0.00  0.00    +0.013 A 
ENDBRANCH   3   5
BRANCH   1  11
ATOM     11  CA  ALA A   1       7.724  -4.901  23.559  0.00  0.00    +0.179 C 
ATOM     12  CB  ALA A   1       7.222  -5.636  22.326  0.00  0.00    +0.040 C 
BRANCH  11  13
ATOM     13  C   ALA A   1       6.691  -4.906  24.697  0.00  0.00    +0.325 C 
ATOM     14  OXT ALA A   1       6.955  -4.757  25.883  0.00  0.00    -0.249 OA
BRANCH  13  15
ATOM     15  O   ALA A   1       5.417  -5.049  24.255  0.00  0.00    -0.479 OA
ATOM     16  H   ALA A   1       4.881  -4.229  24.384  0.00  0.00    +0.295 HD
ENDBRANCH  13  15
ENDBRANCH  11  13
ENDBRANCH   1  11
TORSDOF 4
ENDMDL
MODEL 7
REMARK VINA RESULT:      -4.9      2.946      3.873
REMARK  Name = 
REMARK  5 active torsions:
REMARK  status: ('A' for Active; 'I' for Inactive)
REMARK    1  A    between atoms: CA_2  and  CB_3
REMARK    2  A    between atoms: CA_2  and  N_4
REMARK    3  A    between atoms: CA_2  and  C_13
REMARK    4  A    between atoms: C_5  and  C_7
REMARK    5  A    between atoms: C_13  and  O_14
REMARK                            x       y       z     vdW  Elec       q    Type
REMARK                         _______ _______ _______ _____ _____    ______ ____
ROOT
ATOM      1  N   ALA A   1       7.118  -4.301  23.392  0.00  0.00    -0.299 N 
ATOM      2  H   ALA A   1       6.436  -3.571  23.559  0.00  0.00    +0.150 HD
ATOM      3  C   UNK A   0       8.330  -4.201  24.035  0.00  0.00    +0.245 C 
ATOM      4  O   UNK A   0       8.991  -5.203  24.294  0.00  0.00    -0.270 OA
ENDROOT
BRANCH   3   5
ATOM      5  C   UNK A   0       8.724  -2.844  24.502  0.00  0.00    +0.037 A 
ATOM      6  C   UNK A   0       8.281  -2.327  25.729  0.00  0.00    +0.013 A 
ATOM      7  C   UNK A   0       8.726  -1.078  26.164  0.00  0.00    +0.001 A 
ATOM      8  C   UNK A   0       9.600  -0.334  25.372  0.00  0.00    +0.000 A 
ATOM      9  C   UNK A   0      10.014  -0.827  24.135  0.00  0.00    +0.001 A 
ATOM     10  C   UNK A   0       9.573  -2.077  23.695  0.00  0.00    +0.013 A 
ENDBRANCH   3   5
BRANCH   1  11
ATOM     11  CA  ALA A   1       6.605  -5.575  22.889  0.00  0.00    +0.179 C 
ATOM     12  CB  ALA A   1       7.093  -5.793  21.464  0.00  0.00    +0.040 C 
BRANCH  11  13
ATOM     13  C   ALA A   1       5.072  -5.610  22.987  0.00  0.00    +0.325 C 
ATOM     14  OXT ALA A   1       4.330  -4.687  22.679  0.00  0.00    -0.249 OA
BRANCH  13  15
ATOM     15  O   ALA A   1       4.596  -6.806  23.415  0.00  0.00    -0.479 OA
ATOM     16  H   ALA A   1       4.764  -6.953  24.377  0.00  0.00    +0.295 HD
ENDBRANCH  13  15
ENDBRANCH  11  13
ENDBRANCH   1  11
TORSDOF 4
ENDMDL
MODEL 8
REMARK VINA RESULT:      -4.8      1.473      1.625
REMARK  Name = 
REMARK  5 active torsions:
REMARK  status: ('A' for Active; 'I' for Inactive)
REMARK    1  A    between atoms: CA_2  and  CB_3
REMARK    2  A    between atoms: CA_2  and  N_4
REMARK    3  A    between atoms: CA_2  and  C_13
REMARK    4  A    between atoms: C_5  and  C_7
REMARK    5  A    between atoms: C_13  and  O_14
REMARK                            x       y       z     vdW  Elec       q    Type
REMARK                         _______ _______ _______ _____ _____    ______ ____
ROOT
ATOM      1  N   ALA A   1       8.449  -2.284  24.739  0.00  0.00    -0.299 N 
ATOM      2  H   ALA A   1       9.274  -2.036  25.272  0.00  0.00    +0.150 HD
ATOM      3  C   UNK A   0       8.252  -1.650  23.535  0.00  0.00    +0.245 C 
ATOM      4  O   UNK A   0       7.615  -2.189  22.634  0.00  0.00    -0.270 OA
ENDROOT
BRANCH   3   5
ATOM      5  C   UNK A   0       8.952  -0.349  23.347  0.00  0.00    +0.037 A 
ATOM      6  C   UNK A   0       9.474   0.372  24.431  0.00  0.00    +0.013 A 
ATOM      7  C   UNK A   0      10.183   1.554  24.210  0.00  0.00    +0.001 A 
ATOM      8  C   UNK A   0      10.358   2.029  22.912  0.00  0.00    +0.000 A 
ATOM      9  C   UNK A   0       9.807   1.337  21.833  0.00  0.00    +0.001 A 
ATOM     10  C   UNK A   0       9.099   0.152  22.048  0.00  0.00    +0.013 A 
ENDBRANCH   3   5
BRANCH   1  11
ATOM     11  CA  ALA A   1       7.827  -3.571  25.053  0.00  0.00    +0.179 C 
ATOM     12  CB  ALA A   1       7.780  -3.759  26.562  0.00  0.00    +0.040 C 
BRANCH  11  13
ATOM     13  C   ALA A   1       8.578  -4.713  24.350  0.00  0.00    +0.325 C 
ATOM     14  OXT ALA A   1       9.662  -5.158  24.702  0.00  0.00    -0.249 OA
BRANCH  13  15
ATOM     15  O   ALA A   1       7.893  -5.230  23.300  0.00  0.00    -0.479 OA
ATOM     16  H   ALA A   1       7.820  -4.591  22.550  0.00  0.00    +0.295 HD
ENDBRANCH  13  15
ENDBRANCH  11  13
ENDBRANCH   1  11
TORSDOF 4
ENDMDL
MODEL 9
REMARK VINA RESULT:      -4.7      2.168      3.392
REMARK  Name = 
REMARK  5 active torsions:
REMARK  status: ('A' for Active; 'I' for Inactive)
REMARK    1  A    between atoms: CA_2  and  CB_3
REMARK    2  A    between atoms: CA_2  and  N_4
REMARK    3  A    between atoms: CA_2  and  C_13
REMARK    4  A    between atoms: C_5  and  C_7
REMARK    5  A    between atoms: C_13  and  O_14
REMARK                            x       y       z     vdW  Elec       q    Type
REMARK                         _______ _______ _______ _____ _____    ______ ____
ROOT
ATOM      1  N   ALA A   1       8.880   0.221  23.486  0.00  0.00    -0.299 N 
ATOM      2  H   ALA A   1       9.224   0.370  24.427  0.00  0.00    +0.150 HD
ATOM      3  C   UNK A   0       9.157   1.185  22.545  0.00  0.00    +0.245 C 
ATOM      4  O   UNK A   0       9.230   0.901  21.353  0.00  0.00    -0.270 OA
ENDROOT
BRANCH   3   5
ATOM      5  C   UNK A   0       9.482   2.543  23.062  0.00  0.00    +0.037 A 
ATOM      6  C   UNK A   0      10.807   2.988  23.186  0.00  0.00    +0.013 A 
ATOM      7  C   UNK A   0      11.071   4.291  23.610  0.00  0.00    +0.001 A 
ATOM      8  C   UNK A   0      10.018   5.148  23.927  0.00  0.00    +0.000 A 
ATOM      9  C   UNK A   0       8.701   4.698  23.842  0.00  0.00    +0.001 A 
ATOM     10  C   UNK A   0       8.430   3.396  23.417  0.00  0.00    +0.013 A 
ENDBRANCH   3   5
BRANCH   1  11
ATOM     11  CA  ALA A   1       8.552  -1.157  23.118  0.00  0.00    +0.179 C 
ATOM     12  CB  ALA A   1       7.620  -1.755  24.161  0.00  0.00    +0.040 C 
BRANCH  11  13
ATOM     13  C   ALA A   1       9.835  -1.984  22.945  0.00  0.00    +0.325 C 
ATOM     14  OXT ALA A   1      10.233  -2.830  23.734  0.00  0.00    -0.249 OA
BRANCH  13  15
ATOM     15  O   ALA A   1      10.485  -1.718  21.785  0.00  0.00    -0.479 OA
ATOM     16  H   ALA A   1      11.396  -1.367  21.938  0.00  0.00    +0.295 HD
ENDBRANCH  13  15
ENDBRANCH  11  13
ENDBRANCH   1  11
TORSDOF 4
ENDMDL
