MODEL 1
REMARK VINA RESULT:      -5.4      0.000      0.000
REMARK  Name = 
REMARK  6 active torsions:
REMARK  status: ('A' for Active; 'I' for Inactive)
REMARK    1  A    between atoms: CA_2  and  N_3
REMARK    2  A    between atoms: CA_2  and  C_4
REMARK    3  A    between atoms: CA_2  and  C_14
REMARK    4  A    between atoms: C_4  and  C_5
REMARK    5  A    between atoms: C_9  and  O_10
REMARK    6  A    between atoms: C_14  and  O_15
REMARK                            x       y       z     vdW  Elec       q    Type
REMARK                         _______ _______ _______ _____ _____    ______ ____
ROOT
ATOM      1  C   UNL     1       9.852   4.703  23.647  0.00  0.00    -0.043 A 
ATOM      2  C   UNL     1      10.331   3.409  23.914  0.00  0.00    +0.021 A 
ATOM      3  C   UNL     1       9.454   2.319  23.983  0.00  0.00    +0.056 A 
ATOM      4  I   UNL     1      10.261   0.434  24.413  0.00  0.00    -0.040 I 
ATOM      5  C   UNL     1       8.086   2.504  23.778  0.00  0.00    +0.143 A 
ATOM      6  C   UNL     1       7.604   3.783  23.481  0.00  0.00    +0.056 A 
ATOM      7  I   UNL     1       5.564   4.137  23.179  0.00  0.00    -0.040 I 
ATOM      8  C   UNL     1       8.482   4.867  23.395  0.00  0.00    +0.021 A 
ENDROOT
BRANCH   5   9
ATOM      9  O   UNL     1       7.234   1.435  23.868  0.00  0.00    -0.505 OA
ATOM     10  H   UNL     1       7.169   1.189  24.808  0.00  0.00    +0.292 HD
ENDBRANCH   5   9
BRANCH   1  11
ATOM     11  C   UNL     1      10.827   5.863  23.608  0.00  0.00    +0.065 C 
BRANCH  11  12
ATOM     12  CA  UNL     1      12.274   5.583  24.069  0.00  0.00    +0.165 C 
BRANCH  12  13
ATOM     13  N   UNL     1      12.731   6.680  24.955  0.00  0.00    -0.318 NA
ATOM     14  H1  UNL     1      12.120   7.495  24.940  0.00  0.00    +0.119 HD
ATOM     15  H2  UNL     1      13.014   6.384  25.884  0.00  0.00    +0.119 HD
ENDBRANCH  12  13
BRANCH  12  16
ATOM     16  C   UNL     1      13.218   5.381  22.864  0.00  0.00    +0.322 C 
ATOM     17  OXT UNL     1      12.889   5.497  21.692  0.00  0.00    -0.249 OA
BRANCH  16  18
ATOM     18  O   UNL     1      14.480   5.029  23.209  0.00  0.00    -0.480 OA
ATOM     19  H   UNL     1      14.995   4.786  22.419  0.00  0.00    +0.295 HD
ENDBRANCH  16  18
ENDBRANCH  12  16
ENDBRANCH  11  12
ENDBRANCH   1  11
TORSDOF 6
ENDMDL
MODEL 2
REMARK VINA RESULT:      -5.4      0.074      2.555
REMARK  Name = 
REMARK  6 active torsions:
REMARK  status: ('A' for Active; 'I' for Inactive)
REMARK    1  A    between atoms: CA_2  and  N_3
REMARK    2  A    between atoms: CA_2  and  C_4
REMARK    3  A    between atoms: CA_2  and  C_14
REMARK    4  A    between atoms: C_4  and  C_5
REMARK    5  A    between atoms: C_9  and  O_10
REMARK    6  A    between atoms: C_14  and  O_15
REMARK                            x       y       z     vdW  Elec       q    Type
REMARK                         _______ _______ _______ _____ _____    ______ ____
ROOT
ATOM      1  C   UNL     1       9.878   4.630  23.662  0.00  0.00    -0.043 A 
ATOM      2  C   UNL     1       8.504   4.828  23.445  0.00  0.00    +0.021 A 
ATOM      3  C   UNL     1       7.611   3.748  23.471  0.00  0.00    +0.056 A 
ATOM      4  I   UNL     1       5.585   4.140  23.109  0.00  0.00    -0.040 I 
ATOM      5  C   UNL     1       8.077   2.456  23.722  0.00  0.00    +0.143 A 
ATOM      6  C   UNL     1       9.439   2.255  23.969  0.00  0.00    +0.056 A 
ATOM      7  I   UNL     1      10.209   0.345  24.335  0.00  0.00    -0.040 I 
ATOM      8  C   UNL     1      10.326   3.334  23.961  0.00  0.00    +0.021 A 
ENDROOT
BRANCH   5   9
ATOM      9  O   UNL     1       7.198   1.405  23.724  0.00  0.00    -0.505 OA
ATOM     10  H   UNL     1       7.216   1.009  24.613  0.00  0.00    +0.292 HD
ENDBRANCH   5   9
BRANCH   1  11
ATOM     11  C   UNL     1      10.819   5.818  23.599  0.00  0.00    +0.065 C 
BRANCH  11  12
ATOM     12  CA  UNL     1      12.275   5.587  24.059  0.00  0.00    +0.165 C 
BRANCH  12  13
ATOM     13  N   UNL     1      12.707   6.719  24.914  0.00  0.00    -0.318 NA
ATOM     14  H1  UNL     1      13.519   6.505  25.489  0.00  0.00    +0.119 HD
ATOM     15  H2  UNL     1      12.753   7.616  24.438  0.00  0.00    +0.119 HD
ENDBRANCH  12  13
BRANCH  12  16
ATOM     16  C   UNL     1      13.217   5.379  22.854  0.00  0.00    +0.322 C 
ATOM     17  OXT UNL     1      12.886   5.484  21.682  0.00  0.00    -0.249 OA
BRANCH  16  18
ATOM     18  O   UNL     1      14.481   5.034  23.200  0.00  0.00    -0.480 OA
ATOM     19  H   UNL     1      15.071   5.077  22.427  0.00  0.00    +0.295 HD
ENDBRANCH  16  18
ENDBRANCH  12  16
ENDBRANCH  11  12
ENDBRANCH   1  11
TORSDOF 6
ENDMDL
MODEL 3
REMARK VINA RESULT:      -5.1      5.964      8.441
REMARK  Name = 
REMARK  6 active torsions:
REMARK  status: ('A' for Active; 'I' for Inactive)
REMARK    1  A    between atoms: CA_2  and  N_3
REMARK    2  A    between atoms: CA_2  and  C_4
REMARK    3  A    between atoms: CA_2  and  C_14
REMARK    4  A    between atoms: C_4  and  C_5
REMARK    5  A    between atoms: C_9  and  O_10
REMARK    6  A    between atoms: C_14  and  O_15
REMARK                            x       y       z     vdW  Elec       q    Type
REMARK                         _______ _______ _______ _____ _____    ______ ____
ROOT
ATOM      1  C   UNL     1       8.736  -2.261  24.608  0.00  0.00    -0.043 A 
ATOM      2  C   UNL     1       9.190  -1.390  23.603  0.00  0.00    +0.021 A 
ATOM      3  C   UNL     1       9.006  -0.006  23.717  0.00  0.00    +0.056 A 
ATOM      4  I   UNL     1       9.693   1.208  22.154  0.00  0.00    -0.040 I 
ATOM      5  C   UNL     1       8.373   0.530  24.840  0.00  0.00    +0.143 A 
ATOM      6  C   UNL     1       7.946  -0.327  25.859  0.00  0.00    +0.056 A 
ATOM      7  I   UNL     1       6.976   0.403  27.563  0.00  0.00    -0.040 I 
ATOM      8  C   UNL     1       8.146  -1.706  25.754  0.00  0.00    +0.021 A 
ENDROOT
BRANCH   5   9
ATOM      9  O   UNL     1       8.180   1.883  24.931  0.00  0.00    -0.505 OA
ATOM     10  H   UNL     1       7.363   2.097  24.447  0.00  0.00    +0.292 HD
ENDBRANCH   5   9
BRANCH   1  11
ATOM     11  C   UNL     1       8.928  -3.755  24.439  0.00  0.00    +0.065 C 
BRANCH  11  12
ATOM     12  CA  UNL     1       9.201  -4.580  25.715  0.00  0.00    +0.165 C 
BRANCH  12  13
ATOM     13  N   UNL     1      10.325  -5.514  25.468  0.00  0.00    -0.318 NA
ATOM     14  H1  UNL     1      10.186  -6.108  24.652  0.00  0.00    +0.119 HD
ATOM     15  H2  UNL     1      11.247  -5.094  25.531  0.00  0.00    +0.119 HD
ENDBRANCH  12  13
BRANCH  12  16
ATOM     16  C   UNL     1       7.930  -5.315  26.191  0.00  0.00    +0.322 C 
ATOM     17  OXT UNL     1       6.893  -5.404  25.549  0.00  0.00    -0.249 OA
BRANCH  16  18
ATOM     18  O   UNL     1       8.041  -5.858  27.428  0.00  0.00    -0.480 OA
ATOM     19  H   UNL     1       7.643  -5.271  28.095  0.00  0.00    +0.295 HD
ENDBRANCH  16  18
ENDBRANCH  12  16
ENDBRANCH  11  12
ENDBRANCH   1  11
TORSDOF 6
ENDMDL
MODEL 4
REMARK VINA RESULT:      -5.0      5.949      8.457
REMARK  Name = 
REMARK  6 active torsions:
REMARK  status: ('A' for Active; 'I' for Inactive)
REMARK    1  A    between atoms: CA_2  and  N_3
REMARK    2  A    between atoms: CA_2  and  C_4
REMARK    3  A    between atoms: CA_2  and  C_14
REMARK    4  A    between atoms: C_4  and  C_5
REMARK    5  A    between atoms: C_9  and  O_10
REMARK    6  A    between atoms: C_14  and  O_15
REMARK                            x       y       z     vdW  Elec       q    Type
REMARK                         _______ _______ _______ _____ _____    ______ ____
ROOT
ATOM      1  C   UNL     1       8.710  -2.268  24.491  0.00  0.00    -0.043 A 
ATOM      2  C   UNL     1       8.076  -1.739  25.628  0.00  0.00    +0.021 A 
ATOM      3  C   UNL     1       7.915  -0.355  25.781  0.00  0.00    +0.056 A 
ATOM      4  I   UNL     1       6.981   0.338  27.523  0.00  0.00    -0.040 I 
ATOM      5  C   UNL     1       8.378   0.519  24.796  0.00  0.00    +0.143 A 
ATOM      6  C   UNL     1       8.982  -0.001  23.647  0.00  0.00    +0.056 A 
ATOM      7  I   UNL     1       9.714   1.252  22.139  0.00  0.00    -0.040 I 
ATOM      8  C   UNL     1       9.127  -1.381  23.487  0.00  0.00    +0.021 A 
ENDROOT
BRANCH   5   9
ATOM      9  O   UNL     1       8.234   1.871  24.966  0.00  0.00    -0.505 OA
ATOM     10  H   UNL     1       8.545   2.305  24.151  0.00  0.00    +0.292 HD
ENDBRANCH   5   9
BRANCH   1  11
ATOM     11  C   UNL     1       8.893  -3.769  24.372  0.00  0.00    +0.065 C 
BRANCH  11  12
ATOM     12  CA  UNL     1       9.181  -4.548  25.674  0.00  0.00    +0.165 C 
BRANCH  12  13
ATOM     13  N   UNL     1      10.327  -5.464  25.457  0.00  0.00    -0.318 NA
ATOM     14  H1  UNL     1      10.555  -5.601  24.474  0.00  0.00    +0.119 HD
ATOM     15  H2  UNL     1      11.128  -5.289  26.055  0.00  0.00    +0.119 HD
ENDBRANCH  12  13
BRANCH  12  16
ATOM     16  C   UNL     1       7.926  -5.297  26.169  0.00  0.00    +0.322 C 
ATOM     17  OXT UNL     1       6.885  -5.408  25.538  0.00  0.00    -0.249 OA
BRANCH  16  18
ATOM     18  O   UNL     1       8.056  -5.825  27.410  0.00  0.00    -0.480 OA
ATOM     19  H   UNL     1       8.471  -5.182  28.013  0.00  0.00    +0.295 HD
ENDBRANCH  16  18
ENDBRANCH  12  16
ENDBRANCH  11  12
ENDBRANCH   1  11
TORSDOF 6
ENDMDL
MODEL 5
REMARK VINA RESULT:      -4.9      8.081     10.749
REMARK  Name = 
REMARK  6 active torsions:
REMARK  status: ('A' for Active; 'I' for Inactive)
REMARK    1  A    between atoms: CA_2  and  N_3
REMARK    2  A    between atoms: CA_2  and  C_4
REMARK    3  A    between atoms: CA_2  and  C_14
REMARK    4  A    between atoms: C_4  and  C_5
REMARK    5  A    between atoms: C_9  and  O_10
REMARK    6  A    between atoms: C_14  and  O_15
REMARK                            x       y       z     vdW  Elec       q    Type
REMARK                         _______ _______ _______ _____ _____    ______ ____
ROOT
ATOM      1  C   UNL     1       7.721  -4.558  25.789  0.00  0.00    -0.043 A 
ATOM      2  C   UNL     1       7.228  -5.161  24.620  0.00  0.00    +0.021 A 
ATOM      3  C   UNL     1       7.359  -4.529  23.376  0.00  0.00    +0.056 A 
ATOM      4  I   UNL     1       6.568  -5.495  21.694  0.00  0.00    -0.040 I 
ATOM      5  C   UNL     1       7.993  -3.289  23.282  0.00  0.00    +0.143 A 
ATOM      6  C   UNL     1       8.514  -2.696  24.436  0.00  0.00    +0.056 A 
ATOM      7  I   UNL     1       9.461  -0.831  24.372  0.00  0.00    -0.040 I 
ATOM      8  C   UNL     1       8.398  -3.334  25.673  0.00  0.00    +0.021 A 
ENDROOT
BRANCH   5   9
ATOM      9  O   UNL     1       8.099  -2.670  22.064  0.00  0.00    -0.505 OA
ATOM     10  H   UNL     1       7.499  -3.128  21.449  0.00  0.00    +0.292 HD
ENDBRANCH   5   9
BRANCH   1  11
ATOM     11  C   UNL     1       7.535  -5.258  27.121  0.00  0.00    +0.065 C 
BRANCH  11  12
ATOM     12  CA  UNL     1       6.087  -5.446  27.622  0.00  0.00    +0.165 C 
BRANCH  12  13
ATOM     13  N   UNL     1       5.480  -4.119  27.886  0.00  0.00    -0.318 NA
ATOM     14  H1  UNL     1       5.387  -3.543  27.052  0.00  0.00    +0.119 HD
ATOM     15  H2  UNL     1       4.654  -4.141  28.477  0.00  0.00    +0.119 HD
ENDBRANCH  12  13
BRANCH  12  16
ATOM     16  C   UNL     1       6.037  -6.363  28.863  0.00  0.00    +0.322 C 
ATOM     17  OXT UNL     1       6.376  -6.032  29.989  0.00  0.00    -0.249 OA
BRANCH  16  18
ATOM     18  O   UNL     1       5.595  -7.617  28.600  0.00  0.00    -0.480 OA
ATOM     19  H   UNL     1       6.289  -8.138  28.158  0.00  0.00    +0.295 HD
ENDBRANCH  16  18
ENDBRANCH  12  16
ENDBRANCH  11  12
ENDBRANCH   1  11
TORSDOF 6
ENDMDL
MODEL 6
REMARK VINA RESULT:      -4.9      3.678      5.215
REMARK  Name = 
REMARK  6 active torsions:
REMARK  status: ('A' for Active; 'I' for Inactive)
REMARK    1  A    between atoms: CA_2  and  N_3
REMARK    2  A    between atoms: CA_2  and  C_4
REMARK    3  A    between atoms: CA_2  and  C_14
REMARK    4  A    between atoms: C_4  and  C_5
REMARK    5  A    between atoms: C_9  and  O_10
REMARK    6  A    between atoms: C_14  and  O_15
REMARK                            x       y       z     vdW  Elec       q    Type
REMARK                         _______ _______ _______ _____ _____    ______ ____
ROOT
ATOM      1  C   UNL     1      10.205   1.914  24.084  0.00  0.00    -0.043 A 
ATOM      2  C   UNL     1      11.251   2.762  23.684  0.00  0.00    +0.021 A 
ATOM      3  C   UNL     1      11.054   4.146  23.581  0.00  0.00    +0.056 A 
ATOM      4  I   UNL     1      12.667   5.324  22.951  0.00  0.00    -0.040 I 
ATOM      5  C   UNL     1       9.810   4.703  23.884  0.00  0.00    +0.143 A 
ATOM      6  C   UNL     1       8.772   3.869  24.313  0.00  0.00    +0.056 A 
ATOM      7  I   UNL     1       6.878   4.632  24.767  0.00  0.00    -0.040 I 
ATOM      8  C   UNL     1       8.974   2.492  24.432  0.00  0.00    +0.021 A 
ENDROOT
BRANCH   5   9
ATOM      9  O   UNL     1       9.622   6.054  23.760  0.00  0.00    -0.505 OA
ATOM     10  H   UNL     1      10.086   6.485  24.500  0.00  0.00    +0.292 HD
ENDBRANCH   5   9
BRANCH   1  11
ATOM     11  C   UNL     1      10.447   0.419  24.157  0.00  0.00    +0.065 C 
BRANCH  11  12
ATOM     12  CA  UNL     1       9.422  -0.495  23.452  0.00  0.00    +0.165 C 
BRANCH  12  13
ATOM     13  N   UNL     1       9.511  -1.864  24.016  0.00  0.00    -0.318 NA
ATOM     14  H1  UNL     1       9.015  -1.972  24.898  0.00  0.00    +0.119 HD
ATOM     15  H2  UNL     1       9.347  -2.609  23.346  0.00  0.00    +0.119 HD
ENDBRANCH  12  13
BRANCH  12  16
ATOM     16  C   UNL     1       9.621  -0.486  21.921  0.00  0.00    +0.322 C 
ATOM     17  OXT UNL     1       9.225   0.395  21.171  0.00  0.00    -0.249 OA
BRANCH  16  18
ATOM     18  O   UNL     1      10.270  -1.576  21.445  0.00  0.00    -0.480 OA
ATOM     19  H   UNL     1      11.228  -1.497  21.596  0.00  0.00    +0.295 HD
ENDBRANCH  16  18
ENDBRANCH  12  16
ENDBRANCH  11  12
ENDBRANCH   1  11
TORSDOF 6
ENDMDL
MODEL 7
REMARK VINA RESULT:      -4.9      6.436      7.988
REMARK  Name = 
REMARK  6 active torsions:
REMARK  status: ('A' for Active; 'I' for Inactive)
REMARK    1  A    between atoms: CA_2  and  N_3
REMARK    2  A    between atoms: CA_2  and  C_4
REMARK    3  A    between atoms: CA_2  and  C_14
REMARK    4  A    between atoms: C_4  and  C_5
REMARK    5  A    between atoms: C_9  and  O_10
REMARK    6  A    between atoms: C_14  and  O_15
REMARK                            x       y       z     vdW  Elec       q    Type
REMARK                         _______ _______ _______ _____ _____    ______ ____
ROOT
ATOM      1  C   UNL     1       8.652  -3.433  24.263  0.00  0.00    -0.043 A 
ATOM      2  C   UNL     1       8.086  -4.012  23.115  0.00  0.00    +0.021 A 
ATOM      3  C   UNL     1       7.001  -4.893  23.216  0.00  0.00    +0.056 A 
ATOM      4  I   UNL     1       6.243  -5.725  21.450  0.00  0.00    -0.040 I 
ATOM      5  C   UNL     1       6.461  -5.202  24.466  0.00  0.00    +0.143 A 
ATOM      6  C   UNL     1       7.000  -4.607  25.611  0.00  0.00    +0.056 A 
ATOM      7  I   UNL     1       6.252  -5.037  27.517  0.00  0.00    -0.040 I 
ATOM      8  C   UNL     1       8.070  -3.715  25.508  0.00  0.00    +0.021 A 
ENDROOT
BRANCH   5   9
ATOM      9  O   UNL     1       5.414  -6.081  24.555  0.00  0.00    -0.505 OA
ATOM     10  H   UNL     1       5.779  -6.951  24.795  0.00  0.00    +0.292 HD
ENDBRANCH   5   9
BRANCH   1  11
ATOM     11  C   UNL     1       9.843  -2.506  24.117  0.00  0.00    +0.065 C 
BRANCH  11  12
ATOM     12  CA  UNL     1       9.680  -1.294  23.175  0.00  0.00    +0.165 C 
BRANCH  12  13
ATOM     13  N   UNL     1      10.325  -1.590  21.873  0.00  0.00    -0.318 NA
ATOM     14  H1  UNL     1      11.034  -2.319  21.929  0.00  0.00    +0.119 HD
ATOM     15  H2  UNL     1       9.681  -1.687  21.094  0.00  0.00    +0.119 HD
ENDBRANCH  12  13
BRANCH  12  16
ATOM     16  C   UNL     1      10.238  -0.005  23.818  0.00  0.00    +0.322 C 
ATOM     17  OXT UNL     1      10.549   0.110  24.994  0.00  0.00    -0.249 OA
BRANCH  16  18
ATOM     18  O   UNL     1      10.340   1.037  22.957  0.00  0.00    -0.480 OA
ATOM     19  H   UNL     1      10.232   1.882  23.429  0.00  0.00    +0.295 HD
ENDBRANCH  16  18
ENDBRANCH  12  16
ENDBRANCH  11  12
ENDBRANCH   1  11
TORSDOF 6
ENDMDL
MODEL 8
REMARK VINA RESULT:      -4.8      6.371      7.831
REMARK  Name = 
REMARK  6 active torsions:
REMARK  status: ('A' for Active; 'I' for Inactive)
REMARK    1  A    between atoms: CA_2  and  N_3
REMARK    2  A    between atoms: CA_2  and  C_4
REMARK    3  A    between atoms: CA_2  and  C_14
REMARK    4  A    between atoms: C_4  and  C_5
REMARK    5  A    between atoms: C_9  and  O_10
REMARK    6  A    between atoms: C_14  and  O_15
REMARK                            x       y       z     vdW  Elec       q    Type
REMARK                         _______ _______ _______ _____ _____    ______ ____
ROOT
ATOM      1  C   UNL     1       8.618  -3.316  24.217  0.00  0.00    -0.043 A 
ATOM      2  C   UNL     1       8.066  -3.629  25.471  0.00  0.00    +0.021 A 
ATOM      3  C   UNL     1       6.994  -4.525  25.580  0.00  0.00    +0.056 A 
ATOM      4  I   UNL     1       6.223  -4.907  27.489  0.00  0.00    -0.040 I 
ATOM      5  C   UNL     1       6.464  -5.128  24.438  0.00  0.00    +0.143 A 
ATOM      6  C   UNL     1       7.028  -4.846  23.189  0.00  0.00    +0.056 A 
ATOM      7  I   UNL     1       6.274  -5.700  21.435  0.00  0.00    -0.040 I 
ATOM      8  C   UNL     1       8.108  -3.965  23.083  0.00  0.00    +0.021 A 
ENDROOT
BRANCH   5   9
ATOM      9  O   UNL     1       5.403  -5.987  24.553  0.00  0.00    -0.505 OA
ATOM     10  H   UNL     1       5.744  -6.831  24.899  0.00  0.00    +0.292 HD
ENDBRANCH   5   9
BRANCH   1  11
ATOM     11  C   UNL     1       9.758  -2.319  24.135  0.00  0.00    +0.065 C 
BRANCH  11  12
ATOM     12  CA  UNL     1       9.633  -1.190  23.090  0.00  0.00    +0.165 C 
BRANCH  12  13
ATOM     13  N   UNL     1      10.317  -1.597  21.839  0.00  0.00    -0.318 NA
ATOM     14  H1  UNL     1      10.251  -0.903  21.097  0.00  0.00    +0.119 HD
ATOM     15  H2  UNL     1      11.246  -1.984  21.972  0.00  0.00    +0.119 HD
ENDBRANCH  12  13
BRANCH  12  16
ATOM     16  C   UNL     1      10.177   0.146  23.640  0.00  0.00    +0.322 C 
ATOM     17  OXT UNL     1      10.275   1.178  22.993  0.00  0.00    -0.249 OA
BRANCH  16  18
ATOM     18  O   UNL     1      10.576   0.085  24.933  0.00  0.00    -0.480 OA
ATOM     19  H   UNL     1       9.886  -0.324  25.486  0.00  0.00    +0.295 HD
ENDBRANCH  16  18
ENDBRANCH  12  16
ENDBRANCH  11  12
ENDBRANCH   1  11
TORSDOF 6
ENDMDL
MODEL 9
REMARK VINA RESULT:      -4.8      6.290      8.454
REMARK  Name = 
REMARK  6 active torsions:
REMARK  status: ('A' for Active; 'I' for Inactive)
REMARK    1  A    between atoms: CA_2  and  N_3
REMARK    2  A    between atoms: CA_2  and  C_4
REMARK    3  A    between atoms: CA_2  and  C_14
REMARK    4  A    between atoms: C_4  and  C_5
REMARK    5  A    between atoms: C_9  and  O_10
REMARK    6  A    between atoms: C_14  and  O_15
REMARK                            x       y       z     vdW  Elec       q    Type
REMARK                         _______ _______ _______ _____ _____    ______ ____
ROOT
ATOM      1  C   UNL     1       8.216  -2.179  25.701  0.00  0.00    -0.043 A 
ATOM      2  C   UNL     1       7.161  -1.361  26.141  0.00  0.00    +0.021 A 
ATOM      3  C   UNL     1       6.772  -0.235  25.404  0.00  0.00    +0.056 A 
ATOM      4  I   UNL     1       5.207   0.937  26.154  0.00  0.00    -0.040 I 
ATOM      5  C   UNL     1       7.426   0.087  24.213  0.00  0.00    +0.143 A 
ATOM      6  C   UNL     1       8.457  -0.740  23.753  0.00  0.00    +0.056 A 
ATOM      7  I   UNL     1       9.492  -0.310  21.987  0.00  0.00    -0.040 I 
ATOM      8  C   UNL     1       8.832  -1.873  24.479  0.00  0.00    +0.021 A 
ENDROOT
BRANCH   5   9
ATOM      9  O   UNL     1       7.052   1.202  23.512  0.00  0.00    -0.505 OA
ATOM     10  H   UNL     1       7.858   1.595  23.133  0.00  0.00    +0.292 HD
ENDBRANCH   5   9
BRANCH   1  11
ATOM     11  C   UNL     1       8.628  -3.375  26.539  0.00  0.00    +0.065 C 
BRANCH  11  12
ATOM     12  CA  UNL     1       8.129  -4.762  26.079  0.00  0.00    +0.165 C 
BRANCH  12  13
ATOM     13  N   UNL     1       8.037  -5.666  27.251  0.00  0.00    -0.318 NA
ATOM     14  H1  UNL     1       8.242  -5.205  28.135  0.00  0.00    +0.119 HD
ATOM     15  H2  UNL     1       7.212  -6.258  27.265  0.00  0.00    +0.119 HD
ENDBRANCH  12  13
BRANCH  12  16
ATOM     16  C   UNL     1       9.031  -5.342  24.969  0.00  0.00    +0.322 C 
ATOM     17  OXT UNL     1       8.683  -5.525  23.811  0.00  0.00    -0.249 OA
BRANCH  16  18
ATOM     18  O   UNL     1      10.277  -5.670  25.390  0.00  0.00    -0.480 OA
ATOM     19  H   UNL     1      10.593  -5.032  26.054  0.00  0.00    +0.295 HD
ENDBRANCH  16  18
ENDBRANCH  12  16
ENDBRANCH  11  12
ENDBRANCH   1  11
TORSDOF 6
ENDMDL
