MODEL 1
REMARK VINA RESULT:      -4.0      0.000      0.000
REMARK  Name = 
REMARK  6 active torsions:
REMARK  status: ('A' for Active; 'I' for Inactive)
REMARK    1  A    between atoms: C_1  and  O_2
REMARK    2  A    between atoms: O_2  and  C_3
REMARK    3  A    between atoms: C_4  and  CA_5
REMARK    4  A    between atoms: CA_5  and  N_7
REMARK    5  A    between atoms: CA_5  and  C_8
REMARK    6  A    between atoms: C_8  and  O_9
REMARK                            x       y       z     vdW  Elec       q    Type
REMARK                         _______ _______ _______ _____ _____    ______ ____
ROOT
ATOM      1  CA  UNL     1       8.853  -5.458  25.342  0.00  0.00    +0.187 C 
ENDROOT
BRANCH   1   2
ATOM      2  N   UNL     1      10.338  -5.502  25.429  0.00  0.00    -0.315 NA
ATOM      3  H1  UNL     1      10.709  -4.910  24.678  0.00  0.00    +0.119 HD
ATOM      4  H2  UNL     1      10.606  -5.009  26.285  0.00  0.00    +0.119 HD
ENDBRANCH   1   2
BRANCH   1   6
ATOM      5  C   UNL     1       7.603  -4.910  23.242  0.00  0.00    +0.184 C 
ATOM      6  C   UNL     1       8.451  -4.563  24.215  0.00  0.00    +0.040 C 
BRANCH   5   8
ATOM      7  C   UNL     1       7.787  -2.725  22.460  0.00  0.00    +0.276 C 
ATOM      8  O   UNL     1       7.302  -4.044  22.226  0.00  0.00    -0.503 OA
ENDBRANCH   5   8
ENDBRANCH   1   6
BRANCH   1   9
ATOM      9  C   UNL     1       8.302  -4.897  26.671  0.00  0.00    +0.326 C 
ATOM     10  OXT UNL     1       8.230  -3.711  26.960  0.00  0.00    -0.249 OA
BRANCH   9  11
ATOM     11  O   UNL     1       7.912  -5.895  27.509  0.00  0.00    -0.479 OA
ATOM     12  H   UNL     1       7.432  -6.553  26.949  0.00  0.00    +0.295 HD
ENDBRANCH   9  11
ENDBRANCH   1   9
TORSDOF 5
ENDMDL
MODEL 2
REMARK VINA RESULT:      -4.0      9.512     10.766
REMARK  Name = 
REMARK  6 active torsions:
REMARK  status: ('A' for Active; 'I' for Inactive)
REMARK    1  A    between atoms: C_1  and  O_2
REMARK    2  A    between atoms: O_2  and  C_3
REMARK    3  A    between atoms: C_4  and  CA_5
REMARK    4  A    between atoms: CA_5  and  N_7
REMARK    5  A    between atoms: CA_5  and  C_8
REMARK    6  A    between atoms: C_8  and  O_9
REMARK                            x       y       z     vdW  Elec       q    Type
REMARK                         _______ _______ _______ _____ _____    ______ ____
ROOT
ATOM      1  CA  UNL     1      12.223   5.733  23.283  0.00  0.00    +0.187 C 
ENDROOT
BRANCH   1   2
ATOM      2  N   UNL     1      12.611   6.216  24.637  0.00  0.00    -0.315 NA
ATOM      3  H1  UNL     1      11.776   6.169  25.232  0.00  0.00    +0.119 HD
ATOM      4  H2  UNL     1      13.239   5.515  25.039  0.00  0.00    +0.119 HD
ENDBRANCH   1   2
BRANCH   1   6
ATOM      5  C   UNL     1      10.176   4.378  23.780  0.00  0.00    +0.184 C 
ATOM      6  C   UNL     1      11.459   4.455  23.415  0.00  0.00    +0.040 C 
BRANCH   5   8
ATOM      7  C   UNL     1      10.460   2.073  23.935  0.00  0.00    +0.276 C 
ATOM      8  O   UNL     1       9.549   3.168  23.906  0.00  0.00    -0.503 OA
ENDBRANCH   5   8
ENDBRANCH   1   6
BRANCH   1   9
ATOM      9  C   UNL     1      13.509   5.485  22.465  0.00  0.00    +0.326 C 
ATOM     10  OXT UNL     1      13.629   5.679  21.263  0.00  0.00    -0.249 OA
BRANCH   9  11
ATOM     11  O   UNL     1      14.510   4.999  23.248  0.00  0.00    -0.479 OA
ATOM     12  H   UNL     1      14.125   4.239  23.749  0.00  0.00    +0.295 HD
ENDBRANCH   9  11
ENDBRANCH   1   9
TORSDOF 5
ENDMDL
MODEL 3
REMARK VINA RESULT:      -3.9      1.256      1.318
REMARK  Name = 
REMARK  6 active torsions:
REMARK  status: ('A' for Active; 'I' for Inactive)
REMARK    1  A    between atoms: C_1  and  O_2
REMARK    2  A    between atoms: O_2  and  C_3
REMARK    3  A    between atoms: C_4  and  CA_5
REMARK    4  A    between atoms: CA_5  and  N_7
REMARK    5  A    between atoms: CA_5  and  C_8
REMARK    6  A    between atoms: C_8  and  O_9
REMARK                            x       y       z     vdW  Elec       q    Type
REMARK                         _______ _______ _______ _____ _____    ______ ____
ROOT
ATOM      1  CA  UNL     1       8.890  -5.010  25.151  0.00  0.00    +0.187 C 
ENDROOT
BRANCH   1   2
ATOM      2  N   UNL     1      10.218  -5.623  25.430  0.00  0.00    -0.315 NA
ATOM      3  H1  UNL     1      10.155  -6.618  25.189  0.00  0.00    +0.119 HD
ATOM      4  H2  UNL     1      10.876  -5.245  24.743  0.00  0.00    +0.119 HD
ENDBRANCH   1   2
BRANCH   1   6
ATOM      5  C   UNL     1       8.326  -3.363  23.352  0.00  0.00    +0.184 C 
ATOM      6  C   UNL     1       9.083  -3.742  24.384  0.00  0.00    +0.040 C 
BRANCH   5   8
ATOM      7  C   UNL     1       9.922  -1.746  22.843  0.00  0.00    +0.276 C 
ATOM      8  O   UNL     1       8.580  -2.198  22.679  0.00  0.00    -0.503 OA
ENDBRANCH   5   8
ENDBRANCH   1   6
BRANCH   1   9
ATOM      9  C   UNL     1       8.202  -4.700  26.498  0.00  0.00    +0.326 C 
ATOM     10  OXT UNL     1       7.773  -3.606  26.837  0.00  0.00    -0.249 OA
BRANCH   9  11
ATOM     11  O   UNL     1       8.140  -5.805  27.290  0.00  0.00    -0.479 OA
ATOM     12  H   UNL     1       8.909  -6.370  27.036  0.00  0.00    +0.295 HD
ENDBRANCH   9  11
ENDBRANCH   1   9
TORSDOF 5
ENDMDL
MODEL 4
REMARK VINA RESULT:      -3.8      2.168      2.406
REMARK  Name = 
REMARK  6 active torsions:
REMARK  status: ('A' for Active; 'I' for Inactive)
REMARK    1  A    between atoms: C_1  and  O_2
REMARK    2  A    between atoms: O_2  and  C_3
REMARK    3  A    between atoms: C_4  and  CA_5
REMARK    4  A    between atoms: CA_5  and  N_7
REMARK    5  A    between atoms: CA_5  and  C_8
REMARK    6  A    between atoms: C_8  and  O_9
REMARK                            x       y       z     vdW  Elec       q    Type
REMARK                         _______ _______ _______ _____ _____    ______ ____
ROOT
ATOM      1  CA  UNL     1       8.022  -4.770  25.970  0.00  0.00    +0.187 C 
ENDROOT
BRANCH   1   2
ATOM      2  N   UNL     1       8.004  -5.594  27.210  0.00  0.00    -0.315 NA
ATOM      3  H1  UNL     1       8.962  -5.920  27.378  0.00  0.00    +0.119 HD
ATOM      4  H2  UNL     1       7.820  -4.959  27.992  0.00  0.00    +0.119 HD
ENDBRANCH   1   2
BRANCH   1   6
ATOM      5  C   UNL     1       7.003  -5.176  23.719  0.00  0.00    +0.184 C 
ATOM      6  C   UNL     1       6.938  -5.235  25.052  0.00  0.00    +0.040 C 
BRANCH   5   8
ATOM      7  C   UNL     1       6.357  -5.962  21.625  0.00  0.00    +0.276 C 
ATOM      8  O   UNL     1       5.957  -5.598  22.943  0.00  0.00    -0.503 OA
ENDBRANCH   5   8
ENDBRANCH   1   6
BRANCH   1   9
ATOM      9  C   UNL     1       9.394  -4.949  25.284  0.00  0.00    +0.326 C 
ATOM     10  OXT UNL     1       9.951  -4.107  24.593  0.00  0.00    -0.249 OA
BRANCH   9  11
ATOM     11  O   UNL     1       9.915  -6.181  25.528  0.00  0.00    -0.479 OA
ATOM     12  H   UNL     1       9.864  -6.676  24.674  0.00  0.00    +0.295 HD
ENDBRANCH   9  11
ENDBRANCH   1   9
TORSDOF 5
ENDMDL
MODEL 5
REMARK VINA RESULT:      -3.7      3.129      4.710
REMARK  Name = 
REMARK  6 active torsions:
REMARK  status: ('A' for Active; 'I' for Inactive)
REMARK    1  A    between atoms: C_1  and  O_2
REMARK    2  A    between atoms: O_2  and  C_3
REMARK    3  A    between atoms: C_4  and  CA_5
REMARK    4  A    between atoms: CA_5  and  N_7
REMARK    5  A    between atoms: CA_5  and  C_8
REMARK    6  A    between atoms: C_8  and  O_9
REMARK                            x       y       z     vdW  Elec       q    Type
REMARK                         _______ _______ _______ _____ _____    ______ ____
ROOT
ATOM      1  CA  UNL     1       6.090  -4.492  22.386  0.00  0.00    +0.187 C 
ENDROOT
BRANCH   1   2
ATOM      2  N   UNL     1       5.488  -3.298  21.731  0.00  0.00    -0.315 NA
ATOM      3  H1  UNL     1       4.502  -3.511  21.548  0.00  0.00    +0.119 HD
ATOM      4  H2  UNL     1       5.454  -2.554  22.433  0.00  0.00    +0.119 HD
ENDBRANCH   1   2
BRANCH   1   6
ATOM      5  C   UNL     1       8.055  -4.641  23.931  0.00  0.00    +0.184 C 
ATOM      6  C   UNL     1       7.482  -4.168  22.820  0.00  0.00    +0.040 C 
BRANCH   5   8
ATOM      7  C   UNL     1       9.585  -2.892  24.069  0.00  0.00    +0.276 C 
ATOM      8  O   UNL     1       9.328  -4.277  24.278  0.00  0.00    -0.503 OA
ENDBRANCH   5   8
ENDBRANCH   1   6
BRANCH   1   9
ATOM      9  C   UNL     1       6.123  -5.647  21.361  0.00  0.00    +0.326 C 
ATOM     10  OXT UNL     1       6.035  -5.517  20.148  0.00  0.00    -0.249 OA
BRANCH   9  11
ATOM     11  O   UNL     1       6.245  -6.854  21.977  0.00  0.00    -0.479 OA
ATOM     12  H   UNL     1       6.669  -7.457  21.319  0.00  0.00    +0.295 HD
ENDBRANCH   9  11
ENDBRANCH   1   9
TORSDOF 5
ENDMDL
MODEL 6
REMARK VINA RESULT:      -3.7      5.523      6.702
REMARK  Name = 
REMARK  6 active torsions:
REMARK  status: ('A' for Active; 'I' for Inactive)
REMARK    1  A    between atoms: C_1  and  O_2
REMARK    2  A    between atoms: O_2  and  C_3
REMARK    3  A    between atoms: C_4  and  CA_5
REMARK    4  A    between atoms: CA_5  and  N_7
REMARK    5  A    between atoms: CA_5  and  C_8
REMARK    6  A    between atoms: C_8  and  O_9
REMARK                            x       y       z     vdW  Elec       q    Type
REMARK                         _______ _______ _______ _____ _____    ______ ____
ROOT
ATOM      1  CA  UNL     1      10.178   1.808  22.535  0.00  0.00    +0.187 C 
ENDROOT
BRANCH   1   2
ATOM      2  N   UNL     1       9.143   2.137  21.517  0.00  0.00    -0.315 NA
ATOM      3  H1  UNL     1       8.715   1.255  21.216  0.00  0.00    +0.119 HD
ATOM      4  H2  UNL     1       8.385   2.624  22.004  0.00  0.00    +0.119 HD
ENDBRANCH   1   2
BRANCH   1   6
ATOM      5  C   UNL     1       9.810  -0.559  21.804  0.00  0.00    +0.184 C 
ATOM      6  C   UNL     1      10.250   0.325  22.704  0.00  0.00    +0.040 C 
BRANCH   5   8
ATOM      7  C   UNL     1       9.865  -2.224  23.430  0.00  0.00    +0.276 C 
ATOM      8  O   UNL     1       9.885  -1.905  22.042  0.00  0.00    -0.503 OA
ENDBRANCH   5   8
ENDBRANCH   1   6
BRANCH   1   9
ATOM      9  C   UNL     1       9.775   2.464  23.873  0.00  0.00    +0.326 C 
ATOM     10  OXT UNL     1       9.446   3.633  24.015  0.00  0.00    -0.249 OA
BRANCH   9  11
ATOM     11  O   UNL     1       9.845   1.577  24.902  0.00  0.00    -0.479 OA
ATOM     12  H   UNL     1      10.774   1.241  24.914  0.00  0.00    +0.295 HD
ENDBRANCH   9  11
ENDBRANCH   1   9
TORSDOF 5
ENDMDL
MODEL 7
REMARK VINA RESULT:      -3.7      2.886      3.075
REMARK  Name = 
REMARK  6 active torsions:
REMARK  status: ('A' for Active; 'I' for Inactive)
REMARK    1  A    between atoms: C_1  and  O_2
REMARK    2  A    between atoms: O_2  and  C_3
REMARK    3  A    between atoms: C_4  and  CA_5
REMARK    4  A    between atoms: CA_5  and  N_7
REMARK    5  A    between atoms: CA_5  and  C_8
REMARK    6  A    between atoms: C_8  and  O_9
REMARK                            x       y       z     vdW  Elec       q    Type
REMARK                         _______ _______ _______ _____ _____    ______ ____
ROOT
ATOM      1  CA  UNL     1       8.596  -4.155  24.616  0.00  0.00    +0.187 C 
ENDROOT
BRANCH   1   2
ATOM      2  N   UNL     1       8.385  -5.198  23.575  0.00  0.00    -0.315 NA
ATOM      3  H1  UNL     1       9.212  -5.201  22.968  0.00  0.00    +0.119 HD
ATOM      4  H2  UNL     1       8.421  -6.107  24.045  0.00  0.00    +0.119 HD
ENDBRANCH   1   2
BRANCH   1   6
ATOM      5  C   UNL     1       9.439  -1.799  24.518  0.00  0.00    +0.184 C 
ATOM      6  C   UNL     1       9.422  -3.048  24.045  0.00  0.00    +0.040 C 
BRANCH   5   8
ATOM      7  C   UNL     1      10.522   0.241  24.808  0.00  0.00    +0.276 C 
ATOM      8  O   UNL     1      10.202  -0.829  23.925  0.00  0.00    -0.503 OA
ENDBRANCH   5   8
ENDBRANCH   1   6
BRANCH   1   9
ATOM      9  C   UNL     1       9.341  -4.796  25.806  0.00  0.00    +0.326 C 
ATOM     10  OXT UNL     1       9.055  -4.640  26.985  0.00  0.00    -0.249 OA
BRANCH   9  11
ATOM     11  O   UNL     1      10.387  -5.559  25.386  0.00  0.00    -0.479 OA
ATOM     12  H   UNL     1      11.205  -5.099  25.696  0.00  0.00    +0.295 HD
ENDBRANCH   9  11
ENDBRANCH   1   9
TORSDOF 5
ENDMDL
MODEL 8
REMARK VINA RESULT:      -3.5      4.491      6.266
REMARK  Name = 
REMARK  6 active torsions:
REMARK  status: ('A' for Active; 'I' for Inactive)
REMARK    1  A    between atoms: C_1  and  O_2
REMARK    2  A    between atoms: O_2  and  C_3
REMARK    3  A    between atoms: C_4  and  CA_5
REMARK    4  A    between atoms: CA_5  and  N_7
REMARK    5  A    between atoms: CA_5  and  C_8
REMARK    6  A    between atoms: C_8  and  O_9
REMARK                            x       y       z     vdW  Elec       q    Type
REMARK                         _______ _______ _______ _____ _____    ______ ____
ROOT
ATOM      1  CA  UNL     1       9.509   0.754  23.430  0.00  0.00    +0.187 C 
ENDROOT
BRANCH   1   2
ATOM      2  N   UNL     1      10.770   1.179  24.096  0.00  0.00    -0.315 NA
ATOM      3  H1  UNL     1      11.549   0.758  23.579  0.00  0.00    +0.119 HD
ATOM      4  H2  UNL     1      10.878   2.183  23.928  0.00  0.00    +0.119 HD
ENDBRANCH   1   2
BRANCH   1   6
ATOM      5  C   UNL     1      10.255  -1.632  23.573  0.00  0.00    +0.184 C 
ATOM      6  C   UNL     1       9.296  -0.706  23.662  0.00  0.00    +0.040 C 
BRANCH   5   8
ATOM      7  C   UNL     1       8.581  -3.235  23.785  0.00  0.00    +0.276 C 
ATOM      8  O   UNL     1       9.978  -2.957  23.772  0.00  0.00    -0.503 OA
ENDBRANCH   5   8
ENDBRANCH   1   6
BRANCH   1   9
ATOM      9  C   UNL     1       9.640   1.025  21.915  0.00  0.00    +0.326 C 
ATOM     10  OXT UNL     1       9.273   0.266  21.029  0.00  0.00    -0.249 OA
BRANCH   9  11
ATOM     11  O   UNL     1      10.239   2.222  21.674  0.00  0.00    -0.479 OA
ATOM     12  H   UNL     1      10.680   2.485  22.518  0.00  0.00    +0.295 HD
ENDBRANCH   9  11
ENDBRANCH   1   9
TORSDOF 5
ENDMDL
MODEL 9
REMARK VINA RESULT:      -3.5      4.620      6.030
REMARK  Name = 
REMARK  6 active torsions:
REMARK  status: ('A' for Active; 'I' for Inactive)
REMARK    1  A    between atoms: C_1  and  O_2
REMARK    2  A    between atoms: O_2  and  C_3
REMARK    3  A    between atoms: C_4  and  CA_5
REMARK    4  A    between atoms: CA_5  and  N_7
REMARK    5  A    between atoms: CA_5  and  C_8
REMARK    6  A    between atoms: C_8  and  O_9
REMARK                            x       y       z     vdW  Elec       q    Type
REMARK                         _______ _______ _______ _____ _____    ______ ____
ROOT
ATOM      1  CA  UNL     1      10.498  -0.176  23.312  0.00  0.00    +0.187 C 
ENDROOT
BRANCH   1   2
ATOM      2  N   UNL     1       9.808  -0.066  24.626  0.00  0.00    -0.315 NA
ATOM      3  H1  UNL     1       8.943   0.466  24.477  0.00  0.00    +0.119 HD
ATOM      4  H2  UNL     1       9.480  -1.004  24.875  0.00  0.00    +0.119 HD
ENDBRANCH   1   2
BRANCH   1   6
ATOM      5  C   UNL     1       8.766   1.472  22.570  0.00  0.00    +0.184 C 
ATOM      6  C   UNL     1       9.909   0.813  22.360  0.00  0.00    +0.040 C 
BRANCH   5   8
ATOM      7  C   UNL     1       7.189   3.128  22.130  0.00  0.00    +0.276 C 
ATOM      8  O   UNL     1       8.273   2.345  21.637  0.00  0.00    -0.503 OA
ENDBRANCH   5   8
ENDBRANCH   1   6
BRANCH   1   9
ATOM      9  C   UNL     1      10.290  -1.606  22.769  0.00  0.00    +0.326 C 
ATOM     10  OXT UNL     1      10.267  -2.623  23.448  0.00  0.00    -0.249 OA
BRANCH   9  11
ATOM     11  O   UNL     1      10.149  -1.608  21.416  0.00  0.00    -0.479 OA
ATOM     12  H   UNL     1      10.868  -1.029  21.063  0.00  0.00    +0.295 HD
ENDBRANCH   9  11
ENDBRANCH   1   9
TORSDOF 5
ENDMDL
