MODEL 1
REMARK VINA RESULT:      -9.1      0.000      0.000
REMARK  Name = 
REMARK  4 active torsions:
REMARK  status: ('A' for Active; 'I' for Inactive)
REMARK    1  A    between atoms: C_6  and  N_7
REMARK    2  A    between atoms: C_6  and  C_22
REMARK    3  A    between atoms: C_25  and  O_26
REMARK    4  A    between atoms: O_26  and  C_27
REMARK                            x       y       z     vdW  Elec       q    Type
REMARK                         _______ _______ _______ _____ _____    ______ ____
ROOT
ATOM      1  O   UNL     1       5.694  -3.763  20.994  0.00  0.00    -0.252 OA
ATOM      2  C   UNL     1       6.317  -3.269  21.927  0.00  0.00    +0.312 C 
ATOM      3  N   UNL     1       7.552  -3.696  22.261  0.00  0.00    -0.238 N 
ATOM      4  H   UNL     1       7.869  -4.513  21.756  0.00  0.00    +0.159 HD
ATOM      5  C   UNL     1       8.139  -3.509  23.482  0.00  0.00    +0.255 C 
ATOM      6  O   UNL     1       8.989  -4.344  23.793  0.00  0.00    -0.272 OA
ATOM      7  C   UNL     1       7.746  -2.206  24.298  0.00  0.00    +0.201 C 
ATOM      8  C   UNL     1       6.262  -1.830  23.890  0.00  0.00    +0.255 C 
ATOM      9  O   UNL     1       5.511  -1.071  24.509  0.00  0.00    -0.272 OA
ATOM     10  N   UNL     1       5.765  -2.324  22.719  0.00  0.00    -0.238 N 
ATOM     11  H   UNL     1       4.820  -2.049  22.491  0.00  0.00    +0.159 HD
ENDROOT
BRANCH   7  12
ATOM     12  N   UNL     1       7.952  -2.329  25.798  0.00  0.00    -0.275 NA
ATOM     13  C   UNL     1       8.523  -3.573  26.357  0.00  0.00    +0.105 C 
ATOM     14  C   UNL     1       7.479  -4.699  26.595  0.00  0.00    +0.123 C 
ATOM     15  N   UNL     1       6.390  -4.169  27.417  0.00  0.00    -0.297 N 
ATOM     16  C   UNL     1       5.638  -5.028  28.182  0.00  0.00    +0.218 A 
ATOM     17  N   UNL     1       4.710  -4.499  29.000  0.00  0.00    -0.223 NA
ATOM     18  C   UNL     1       4.058  -5.328  29.835  0.00  0.00    +0.116 A 
ATOM     19  C   UNL     1       4.265  -6.681  29.869  0.00  0.00    +0.039 A 
ATOM     20  C   UNL     1       5.204  -7.142  28.984  0.00  0.00    +0.116 A 
ATOM     21  N   UNL     1       5.900  -6.345  28.150  0.00  0.00    -0.223 NA
ATOM     22  C   UNL     1       5.785  -2.912  26.975  0.00  0.00    +0.123 C 
ATOM     23  C   UNL     1       6.904  -1.872  26.735  0.00  0.00    +0.105 C 
ENDBRANCH   7  12
BRANCH   7  24
ATOM     24  C   UNL     1       8.700  -1.052  23.841  0.00  0.00    -0.009 A 
ATOM     25  C   UNL     1       9.710  -0.576  24.700  0.00  0.00    +0.010 A 
ATOM     26  C   UNL     1      10.521   0.504  24.343  0.00  0.00    +0.046 A 
ATOM     27  C   UNL     1      10.279   1.203  23.162  0.00  0.00    +0.128 A 
ATOM     28  C   UNL     1       9.322   0.724  22.273  0.00  0.00    +0.046 A 
ATOM     29  C   UNL     1       8.533  -0.384  22.610  0.00  0.00    +0.010 A 
BRANCH  27  30
ATOM     30  O   UNL     1      10.943   2.352  22.792  0.00  0.00    -0.456 OA
BRANCH  30  31
ATOM     31  C   UNL     1      10.580   3.557  23.360  0.00  0.00    +0.128 A 
ATOM     32  C   UNL     1       9.315   3.833  23.888  0.00  0.00    +0.046 A 
ATOM     33  C   UNL     1       9.073   5.048  24.530  0.00  0.00    +0.004 A 
ATOM     34  C   UNL     1      10.071   6.020  24.579  0.00  0.00    +0.000 A 
ATOM     35  C   UNL     1      11.303   5.784  23.969  0.00  0.00    +0.004 A 
ATOM     36  C   UNL     1      11.557   4.553  23.360  0.00  0.00    +0.046 A 
ENDBRANCH  30  31
ENDBRANCH  27  30
ENDBRANCH   7  24
TORSDOF 4
ENDMDL
MODEL 2
REMARK VINA RESULT:      -8.6      1.338      1.762
REMARK  Name = 
REMARK  4 active torsions:
REMARK  status: ('A' for Active; 'I' for Inactive)
REMARK    1  A    between atoms: C_6  and  N_7
REMARK    2  A    between atoms: C_6  and  C_22
REMARK    3  A    between atoms: C_25  and  O_26
REMARK    4  A    between atoms: O_26  and  C_27
REMARK                            x       y       z     vdW  Elec       q    Type
REMARK                         _______ _______ _______ _____ _____    ______ ____
ROOT
ATOM      1  O   UNL     1       5.797  -5.987  21.308  0.00  0.00    -0.252 OA
ATOM      2  C   UNL     1       6.315  -5.272  22.157  0.00  0.00    +0.312 C 
ATOM      3  N   UNL     1       7.576  -5.482  22.589  0.00  0.00    -0.238 N 
ATOM      4  H   UNL     1       8.009  -6.326  22.239  0.00  0.00    +0.159 HD
ATOM      5  C   UNL     1       8.082  -5.024  23.775  0.00  0.00    +0.255 C 
ATOM      6  O   UNL     1       9.009  -5.685  24.244  0.00  0.00    -0.272 OA
ATOM      7  C   UNL     1       7.502  -3.662  24.347  0.00  0.00    +0.201 C 
ATOM      8  C   UNL     1       6.004  -3.545  23.845  0.00  0.00    +0.255 C 
ATOM      9  O   UNL     1       5.142  -2.792  24.307  0.00  0.00    -0.272 OA
ATOM     10  N   UNL     1       5.621  -4.284  22.764  0.00  0.00    -0.238 N 
ATOM     11  H   UNL     1       4.662  -4.169  22.469  0.00  0.00    +0.159 HD
ENDROOT
BRANCH   7  12
ATOM     12  N   UNL     1       7.653  -3.507  25.851  0.00  0.00    -0.275 NA
ATOM     13  C   UNL     1       7.909  -4.701  26.685  0.00  0.00    +0.105 C 
ATOM     14  C   UNL     1       6.627  -5.484  27.081  0.00  0.00    +0.123 C 
ATOM     15  N   UNL     1       5.682  -4.560  27.709  0.00  0.00    -0.297 N 
ATOM     16  C   UNL     1       4.738  -5.043  28.584  0.00  0.00    +0.218 A 
ATOM     17  N   UNL     1       3.950  -4.156  29.218  0.00  0.00    -0.223 NA
ATOM     18  C   UNL     1       3.111  -4.620  30.161  0.00  0.00    +0.116 A 
ATOM     19  C   UNL     1       2.994  -5.945  30.483  0.00  0.00    +0.039 A 
ATOM     20  C   UNL     1       3.810  -6.785  29.769  0.00  0.00    +0.116 A 
ATOM     21  N   UNL     1       4.685  -6.362  28.836  0.00  0.00    -0.223 NA
ATOM     22  C   UNL     1       5.394  -3.321  26.984  0.00  0.00    +0.123 C 
ATOM     23  C   UNL     1       6.730  -2.637  26.608  0.00  0.00    +0.105 C 
ENDBRANCH   7  12
BRANCH   7  24
ATOM     24  C   UNL     1       8.333  -2.491  23.723  0.00  0.00    -0.009 A 
ATOM     25  C   UNL     1       9.301  -1.813  24.490  0.00  0.00    +0.010 A 
ATOM     26  C   UNL     1       9.999  -0.717  23.979  0.00  0.00    +0.046 A 
ATOM     27  C   UNL     1       9.677  -0.203  22.725  0.00  0.00    +0.128 A 
ATOM     28  C   UNL     1       8.761  -0.882  21.927  0.00  0.00    +0.046 A 
ATOM     29  C   UNL     1       8.088  -2.007  22.422  0.00  0.00    +0.010 A 
BRANCH  27  30
ATOM     30  O   UNL     1      10.221   0.946  22.195  0.00  0.00    -0.456 OA
BRANCH  30  31
ATOM     31  C   UNL     1       9.833   2.173  22.695  0.00  0.00    +0.128 A 
ATOM     32  C   UNL     1      10.675   3.045  23.393  0.00  0.00    +0.046 A 
ATOM     33  C   UNL     1      10.218   4.306  23.774  0.00  0.00    +0.004 A 
ATOM     34  C   UNL     1       8.896   4.672  23.525  0.00  0.00    +0.000 A 
ATOM     35  C   UNL     1       8.027   3.769  22.913  0.00  0.00    +0.004 A 
ATOM     36  C   UNL     1       8.495   2.520  22.499  0.00  0.00    +0.046 A 
ENDBRANCH  30  31
ENDBRANCH  27  30
ENDBRANCH   7  24
TORSDOF 4
ENDMDL
MODEL 3
REMARK VINA RESULT:      -8.6      3.118      4.157
REMARK  Name = 
REMARK  4 active torsions:
REMARK  status: ('A' for Active; 'I' for Inactive)
REMARK    1  A    between atoms: C_6  and  N_7
REMARK    2  A    between atoms: C_6  and  C_22
REMARK    3  A    between atoms: C_25  and  O_26
REMARK    4  A    between atoms: O_26  and  C_27
REMARK                            x       y       z     vdW  Elec       q    Type
REMARK                         _______ _______ _______ _____ _____    ______ ____
ROOT
ATOM      1  O   UNL     1      10.405  -5.546  25.731  0.00  0.00    -0.252 OA
ATOM      2  C   UNL     1       9.421  -4.916  25.365  0.00  0.00    +0.312 C 
ATOM      3  N   UNL     1       8.991  -3.823  26.029  0.00  0.00    -0.238 N 
ATOM      4  H   UNL     1       9.475  -3.636  26.897  0.00  0.00    +0.159 HD
ATOM      5  C   UNL     1       7.724  -3.312  25.954  0.00  0.00    +0.255 C 
ATOM      6  O   UNL     1       7.352  -2.675  26.940  0.00  0.00    -0.272 OA
ATOM      7  C   UNL     1       6.932  -3.501  24.591  0.00  0.00    +0.201 C 
ATOM      8  C   UNL     1       7.457  -4.840  23.929  0.00  0.00    +0.255 C 
ATOM      9  O   UNL     1       6.895  -5.471  23.028  0.00  0.00    -0.272 OA
ATOM     10  N   UNL     1       8.668  -5.329  24.322  0.00  0.00    -0.238 N 
ATOM     11  H   UNL     1       8.971  -6.177  23.864  0.00  0.00    +0.159 HD
ENDROOT
BRANCH   7  12
ATOM     12  N   UNL     1       5.421  -3.447  24.741  0.00  0.00    -0.275 NA
ATOM     13  C   UNL     1       4.770  -4.178  25.850  0.00  0.00    +0.105 C 
ATOM     14  C   UNL     1       4.502  -5.678  25.549  0.00  0.00    +0.123 C 
ATOM     15  N   UNL     1       3.750  -5.783  24.298  0.00  0.00    -0.297 N 
ATOM     16  C   UNL     1       2.961  -6.885  24.070  0.00  0.00    +0.218 A 
ATOM     17  N   UNL     1       2.208  -6.905  22.956  0.00  0.00    -0.223 NA
ATOM     18  C   UNL     1       1.348  -7.927  22.794  0.00  0.00    +0.116 A 
ATOM     19  C   UNL     1       1.227  -8.960  23.683  0.00  0.00    +0.039 A 
ATOM     20  C   UNL     1       2.051  -8.879  24.775  0.00  0.00    +0.116 A 
ATOM     21  N   UNL     1       2.907  -7.861  24.992  0.00  0.00    -0.223 NA
ATOM     22  C   UNL     1       4.286  -5.055  23.146  0.00  0.00    +0.123 C 
ATOM     23  C   UNL     1       4.549  -3.588  23.556  0.00  0.00    +0.105 C 
ENDBRANCH   7  12
BRANCH   7  24
ATOM     24  C   UNL     1       7.300  -2.300  23.657  0.00  0.00    -0.009 A 
ATOM     25  C   UNL     1       8.328  -2.427  22.701  0.00  0.00    +0.010 A 
ATOM     26  C   UNL     1       8.725  -1.345  21.911  0.00  0.00    +0.046 A 
ATOM     27  C   UNL     1       8.177  -0.082  22.123  0.00  0.00    +0.128 A 
ATOM     28  C   UNL     1       7.127   0.060  23.025  0.00  0.00    +0.046 A 
ATOM     29  C   UNL     1       6.698  -1.032  23.791  0.00  0.00    +0.010 A 
BRANCH  27  30
ATOM     30  O   UNL     1       8.597   1.062  21.482  0.00  0.00    -0.456 OA
BRANCH  30  31
ATOM     31  C   UNL     1       8.914   2.180  22.228  0.00  0.00    +0.128 A 
ATOM     32  C   UNL     1       8.039   3.244  22.470  0.00  0.00    +0.046 A 
ATOM     33  C   UNL     1       8.417   4.284  23.318  0.00  0.00    +0.004 A 
ATOM     34  C   UNL     1       9.699   4.304  23.867  0.00  0.00    +0.000 A 
ATOM     35  C   UNL     1      10.606   3.292  23.552  0.00  0.00    +0.004 A 
ATOM     36  C   UNL     1      10.215   2.232  22.732  0.00  0.00    +0.046 A 
ENDBRANCH  30  31
ENDBRANCH  27  30
ENDBRANCH   7  24
TORSDOF 4
ENDMDL
MODEL 4
REMARK VINA RESULT:      -8.4      2.659      9.052
REMARK  Name = 
REMARK  4 active torsions:
REMARK  status: ('A' for Active; 'I' for Inactive)
REMARK    1  A    between atoms: C_6  and  N_7
REMARK    2  A    between atoms: C_6  and  C_22
REMARK    3  A    between atoms: C_25  and  O_26
REMARK    4  A    between atoms: O_26  and  C_27
REMARK                            x       y       z     vdW  Elec       q    Type
REMARK                         _______ _______ _______ _____ _____    ______ ____
ROOT
ATOM      1  O   UNL     1       6.068  -5.357  20.328  0.00  0.00    -0.252 OA
ATOM      2  C   UNL     1       6.438  -4.953  21.424  0.00  0.00    +0.312 C 
ATOM      3  N   UNL     1       6.062  -3.748  21.900  0.00  0.00    -0.238 N 
ATOM      4  H   UNL     1       5.548  -3.174  21.244  0.00  0.00    +0.159 HD
ATOM      5  C   UNL     1       6.719  -3.056  22.880  0.00  0.00    +0.255 C 
ATOM      6  O   UNL     1       6.580  -1.832  22.847  0.00  0.00    -0.272 OA
ATOM      7  C   UNL     1       7.484  -3.895  23.989  0.00  0.00    +0.201 C 
ATOM      8  C   UNL     1       7.943  -5.251  23.314  0.00  0.00    +0.255 C 
ATOM      9  O   UNL     1       8.799  -6.026  23.752  0.00  0.00    -0.272 OA
ATOM     10  N   UNL     1       7.307  -5.661  22.178  0.00  0.00    -0.238 N 
ATOM     11  H   UNL     1       7.621  -6.538  21.789  0.00  0.00    +0.159 HD
ENDROOT
BRANCH   7  12
ATOM     12  N   UNL     1       8.614  -3.139  24.668  0.00  0.00    -0.275 NA
ATOM     13  C   UNL     1       8.300  -2.127  25.700  0.00  0.00    +0.105 C 
ATOM     14  C   UNL     1       7.953  -0.725  25.129  0.00  0.00    +0.123 C 
ATOM     15  N   UNL     1       9.032  -0.295  24.240  0.00  0.00    -0.297 N 
ATOM     16  C   UNL     1       9.239   1.047  24.021  0.00  0.00    +0.218 A 
ATOM     17  N   UNL     1      10.299   1.411  23.279  0.00  0.00    -0.223 NA
ATOM     18  C   UNL     1      10.568   2.724  23.166  0.00  0.00    +0.116 A 
ATOM     19  C   UNL     1       9.802   3.704  23.736  0.00  0.00    +0.039 A 
ATOM     20  C   UNL     1       8.724   3.249  24.450  0.00  0.00    +0.116 A 
ATOM     21  N   UNL     1       8.432   1.944  24.612  0.00  0.00    -0.223 NA
ATOM     22  C   UNL     1       9.453  -1.245  23.208  0.00  0.00    +0.123 C 
ATOM     23  C   UNL     1       9.741  -2.611  23.871  0.00  0.00    +0.105 C 
ENDBRANCH   7  12
BRANCH   7  24
ATOM     24  C   UNL     1       6.461  -4.222  25.128  0.00  0.00    -0.009 A 
ATOM     25  C   UNL     1       6.699  -5.287  26.019  0.00  0.00    +0.010 A 
ATOM     26  C   UNL     1       5.763  -5.645  26.993  0.00  0.00    +0.046 A 
ATOM     27  C   UNL     1       4.521  -5.016  27.038  0.00  0.00    +0.128 A 
ATOM     28  C   UNL     1       4.280  -3.929  26.204  0.00  0.00    +0.046 A 
ATOM     29  C   UNL     1       5.233  -3.541  25.252  0.00  0.00    +0.010 A 
BRANCH  27  30
ATOM     30  O   UNL     1       3.494  -5.388  27.877  0.00  0.00    -0.456 OA
BRANCH  30  31
ATOM     31  C   UNL     1       2.601  -6.357  27.466  0.00  0.00    +0.128 A 
ATOM     32  C   UNL     1       2.462  -6.796  26.146  0.00  0.00    +0.046 A 
ATOM     33  C   UNL     1       1.600  -7.850  25.844  0.00  0.00    +0.004 A 
ATOM     34  C   UNL     1       0.818  -8.419  26.849  0.00  0.00    +0.000 A 
ATOM     35  C   UNL     1       0.885  -7.920  28.150  0.00  0.00    +0.004 A 
ATOM     36  C   UNL     1       1.775  -6.889  28.458  0.00  0.00    +0.046 A 
ENDBRANCH  30  31
ENDBRANCH  27  30
ENDBRANCH   7  24
TORSDOF 4
ENDMDL
MODEL 5
REMARK VINA RESULT:      -8.3      2.724      6.935
REMARK  Name = 
REMARK  4 active torsions:
REMARK  status: ('A' for Active; 'I' for Inactive)
REMARK    1  A    between atoms: C_6  and  N_7
REMARK    2  A    between atoms: C_6  and  C_22
REMARK    3  A    between atoms: C_25  and  O_26
REMARK    4  A    between atoms: O_26  and  C_27
REMARK                            x       y       z     vdW  Elec       q    Type
REMARK                         _______ _______ _______ _____ _____    ______ ____
ROOT
ATOM      1  O   UNL     1       9.108   1.137  21.157  0.00  0.00    -0.252 OA
ATOM      2  C   UNL     1       8.837   0.250  21.958  0.00  0.00    +0.312 C 
ATOM      3  N   UNL     1       7.786   0.349  22.798  0.00  0.00    -0.238 N 
ATOM      4  H   UNL     1       7.315   1.244  22.784  0.00  0.00    +0.159 HD
ATOM      5  C   UNL     1       7.645  -0.359  23.959  0.00  0.00    +0.255 C 
ATOM      6  O   UNL     1       6.947   0.176  24.823  0.00  0.00    -0.272 OA
ATOM      7  C   UNL     1       8.294  -1.806  24.025  0.00  0.00    +0.201 C 
ATOM      8  C   UNL     1       9.554  -1.796  23.066  0.00  0.00    +0.255 C 
ATOM      9  O   UNL     1      10.472  -2.622  23.067  0.00  0.00    -0.272 OA
ATOM     10  N   UNL     1       9.626  -0.838  22.097  0.00  0.00    -0.238 N 
ATOM     11  H   UNL     1      10.439  -0.876  21.499  0.00  0.00    +0.159 HD
ENDROOT
BRANCH   7  12
ATOM     12  N   UNL     1       8.605  -2.282  25.434  0.00  0.00    -0.275 NA
ATOM     13  C   UNL     1       8.920  -3.707  25.671  0.00  0.00    +0.105 C 
ATOM     14  C   UNL     1       7.670  -4.614  25.839  0.00  0.00    +0.123 C 
ATOM     15  N   UNL     1       6.816  -4.053  26.886  0.00  0.00    -0.297 N 
ATOM     16  C   UNL     1       5.959  -4.877  27.577  0.00  0.00    +0.218 A 
ATOM     17  N   UNL     1       5.260  -4.350  28.597  0.00  0.00    -0.223 NA
ATOM     18  C   UNL     1       4.514  -5.181  29.347  0.00  0.00    +0.116 A 
ATOM     19  C   UNL     1       4.403  -6.523  29.104  0.00  0.00    +0.039 A 
ATOM     20  C   UNL     1       5.123  -6.974  28.027  0.00  0.00    +0.116 A 
ATOM     21  N   UNL     1       5.904  -6.183  27.266  0.00  0.00    -0.223 NA
ATOM     22  C   UNL     1       6.481  -2.633  26.771  0.00  0.00    +0.123 C 
ATOM     23  C   UNL     1       7.783  -1.824  26.574  0.00  0.00    +0.105 C 
ENDBRANCH   7  12
BRANCH   7  24
ATOM     24  C   UNL     1       7.244  -2.824  23.465  0.00  0.00    -0.009 A 
ATOM     25  C   UNL     1       5.870  -2.649  23.723  0.00  0.00    +0.010 A 
ATOM     26  C   UNL     1       4.925  -3.586  23.299  0.00  0.00    +0.046 A 
ATOM     27  C   UNL     1       5.334  -4.773  22.696  0.00  0.00    +0.128 A 
ATOM     28  C   UNL     1       6.679  -4.948  22.385  0.00  0.00    +0.046 A 
ATOM     29  C   UNL     1       7.627  -3.991  22.773  0.00  0.00    +0.010 A 
BRANCH  27  30
ATOM     30  O   UNL     1       4.486  -5.805  22.363  0.00  0.00    -0.456 OA
BRANCH  30  31
ATOM     31  C   UNL     1       3.502  -6.189  23.252  0.00  0.00    +0.128 A 
ATOM     32  C   UNL     1       2.157  -5.820  23.150  0.00  0.00    +0.046 A 
ATOM     33  C   UNL     1       1.218  -6.338  24.043  0.00  0.00    +0.004 A 
ATOM     34  C   UNL     1       1.632  -7.167  25.085  0.00  0.00    +0.000 A 
ATOM     35  C   UNL     1       2.986  -7.461  25.244  0.00  0.00    +0.004 A 
ATOM     36  C   UNL     1       3.920  -6.972  24.329  0.00  0.00    +0.046 A 
ENDBRANCH  30  31
ENDBRANCH  27  30
ENDBRANCH   7  24
TORSDOF 4
ENDMDL
MODEL 6
REMARK VINA RESULT:      -8.0      2.415      8.228
REMARK  Name = 
REMARK  4 active torsions:
REMARK  status: ('A' for Active; 'I' for Inactive)
REMARK    1  A    between atoms: C_6  and  N_7
REMARK    2  A    between atoms: C_6  and  C_22
REMARK    3  A    between atoms: C_25  and  O_26
REMARK    4  A    between atoms: O_26  and  C_27
REMARK                            x       y       z     vdW  Elec       q    Type
REMARK                         _______ _______ _______ _____ _____    ______ ____
ROOT
ATOM      1  O   UNL     1       6.048  -5.289  20.387  0.00  0.00    -0.252 OA
ATOM      2  C   UNL     1       6.412  -4.933  21.501  0.00  0.00    +0.312 C 
ATOM      3  N   UNL     1       5.983  -3.778  22.053  0.00  0.00    -0.238 N 
ATOM      4  H   UNL     1       5.434  -3.193  21.437  0.00  0.00    +0.159 HD
ATOM      5  C   UNL     1       6.618  -3.114  23.066  0.00  0.00    +0.255 C 
ATOM      6  O   UNL     1       6.419  -1.899  23.108  0.00  0.00    -0.272 OA
ATOM      7  C   UNL     1       7.437  -3.978  24.116  0.00  0.00    +0.201 C 
ATOM      8  C   UNL     1       7.953  -5.268  23.356  0.00  0.00    +0.255 C 
ATOM      9  O   UNL     1       8.852  -6.024  23.739  0.00  0.00    -0.272 OA
ATOM     10  N   UNL     1       7.324  -5.640  22.204  0.00  0.00    -0.238 N 
ATOM     11  H   UNL     1       7.676  -6.476  21.759  0.00  0.00    +0.159 HD
ENDROOT
BRANCH   7  12
ATOM     12  N   UNL     1       8.537  -3.209  24.827  0.00  0.00    -0.275 NA
ATOM     13  C   UNL     1       8.179  -2.174  25.821  0.00  0.00    +0.105 C 
ATOM     14  C   UNL     1       7.861  -0.785  25.204  0.00  0.00    +0.123 C 
ATOM     15  N   UNL     1       8.980  -0.376  24.356  0.00  0.00    -0.297 N 
ATOM     16  C   UNL     1       9.199   0.960  24.117  0.00  0.00    +0.218 A 
ATOM     17  N   UNL     1      10.292   1.307  23.414  0.00  0.00    -0.223 NA
ATOM     18  C   UNL     1      10.569   2.617  23.285  0.00  0.00    +0.116 A 
ATOM     19  C   UNL     1       9.780   3.610  23.798  0.00  0.00    +0.039 A 
ATOM     20  C   UNL     1       8.670   3.172  24.473  0.00  0.00    +0.116 A 
ATOM     21  N   UNL     1       8.368   1.872  24.651  0.00  0.00    -0.223 NA
ATOM     22  C   UNL     1       9.444  -1.348  23.365  0.00  0.00    +0.123 C 
ATOM     23  C   UNL     1       9.700  -2.700  24.070  0.00  0.00    +0.105 C 
ENDBRANCH   7  12
BRANCH   7  24
ATOM     24  C   UNL     1       6.446  -4.423  25.243  0.00  0.00    -0.009 A 
ATOM     25  C   UNL     1       5.131  -3.916  25.280  0.00  0.00    +0.010 A 
ATOM     26  C   UNL     1       4.256  -4.238  26.319  0.00  0.00    +0.046 A 
ATOM     27  C   UNL     1       4.699  -4.993  27.403  0.00  0.00    +0.128 A 
ATOM     28  C   UNL     1       5.975  -5.548  27.367  0.00  0.00    +0.046 A 
ATOM     29  C   UNL     1       6.844  -5.259  26.306  0.00  0.00    +0.010 A 
BRANCH  27  30
ATOM     30  O   UNL     1       3.948  -5.252  28.527  0.00  0.00    -0.456 OA
BRANCH  30  31
ATOM     31  C   UNL     1       3.237  -4.227  29.118  0.00  0.00    +0.128 A 
ATOM     32  C   UNL     1       1.848  -4.082  29.043  0.00  0.00    +0.046 A 
ATOM     33  C   UNL     1       1.209  -3.067  29.756  0.00  0.00    +0.004 A 
ATOM     34  C   UNL     1       1.962  -2.148  30.485  0.00  0.00    +0.000 A 
ATOM     35  C   UNL     1       3.354  -2.234  30.485  0.00  0.00    +0.004 A 
ATOM     36  C   UNL     1       3.991  -3.271  29.801  0.00  0.00    +0.046 A 
ENDBRANCH  30  31
ENDBRANCH  27  30
ENDBRANCH   7  24
TORSDOF 4
ENDMDL
MODEL 7
REMARK VINA RESULT:      -8.0      3.336      4.860
REMARK  Name = 
REMARK  4 active torsions:
REMARK  status: ('A' for Active; 'I' for Inactive)
REMARK    1  A    between atoms: C_6  and  N_7
REMARK    2  A    between atoms: C_6  and  C_22
REMARK    3  A    between atoms: C_25  and  O_26
REMARK    4  A    between atoms: O_26  and  C_27
REMARK                            x       y       z     vdW  Elec       q    Type
REMARK                         _______ _______ _______ _____ _____    ______ ____
ROOT
ATOM      1  O   UNL     1       3.803  -7.521  24.205  0.00  0.00    -0.252 OA
ATOM      2  C   UNL     1       4.369  -6.542  24.677  0.00  0.00    +0.312 C 
ATOM      3  N   UNL     1       5.454  -6.663  25.471  0.00  0.00    -0.238 N 
ATOM      4  H   UNL     1       5.689  -7.614  25.725  0.00  0.00    +0.159 HD
ATOM      5  C   UNL     1       5.892  -5.707  26.345  0.00  0.00    +0.255 C 
ATOM      6  O   UNL     1       6.532  -6.127  27.310  0.00  0.00    -0.272 OA
ATOM      7  C   UNL     1       5.625  -4.188  25.972  0.00  0.00    +0.201 C 
ATOM      8  C   UNL     1       4.300  -4.146  25.105  0.00  0.00    +0.255 C 
ATOM      9  O   UNL     1       3.616  -3.145  24.875  0.00  0.00    -0.272 OA
ATOM     10  N   UNL     1       3.888  -5.293  24.491  0.00  0.00    -0.238 N 
ATOM     11  H   UNL     1       3.047  -5.219  23.937  0.00  0.00    +0.159 HD
ENDROOT
BRANCH   7  12
ATOM     12  N   UNL     1       5.599  -3.251  27.168  0.00  0.00    -0.275 NA
ATOM     13  C   UNL     1       4.517  -3.375  28.169  0.00  0.00    +0.105 C 
ATOM     14  C   UNL     1       3.212  -2.624  27.788  0.00  0.00    +0.123 C 
ATOM     15  N   UNL     1       3.538  -1.229  27.491  0.00  0.00    -0.297 N 
ATOM     16  C   UNL     1       2.572  -0.261  27.631  0.00  0.00    +0.218 A 
ATOM     17  N   UNL     1       2.929   1.022  27.445  0.00  0.00    -0.223 NA
ATOM     18  C   UNL     1       2.015   1.975  27.700  0.00  0.00    +0.116 A 
ATOM     19  C   UNL     1       0.735   1.705  28.102  0.00  0.00    +0.039 A 
ATOM     20  C   UNL     1       0.443   0.373  28.237  0.00  0.00    +0.116 A 
ATOM     21  N   UNL     1       1.335  -0.613  28.021  0.00  0.00    -0.223 NA
ATOM     22  C   UNL     1       4.629  -0.995  26.543  0.00  0.00    +0.123 C 
ATOM     23  C   UNL     1       5.866  -1.808  26.991  0.00  0.00    +0.105 C 
ENDBRANCH   7  12
BRANCH   7  24
ATOM     24  C   UNL     1       6.819  -3.698  25.086  0.00  0.00    -0.009 A 
ATOM     25  C   UNL     1       8.146  -3.813  25.547  0.00  0.00    +0.010 A 
ATOM     26  C   UNL     1       9.220  -3.313  24.808  0.00  0.00    +0.046 A 
ATOM     27  C   UNL     1       8.992  -2.594  23.637  0.00  0.00    +0.128 A 
ATOM     28  C   UNL     1       7.697  -2.508  23.134  0.00  0.00    +0.046 A 
ATOM     29  C   UNL     1       6.621  -3.044  23.853  0.00  0.00    +0.010 A 
BRANCH  27  30
ATOM     30  O   UNL     1       9.976  -1.957  22.914  0.00  0.00    -0.456 OA
BRANCH  30  31
ATOM     31  C   UNL     1      10.094  -0.584  22.991  0.00  0.00    +0.128 A 
ATOM     32  C   UNL     1      10.500   0.111  24.135  0.00  0.00    +0.046 A 
ATOM     33  C   UNL     1      10.684   1.493  24.087  0.00  0.00    +0.004 A 
ATOM     34  C   UNL     1      10.391   2.194  22.918  0.00  0.00    +0.000 A 
ATOM     35  C   UNL     1       9.896   1.515  21.805  0.00  0.00    +0.004 A 
ATOM     36  C   UNL     1       9.747   0.127  21.842  0.00  0.00    +0.046 A 
ENDBRANCH  30  31
ENDBRANCH  27  30
ENDBRANCH   7  24
TORSDOF 4
ENDMDL
MODEL 8
REMARK VINA RESULT:      -7.9      2.557      6.353
REMARK  Name = 
REMARK  4 active torsions:
REMARK  status: ('A' for Active; 'I' for Inactive)
REMARK    1  A    between atoms: C_6  and  N_7
REMARK    2  A    between atoms: C_6  and  C_22
REMARK    3  A    between atoms: C_25  and  O_26
REMARK    4  A    between atoms: O_26  and  C_27
REMARK                            x       y       z     vdW  Elec       q    Type
REMARK                         _______ _______ _______ _____ _____    ______ ____
ROOT
ATOM      1  O   UNL     1       5.605  -7.480  28.353  0.00  0.00    -0.252 OA
ATOM      2  C   UNL     1       5.983  -6.616  27.571  0.00  0.00    +0.312 C 
ATOM      3  N   UNL     1       5.256  -6.273  26.487  0.00  0.00    -0.238 N 
ATOM      4  H   UNL     1       4.443  -6.852  26.321  0.00  0.00    +0.159 HD
ATOM      5  C   UNL     1       5.756  -5.649  25.377  0.00  0.00    +0.255 C 
ATOM      6  O   UNL     1       5.139  -5.855  24.332  0.00  0.00    -0.272 OA
ATOM      7  C   UNL     1       6.986  -4.665  25.575  0.00  0.00    +0.201 C 
ATOM      8  C   UNL     1       7.810  -5.193  26.820  0.00  0.00    +0.255 C 
ATOM      9  O   UNL     1       8.969  -4.879  27.107  0.00  0.00    -0.272 OA
ATOM     10  N   UNL     1       7.187  -6.020  27.709  0.00  0.00    -0.238 N 
ATOM     11  H   UNL     1       7.745  -6.321  28.496  0.00  0.00    +0.159 HD
ENDROOT
BRANCH   7  12
ATOM     12  N   UNL     1       7.828  -4.468  24.326  0.00  0.00    -0.275 NA
ATOM     13  C   UNL     1       9.233  -4.023  24.456  0.00  0.00    +0.105 C 
ATOM     14  C   UNL     1       9.402  -2.484  24.588  0.00  0.00    +0.123 C 
ATOM     15  N   UNL     1       8.714  -1.835  23.472  0.00  0.00    -0.297 N 
ATOM     16  C   UNL     1       9.116  -0.586  23.060  0.00  0.00    +0.218 A 
ATOM     17  N   UNL     1       8.529  -0.060  21.971  0.00  0.00    -0.223 NA
ATOM     18  C   UNL     1       9.006   1.107  21.500  0.00  0.00    +0.116 A 
ATOM     19  C   UNL     1      10.029   1.799  22.090  0.00  0.00    +0.039 A 
ATOM     20  C   UNL     1      10.550   1.208  23.212  0.00  0.00    +0.116 A 
ATOM     21  N   UNL     1      10.123   0.029  23.703  0.00  0.00    -0.223 NA
ATOM     22  C   UNL     1       7.329  -2.239  23.228  0.00  0.00    +0.123 C 
ATOM     23  C   UNL     1       7.263  -3.782  23.146  0.00  0.00    +0.105 C 
ENDBRANCH   7  12
BRANCH   7  24
ATOM     24  C   UNL     1       6.412  -3.249  25.917  0.00  0.00    -0.009 A 
ATOM     25  C   UNL     1       5.158  -2.846  25.417  0.00  0.00    +0.010 A 
ATOM     26  C   UNL     1       4.662  -1.560  25.645  0.00  0.00    +0.046 A 
ATOM     27  C   UNL     1       5.448  -0.609  26.291  0.00  0.00    +0.128 A 
ATOM     28  C   UNL     1       6.668  -0.994  26.838  0.00  0.00    +0.046 A 
ATOM     29  C   UNL     1       7.152  -2.296  26.646  0.00  0.00    +0.010 A 
BRANCH  27  30
ATOM     30  O   UNL     1       5.095   0.713  26.446  0.00  0.00    -0.456 OA
BRANCH  30  31
ATOM     31  C   UNL     1       5.885   1.697  25.888  0.00  0.00    +0.128 A 
ATOM     32  C   UNL     1       6.589   2.658  26.622  0.00  0.00    +0.046 A 
ATOM     33  C   UNL     1       7.441   3.551  25.972  0.00  0.00    +0.004 A 
ATOM     34  C   UNL     1       7.535   3.537  24.581  0.00  0.00    +0.000 A 
ATOM     35  C   UNL     1       6.763   2.642  23.840  0.00  0.00    +0.004 A 
ATOM     36  C   UNL     1       5.938   1.723  24.493  0.00  0.00    +0.046 A 
ENDBRANCH  30  31
ENDBRANCH  27  30
ENDBRANCH   7  24
TORSDOF 4
ENDMDL
MODEL 9
REMARK VINA RESULT:      -7.9      2.300      3.801
REMARK  Name = 
REMARK  4 active torsions:
REMARK  status: ('A' for Active; 'I' for Inactive)
REMARK    1  A    between atoms: C_6  and  N_7
REMARK    2  A    between atoms: C_6  and  C_22
REMARK    3  A    between atoms: C_25  and  O_26
REMARK    4  A    between atoms: O_26  and  C_27
REMARK                            x       y       z     vdW  Elec       q    Type
REMARK                         _______ _______ _______ _____ _____    ______ ____
ROOT
ATOM      1  O   UNL     1       6.038  -6.369  21.005  0.00  0.00    -0.252 OA
ATOM      2  C   UNL     1       6.335  -5.587  21.899  0.00  0.00    +0.312 C 
ATOM      3  N   UNL     1       7.590  -5.514  22.390  0.00  0.00    -0.238 N 
ATOM      4  H   UNL     1       8.225  -6.219  22.040  0.00  0.00    +0.159 HD
ATOM      5  C   UNL     1       7.922  -4.997  23.613  0.00  0.00    +0.255 C 
ATOM      6  O   UNL     1       8.956  -5.441  24.111  0.00  0.00    -0.272 OA
ATOM      7  C   UNL     1       7.013  -3.831  24.192  0.00  0.00    +0.201 C 
ATOM      8  C   UNL     1       5.554  -4.047  23.616  0.00  0.00    +0.255 C 
ATOM      9  O   UNL     1       4.519  -3.534  24.052  0.00  0.00    -0.272 OA
ATOM     10  N   UNL     1       5.403  -4.812  22.496  0.00  0.00    -0.238 N 
ATOM     11  H   UNL     1       4.458  -4.912  22.155  0.00  0.00    +0.159 HD
ENDROOT
BRANCH   7  12
ATOM     12  N   UNL     1       7.058  -3.704  25.705  0.00  0.00    -0.275 NA
ATOM     13  C   UNL     1       5.812  -3.429  26.452  0.00  0.00    +0.105 C 
ATOM     14  C   UNL     1       5.434  -1.923  26.522  0.00  0.00    +0.123 C 
ATOM     15  N   UNL     1       6.574  -1.173  27.048  0.00  0.00    -0.297 N 
ATOM     16  C   UNL     1       6.363   0.030  27.680  0.00  0.00    +0.218 A 
ATOM     17  N   UNL     1       7.420   0.646  28.238  0.00  0.00    -0.223 NA
ATOM     18  C   UNL     1       7.193   1.760  28.957  0.00  0.00    +0.116 A 
ATOM     19  C   UNL     1       5.952   2.314  29.120  0.00  0.00    +0.039 A 
ATOM     20  C   UNL     1       4.935   1.642  28.494  0.00  0.00    +0.116 A 
ATOM     21  N   UNL     1       5.112   0.509  27.787  0.00  0.00    -0.223 NA
ATOM     22  C   UNL     1       7.869  -1.408  26.407  0.00  0.00    +0.123 C 
ATOM     23  C   UNL     1       8.135  -2.930  26.357  0.00  0.00    +0.105 C 
ENDBRANCH   7  12
BRANCH   7  24
ATOM     24  C   UNL     1       7.573  -2.475  23.644  0.00  0.00    -0.009 A 
ATOM     25  C   UNL     1       6.706  -1.396  23.383  0.00  0.00    +0.010 A 
ATOM     26  C   UNL     1       7.173  -0.205  22.822  0.00  0.00    +0.046 A 
ATOM     27  C   UNL     1       8.500  -0.095  22.412  0.00  0.00    +0.128 A 
ATOM     28  C   UNL     1       9.388  -1.126  22.703  0.00  0.00    +0.046 A 
ATOM     29  C   UNL     1       8.931  -2.307  23.303  0.00  0.00    +0.010 A 
BRANCH  27  30
ATOM     30  O   UNL     1       9.015   0.989  21.737  0.00  0.00    -0.456 OA
BRANCH  30  31
ATOM     31  C   UNL     1       9.004   2.231  22.339  0.00  0.00    +0.128 A 
ATOM     32  C   UNL     1       7.943   3.138  22.261  0.00  0.00    +0.046 A 
ATOM     33  C   UNL     1       7.984   4.330  22.985  0.00  0.00    +0.004 A 
ATOM     34  C   UNL     1       9.117   4.652  23.730  0.00  0.00    +0.000 A 
ATOM     35  C   UNL     1      10.215   3.792  23.735  0.00  0.00    +0.004 A 
ATOM     36  C   UNL     1      10.159   2.583  23.039  0.00  0.00    +0.046 A 
ENDBRANCH  30  31
ENDBRANCH  27  30
ENDBRANCH   7  24
TORSDOF 4
ENDMDL
