MODEL 1
REMARK VINA RESULT:      -6.5      0.000      0.000
REMARK  Name = 
REMARK  10 active torsions:
REMARK  status: ('A' for Active; 'I' for Inactive)
REMARK    1  A    between atoms: C_1  and  C_2
REMARK    2  A    between atoms: C_2  and  C_3
REMARK    3  A    between atoms: C_2  and  C_4
REMARK    4  A    between atoms: C_4  and  O_5
REMARK    5  A    between atoms: O_5  and  C_6
REMARK    6  A    between atoms: C_7  and  C_21
REMARK    7  A    between atoms: C_9  and  C_12
REMARK    8  A    between atoms: C_14  and  C_15
REMARK    9  A    between atoms: C_16  and  C_18
REMARK   10  A    between atoms: C_18  and  O_19
REMARK                            x       y       z     vdW  Elec       q    Type
REMARK                         _______ _______ _______ _____ _____    ______ ____
ROOT
ATOM      1  C   UNL     1       9.795   1.919  23.863  0.00  0.00    +0.138 A 
ATOM      2  C   UNL     1      10.598   0.992  24.532  0.00  0.00    +0.047 A 
ATOM      3  C   UNL     1      10.157  -0.327  24.712  0.00  0.00    +0.014 A 
ATOM      4  C   UNL     1       8.911  -0.747  24.226  0.00  0.00    +0.009 A 
ATOM      5  C   UNL     1       8.111   0.195  23.560  0.00  0.00    +0.033 A 
ATOM      6  C   UNL     1       8.543   1.519  23.382  0.00  0.00    +0.094 A 
ENDROOT
BRANCH   4   7
ATOM      7  C   UNL     1       8.472  -2.138  24.441  0.00  0.00    +0.109 A 
ATOM      8  S   UNL     1       8.202  -2.735  26.030  0.00  0.00    -0.060 S 
ATOM      9  C   UNL     1       7.768  -4.267  25.401  0.00  0.00    +0.119 A 
ATOM     10  C   UNL     1       7.843  -4.236  24.018  0.00  0.00    +0.060 A 
ATOM     11  C   UNL     1       7.561  -5.363  23.082  0.00  0.00    +0.067 C 
ATOM     12  N   UNL     1       8.223  -3.009  23.484  0.00  0.00    -0.243 NA
BRANCH   9  13
ATOM     13  C   UNL     1       7.394  -5.370  26.260  0.00  0.00    +0.345 C 
ATOM     14  O   UNL     1       6.345  -5.994  26.198  0.00  0.00    -0.244 OA
BRANCH  13  15
ATOM     15  O   UNL     1       8.339  -5.672  27.190  0.00  0.00    -0.477 OA
ATOM     16  H   UNL     1       8.030  -6.346  27.828  0.00  0.00    +0.295 HD
ENDBRANCH  13  15
ENDBRANCH   9  13
ENDBRANCH   4   7
BRANCH   6  17
ATOM     17  C   UNL     1       7.684   2.434  22.683  0.00  0.00    +0.103 C 
ATOM     18  N   UNL     1       7.037   3.197  22.094  0.00  0.00    -0.191 NA
ENDBRANCH   6  17
BRANCH   1  19
ATOM     19  O   UNL     1      10.132   3.234  23.691  0.00  0.00    -0.490 OA
BRANCH  19  20
ATOM     20  C   UNL     1      11.478   3.505  23.293  0.00  0.00    +0.232 C 
BRANCH  20  22
ATOM     21  C   UNL     1      12.815   5.520  22.599  0.00  0.00    +0.010 C 
ATOM     22  C   UNL     1      11.797   4.977  23.600  0.00  0.00    +0.020 C 
ATOM     23  C   UNL     1      10.532   5.838  23.591  0.00  0.00    +0.010 C 
ENDBRANCH  20  22
ENDBRANCH  19  20
ENDBRANCH   1  19
TORSDOF 7
ENDMDL
MODEL 2
REMARK VINA RESULT:      -6.4      1.519      2.024
REMARK  Name = 
REMARK  10 active torsions:
REMARK  status: ('A' for Active; 'I' for Inactive)
REMARK    1  A    between atoms: C_1  and  C_2
REMARK    2  A    between atoms: C_2  and  C_3
REMARK    3  A    between atoms: C_2  and  C_4
REMARK    4  A    between atoms: C_4  and  O_5
REMARK    5  A    between atoms: O_5  and  C_6
REMARK    6  A    between atoms: C_7  and  C_21
REMARK    7  A    between atoms: C_9  and  C_12
REMARK    8  A    between atoms: C_14  and  C_15
REMARK    9  A    between atoms: C_16  and  C_18
REMARK   10  A    between atoms: C_18  and  O_19
REMARK                            x       y       z     vdW  Elec       q    Type
REMARK                         _______ _______ _______ _____ _____    ______ ____
ROOT
ATOM      1  C   UNL     1       9.774   2.272  23.650  0.00  0.00    +0.138 A 
ATOM      2  C   UNL     1      10.643   1.362  24.258  0.00  0.00    +0.047 A 
ATOM      3  C   UNL     1      10.326  -0.003  24.295  0.00  0.00    +0.014 A 
ATOM      4  C   UNL     1       9.142  -0.488  23.724  0.00  0.00    +0.009 A 
ATOM      5  C   UNL     1       8.274   0.436  23.121  0.00  0.00    +0.033 A 
ATOM      6  C   UNL     1       8.581   1.806  23.086  0.00  0.00    +0.094 A 
ENDROOT
BRANCH   4   7
ATOM      7  C   UNL     1       8.834  -1.928  23.789  0.00  0.00    +0.109 A 
ATOM      8  S   UNL     1       7.656  -2.620  22.744  0.00  0.00    -0.060 S 
ATOM      9  C   UNL     1       7.920  -4.163  23.437  0.00  0.00    +0.119 A 
ATOM     10  C   UNL     1       8.896  -4.068  24.416  0.00  0.00    +0.060 A 
ATOM     11  C   UNL     1       9.414  -5.175  25.271  0.00  0.00    +0.067 C 
ATOM     12  N   UNL     1       9.425  -2.793  24.588  0.00  0.00    -0.243 NA
BRANCH   9  13
ATOM     13  C   UNL     1       7.188  -5.333  23.003  0.00  0.00    +0.345 C 
ATOM     14  O   UNL     1       7.459  -6.019  22.028  0.00  0.00    -0.244 OA
BRANCH  13  15
ATOM     15  O   UNL     1       6.121  -5.624  23.795  0.00  0.00    -0.477 OA
ATOM     16  H   UNL     1       5.856  -6.563  23.729  0.00  0.00    +0.295 HD
ENDBRANCH  13  15
ENDBRANCH   9  13
ENDBRANCH   4   7
BRANCH   6  17
ATOM     17  C   UNL     1       7.657   2.701  22.446  0.00  0.00    +0.103 C 
ATOM     18  N   UNL     1       6.870   3.384  21.933  0.00  0.00    -0.191 NA
ENDBRANCH   6  17
BRANCH   1  19
ATOM     19  O   UNL     1       9.987   3.623  23.617  0.00  0.00    -0.490 OA
BRANCH  19  20
ATOM     20  C   UNL     1      11.342   4.056  23.477  0.00  0.00    +0.232 C 
BRANCH  20  22
ATOM     21  C   UNL     1       9.962   6.155  23.621  0.00  0.00    +0.010 C 
ATOM     22  C   UNL     1      11.365   5.591  23.403  0.00  0.00    +0.020 C 
ATOM     23  C   UNL     1      12.340   6.187  24.421  0.00  0.00    +0.010 C 
ENDBRANCH  20  22
ENDBRANCH  19  20
ENDBRANCH   1  19
TORSDOF 7
ENDMDL
MODEL 3
REMARK VINA RESULT:      -6.3      2.814      8.452
REMARK  Name = 
REMARK  10 active torsions:
REMARK  status: ('A' for Active; 'I' for Inactive)
REMARK    1  A    between atoms: C_1  and  C_2
REMARK    2  A    between atoms: C_2  and  C_3
REMARK    3  A    between atoms: C_2  and  C_4
REMARK    4  A    between atoms: C_4  and  O_5
REMARK    5  A    between atoms: O_5  and  C_6
REMARK    6  A    between atoms: C_7  and  C_21
REMARK    7  A    between atoms: C_9  and  C_12
REMARK    8  A    between atoms: C_14  and  C_15
REMARK    9  A    between atoms: C_16  and  C_18
REMARK   10  A    between atoms: C_18  and  O_19
REMARK                            x       y       z     vdW  Elec       q    Type
REMARK                         _______ _______ _______ _____ _____    ______ ____
ROOT
ATOM      1  C   UNL     1       9.175  -1.544  23.012  0.00  0.00    +0.138 A 
ATOM      2  C   UNL     1       9.555  -0.765  21.916  0.00  0.00    +0.047 A 
ATOM      3  C   UNL     1       9.868   0.591  22.086  0.00  0.00    +0.014 A 
ATOM      4  C   UNL     1       9.812   1.196  23.349  0.00  0.00    +0.009 A 
ATOM      5  C   UNL     1       9.423   0.404  24.442  0.00  0.00    +0.033 A 
ATOM      6  C   UNL     1       9.102  -0.953  24.279  0.00  0.00    +0.094 A 
ENDROOT
BRANCH   4   7
ATOM      7  C   UNL     1      10.137   2.626  23.492  0.00  0.00    +0.109 A 
ATOM      8  S   UNL     1       8.912   3.768  23.882  0.00  0.00    -0.060 S 
ATOM      9  C   UNL     1      10.059   5.039  23.847  0.00  0.00    +0.119 A 
ATOM     10  C   UNL     1      11.310   4.523  23.551  0.00  0.00    +0.060 A 
ATOM     11  C   UNL     1      12.583   5.289  23.410  0.00  0.00    +0.067 C 
ATOM     12  N   UNL     1      11.344   3.143  23.375  0.00  0.00    -0.243 NA
BRANCH   9  13
ATOM     13  C   UNL     1       9.687   6.414  24.100  0.00  0.00    +0.345 C 
ATOM     14  O   UNL     1      10.111   7.107  25.013  0.00  0.00    -0.244 OA
BRANCH  13  15
ATOM     15  O   UNL     1       8.782   6.899  23.208  0.00  0.00    -0.477 OA
ATOM     16  H   UNL     1       9.208   7.233  22.393  0.00  0.00    +0.295 HD
ENDBRANCH  13  15
ENDBRANCH   9  13
ENDBRANCH   4   7
BRANCH   6  17
ATOM     17  C   UNL     1       8.721  -1.713  25.437  0.00  0.00    +0.103 C 
ATOM     18  N   UNL     1       8.465  -2.319  26.394  0.00  0.00    -0.191 NA
ENDBRANCH   6  17
BRANCH   1  19
ATOM     19  O   UNL     1       8.806  -2.858  22.921  0.00  0.00    -0.490 OA
BRANCH  19  20
ATOM     20  C   UNL     1       7.552  -3.132  22.293  0.00  0.00    +0.232 C 
BRANCH  20  22
ATOM     21  C   UNL     1       7.027  -5.500  21.627  0.00  0.00    +0.010 C 
ATOM     22  C   UNL     1       7.043  -4.498  22.779  0.00  0.00    +0.020 C 
ATOM     23  C   UNL     1       7.891  -5.032  23.936  0.00  0.00    +0.010 C 
ENDBRANCH  20  22
ENDBRANCH  19  20
ENDBRANCH   1  19
TORSDOF 7
ENDMDL
MODEL 4
REMARK VINA RESULT:      -6.3      4.069      6.112
REMARK  Name = 
REMARK  10 active torsions:
REMARK  status: ('A' for Active; 'I' for Inactive)
REMARK    1  A    between atoms: C_1  and  C_2
REMARK    2  A    between atoms: C_2  and  C_3
REMARK    3  A    between atoms: C_2  and  C_4
REMARK    4  A    between atoms: C_4  and  O_5
REMARK    5  A    between atoms: O_5  and  C_6
REMARK    6  A    between atoms: C_7  and  C_21
REMARK    7  A    between atoms: C_9  and  C_12
REMARK    8  A    between atoms: C_14  and  C_15
REMARK    9  A    between atoms: C_16  and  C_18
REMARK   10  A    between atoms: C_18  and  O_19
REMARK                            x       y       z     vdW  Elec       q    Type
REMARK                         _______ _______ _______ _____ _____    ______ ____
ROOT
ATOM      1  C   UNL     1       7.869  -2.860  23.220  0.00  0.00    +0.138 A 
ATOM      2  C   UNL     1       6.689  -2.490  22.568  0.00  0.00    +0.047 A 
ATOM      3  C   UNL     1       5.552  -3.306  22.646  0.00  0.00    +0.014 A 
ATOM      4  C   UNL     1       5.566  -4.502  23.378  0.00  0.00    +0.009 A 
ATOM      5  C   UNL     1       6.759  -4.865  24.024  0.00  0.00    +0.033 A 
ATOM      6  C   UNL     1       7.904  -4.057  23.945  0.00  0.00    +0.094 A 
ENDROOT
BRANCH   4   7
ATOM      7  C   UNL     1       4.356  -5.342  23.432  0.00  0.00    +0.109 A 
ATOM      8  S   UNL     1       4.401  -6.896  24.167  0.00  0.00    -0.060 S 
ATOM      9  C   UNL     1       2.743  -7.132  23.813  0.00  0.00    +0.119 A 
ATOM     10  C   UNL     1       2.245  -6.013  23.165  0.00  0.00    +0.060 A 
ATOM     11  C   UNL     1       0.852  -5.811  22.670  0.00  0.00    +0.067 C 
ATOM     12  N   UNL     1       3.171  -4.990  22.977  0.00  0.00    -0.243 NA
BRANCH   9  13
ATOM     13  C   UNL     1       2.048  -8.349  24.174  0.00  0.00    +0.345 C 
ATOM     14  O   UNL     1       1.071  -8.805  23.599  0.00  0.00    -0.244 OA
BRANCH  13  15
ATOM     15  O   UNL     1       2.587  -8.975  25.255  0.00  0.00    -0.477 OA
ATOM     16  H   UNL     1       1.979  -8.980  26.021  0.00  0.00    +0.295 HD
ENDBRANCH  13  15
ENDBRANCH   9  13
ENDBRANCH   4   7
BRANCH   6  17
ATOM     17  C   UNL     1       9.091  -4.477  24.636  0.00  0.00    +0.103 C 
ATOM     18  N   UNL     1      10.022  -4.863  25.213  0.00  0.00    -0.191 NA
ENDBRANCH   6  17
BRANCH   1  19
ATOM     19  O   UNL     1       9.033  -2.145  23.150  0.00  0.00    -0.490 OA
BRANCH  19  20
ATOM     20  C   UNL     1       9.351  -1.557  21.887  0.00  0.00    +0.232 C 
BRANCH  20  22
ATOM     21  C   UNL     1       8.949   0.908  21.591  0.00  0.00    +0.010 C 
ATOM     22  C   UNL     1       9.914  -0.147  22.126  0.00  0.00    +0.020 C 
ATOM     23  C   UNL     1      10.199   0.099  23.610  0.00  0.00    +0.010 C 
ENDBRANCH  20  22
ENDBRANCH  19  20
ENDBRANCH   1  19
TORSDOF 7
ENDMDL
MODEL 5
REMARK VINA RESULT:      -6.1      2.716      3.946
REMARK  Name = 
REMARK  10 active torsions:
REMARK  status: ('A' for Active; 'I' for Inactive)
REMARK    1  A    between atoms: C_1  and  C_2
REMARK    2  A    between atoms: C_2  and  C_3
REMARK    3  A    between atoms: C_2  and  C_4
REMARK    4  A    between atoms: C_4  and  O_5
REMARK    5  A    between atoms: O_5  and  C_6
REMARK    6  A    between atoms: C_7  and  C_21
REMARK    7  A    between atoms: C_9  and  C_12
REMARK    8  A    between atoms: C_14  and  C_15
REMARK    9  A    between atoms: C_16  and  C_18
REMARK   10  A    between atoms: C_18  and  O_19
REMARK                            x       y       z     vdW  Elec       q    Type
REMARK                         _______ _______ _______ _____ _____    ______ ____
ROOT
ATOM      1  C   UNL     1       9.338  -0.824  25.320  0.00  0.00    +0.138 A 
ATOM      2  C   UNL     1       8.535  -0.926  26.460  0.00  0.00    +0.047 A 
ATOM      3  C   UNL     1       7.701  -2.038  26.641  0.00  0.00    +0.014 A 
ATOM      4  C   UNL     1       7.654  -3.071  25.694  0.00  0.00    +0.009 A 
ATOM      5  C   UNL     1       8.460  -2.955  24.551  0.00  0.00    +0.033 A 
ATOM      6  C   UNL     1       9.293  -1.840  24.359  0.00  0.00    +0.094 A 
ENDROOT
BRANCH   4   7
ATOM      7  C   UNL     1       6.758  -4.222  25.910  0.00  0.00    +0.109 A 
ATOM      8  S   UNL     1       5.845  -4.876  24.608  0.00  0.00    -0.060 S 
ATOM      9  C   UNL     1       5.163  -6.050  25.652  0.00  0.00    +0.119 A 
ATOM     10  C   UNL     1       5.675  -5.885  26.929  0.00  0.00    +0.060 A 
ATOM     11  C   UNL     1       5.335  -6.688  28.139  0.00  0.00    +0.067 C 
ATOM     12  N   UNL     1       6.602  -4.854  27.055  0.00  0.00    -0.243 NA
BRANCH   9  13
ATOM     13  C   UNL     1       4.204  -7.026  25.184  0.00  0.00    +0.345 C 
ATOM     14  O   UNL     1       3.205  -7.388  25.789  0.00  0.00    -0.244 OA
BRANCH  13  15
ATOM     15  O   UNL     1       4.513  -7.541  23.963  0.00  0.00    -0.477 OA
ATOM     16  H   UNL     1       4.058  -7.071  23.236  0.00  0.00    +0.295 HD
ENDBRANCH  13  15
ENDBRANCH   9  13
ENDBRANCH   4   7
BRANCH   6  17
ATOM     17  C   UNL     1      10.103  -1.783  23.174  0.00  0.00    +0.103 C 
ATOM     18  N   UNL     1      10.722  -1.777  22.192  0.00  0.00    -0.191 NA
ENDBRANCH   6  17
BRANCH   1  19
ATOM     19  O   UNL     1      10.139   0.250  25.047  0.00  0.00    -0.490 OA
BRANCH  19  20
ATOM     20  C   UNL     1       9.490   1.430  24.567  0.00  0.00    +0.232 C 
BRANCH  20  22
ATOM     21  C   UNL     1       9.835   1.692  22.090  0.00  0.00    +0.010 C 
ATOM     22  C   UNL     1      10.363   2.064  23.473  0.00  0.00    +0.020 C 
ATOM     23  C   UNL     1      10.432   3.586  23.624  0.00  0.00    +0.010 C 
ENDBRANCH  20  22
ENDBRANCH  19  20
ENDBRANCH   1  19
TORSDOF 7
ENDMDL
MODEL 6
REMARK VINA RESULT:      -5.9      1.902      2.713
REMARK  Name = 
REMARK  10 active torsions:
REMARK  status: ('A' for Active; 'I' for Inactive)
REMARK    1  A    between atoms: C_1  and  C_2
REMARK    2  A    between atoms: C_2  and  C_3
REMARK    3  A    between atoms: C_2  and  C_4
REMARK    4  A    between atoms: C_4  and  O_5
REMARK    5  A    between atoms: O_5  and  C_6
REMARK    6  A    between atoms: C_7  and  C_21
REMARK    7  A    between atoms: C_9  and  C_12
REMARK    8  A    between atoms: C_14  and  C_15
REMARK    9  A    between atoms: C_16  and  C_18
REMARK   10  A    between atoms: C_18  and  O_19
REMARK                            x       y       z     vdW  Elec       q    Type
REMARK                         _______ _______ _______ _____ _____    ______ ____
ROOT
ATOM      1  C   UNL     1       7.956   2.276  22.730  0.00  0.00    +0.138 A 
ATOM      2  C   UNL     1       6.827   1.464  22.590  0.00  0.00    +0.047 A 
ATOM      3  C   UNL     1       6.898   0.096  22.888  0.00  0.00    +0.014 A 
ATOM      4  C   UNL     1       8.091  -0.488  23.335  0.00  0.00    +0.009 A 
ATOM      5  C   UNL     1       9.220   0.337  23.466  0.00  0.00    +0.033 A 
ATOM      6  C   UNL     1       9.159   1.706  23.163  0.00  0.00    +0.094 A 
ENDROOT
BRANCH   4   7
ATOM      7  C   UNL     1       8.135  -1.932  23.631  0.00  0.00    +0.109 A 
ATOM      8  S   UNL     1       8.824  -2.505  25.098  0.00  0.00    -0.060 S 
ATOM      9  C   UNL     1       8.486  -4.122  24.647  0.00  0.00    +0.119 A 
ATOM     10  C   UNL     1       7.858  -4.134  23.412  0.00  0.00    +0.060 A 
ATOM     11  C   UNL     1       7.407  -5.336  22.651  0.00  0.00    +0.067 C 
ATOM     12  N   UNL     1       7.643  -2.877  22.856  0.00  0.00    -0.243 NA
BRANCH   9  13
ATOM     13  C   UNL     1       8.838  -5.242  25.492  0.00  0.00    +0.345 C 
ATOM     14  O   UNL     1       8.105  -5.767  26.318  0.00  0.00    -0.244 OA
BRANCH  13  15
ATOM     15  O   UNL     1      10.108  -5.686  25.294  0.00  0.00    -0.477 OA
ATOM     16  H   UNL     1      10.163  -6.663  25.290  0.00  0.00    +0.295 HD
ENDBRANCH  13  15
ENDBRANCH   9  13
ENDBRANCH   4   7
BRANCH   6  17
ATOM     17  C   UNL     1      10.345   2.500  23.326  0.00  0.00    +0.103 C 
ATOM     18  N   UNL     1      11.294   3.164  23.407  0.00  0.00    -0.191 NA
ENDBRANCH   6  17
BRANCH   1  19
ATOM     19  O   UNL     1       7.981   3.606  22.412  0.00  0.00    -0.490 OA
BRANCH  19  20
ATOM     20  C   UNL     1       7.235   4.483  23.259  0.00  0.00    +0.232 C 
BRANCH  20  22
ATOM     21  C   UNL     1       7.791   6.808  24.041  0.00  0.00    +0.010 C 
ATOM     22  C   UNL     1       8.218   5.342  24.069  0.00  0.00    +0.020 C 
ATOM     23  C   UNL     1       8.334   4.850  25.514  0.00  0.00    +0.010 C 
ENDBRANCH  20  22
ENDBRANCH  19  20
ENDBRANCH   1  19
TORSDOF 7
ENDMDL
MODEL 7
REMARK VINA RESULT:      -5.9      2.696      8.108
REMARK  Name = 
REMARK  10 active torsions:
REMARK  status: ('A' for Active; 'I' for Inactive)
REMARK    1  A    between atoms: C_1  and  C_2
REMARK    2  A    between atoms: C_2  and  C_3
REMARK    3  A    between atoms: C_2  and  C_4
REMARK    4  A    between atoms: C_4  and  O_5
REMARK    5  A    between atoms: O_5  and  C_6
REMARK    6  A    between atoms: C_7  and  C_21
REMARK    7  A    between atoms: C_9  and  C_12
REMARK    8  A    between atoms: C_14  and  C_15
REMARK    9  A    between atoms: C_16  and  C_18
REMARK   10  A    between atoms: C_18  and  O_19
REMARK                            x       y       z     vdW  Elec       q    Type
REMARK                         _______ _______ _______ _____ _____    ______ ____
ROOT
ATOM      1  C   UNL     1       8.317  -2.530  23.603  0.00  0.00    +0.138 A 
ATOM      2  C   UNL     1       9.335  -1.731  24.131  0.00  0.00    +0.047 A 
ATOM      3  C   UNL     1       9.266  -0.335  24.025  0.00  0.00    +0.014 A 
ATOM      4  C   UNL     1       8.182   0.292  23.395  0.00  0.00    +0.009 A 
ATOM      5  C   UNL     1       7.168  -0.522  22.863  0.00  0.00    +0.033 A 
ATOM      6  C   UNL     1       7.233  -1.921  22.960  0.00  0.00    +0.094 A 
ENDROOT
BRANCH   4   7
ATOM      7  C   UNL     1       8.145   1.762  23.291  0.00  0.00    +0.109 A 
ATOM      8  S   UNL     1       6.832   2.552  22.512  0.00  0.00    -0.060 S 
ATOM      9  C   UNL     1       7.542   4.078  22.820  0.00  0.00    +0.119 A 
ATOM     10  C   UNL     1       8.733   3.903  23.507  0.00  0.00    +0.060 A 
ATOM     11  C   UNL     1       9.671   4.972  23.958  0.00  0.00    +0.067 C 
ATOM     12  N   UNL     1       9.051   2.578  23.790  0.00  0.00    -0.243 NA
BRANCH   9  13
ATOM     13  C   UNL     1       6.922   5.313  22.391  0.00  0.00    +0.345 C 
ATOM     14  O   UNL     1       5.892   5.786  22.848  0.00  0.00    -0.244 OA
BRANCH  13  15
ATOM     15  O   UNL     1       7.601   5.936  21.389  0.00  0.00    -0.477 OA
ATOM     16  H   UNL     1       7.048   6.066  20.593  0.00  0.00    +0.295 HD
ENDBRANCH  13  15
ENDBRANCH   9  13
ENDBRANCH   4   7
BRANCH   6  17
ATOM     17  C   UNL     1       6.160  -2.698  22.405  0.00  0.00    +0.103 C 
ATOM     18  N   UNL     1       5.323  -3.332  21.908  0.00  0.00    -0.191 NA
ENDBRANCH   6  17
BRANCH   1  19
ATOM     19  O   UNL     1       8.335  -3.898  23.622  0.00  0.00    -0.490 OA
BRANCH  19  20
ATOM     20  C   UNL     1       8.890  -4.517  24.785  0.00  0.00    +0.232 C 
BRANCH  20  22
ATOM     21  C   UNL     1       7.386  -3.919  26.711  0.00  0.00    +0.010 C 
ATOM     22  C   UNL     1       7.741  -4.994  25.686  0.00  0.00    +0.020 C 
ATOM     23  C   UNL     1       6.506  -5.374  24.866  0.00  0.00    +0.010 C 
ENDBRANCH  20  22
ENDBRANCH  19  20
ENDBRANCH   1  19
TORSDOF 7
ENDMDL
MODEL 8
REMARK VINA RESULT:      -5.9      2.766      4.045
REMARK  Name = 
REMARK  10 active torsions:
REMARK  status: ('A' for Active; 'I' for Inactive)
REMARK    1  A    between atoms: C_1  and  C_2
REMARK    2  A    between atoms: C_2  and  C_3
REMARK    3  A    between atoms: C_2  and  C_4
REMARK    4  A    between atoms: C_4  and  O_5
REMARK    5  A    between atoms: O_5  and  C_6
REMARK    6  A    between atoms: C_7  and  C_21
REMARK    7  A    between atoms: C_9  and  C_12
REMARK    8  A    between atoms: C_14  and  C_15
REMARK    9  A    between atoms: C_16  and  C_18
REMARK   10  A    between atoms: C_18  and  O_19
REMARK                            x       y       z     vdW  Elec       q    Type
REMARK                         _______ _______ _______ _____ _____    ______ ____
ROOT
ATOM      1  C   UNL     1       7.481  -0.649  23.816  0.00  0.00    +0.138 A 
ATOM      2  C   UNL     1       6.261  -0.626  24.498  0.00  0.00    +0.047 A 
ATOM      3  C   UNL     1       5.758  -1.794  25.087  0.00  0.00    +0.014 A 
ATOM      4  C   UNL     1       6.460  -3.005  25.012  0.00  0.00    +0.009 A 
ATOM      5  C   UNL     1       7.681  -3.017  24.319  0.00  0.00    +0.033 A 
ATOM      6  C   UNL     1       8.189  -1.852  23.720  0.00  0.00    +0.094 A 
ENDROOT
BRANCH   4   7
ATOM      7  C   UNL     1       5.898  -4.218  25.633  0.00  0.00    +0.109 A 
ATOM      8  S   UNL     1       6.098  -4.514  27.315  0.00  0.00    -0.060 S 
ATOM      9  C   UNL     1       5.225  -5.980  27.180  0.00  0.00    +0.119 A 
ATOM     10  C   UNL     1       4.821  -6.158  25.867  0.00  0.00    +0.060 A 
ATOM     11  C   UNL     1       4.050  -7.311  25.317  0.00  0.00    +0.067 C 
ATOM     12  N   UNL     1       5.191  -5.133  25.001  0.00  0.00    -0.243 NA
BRANCH   9  13
ATOM     13  C   UNL     1       4.994  -6.841  28.320  0.00  0.00    +0.345 C 
ATOM     14  O   UNL     1       3.920  -7.002  28.882  0.00  0.00    -0.244 OA
BRANCH  13  15
ATOM     15  O   UNL     1       6.114  -7.486  28.744  0.00  0.00    -0.477 OA
ATOM     16  H   UNL     1       6.018  -7.840  29.650  0.00  0.00    +0.295 HD
ENDBRANCH  13  15
ENDBRANCH   9  13
ENDBRANCH   4   7
BRANCH   6  17
ATOM     17  C   UNL     1       9.448  -1.926  23.034  0.00  0.00    +0.103 C 
ATOM     18  N   UNL     1      10.438  -1.980  22.429  0.00  0.00    -0.191 NA
ENDBRANCH   6  17
BRANCH   1  19
ATOM     19  O   UNL     1       8.014   0.435  23.173  0.00  0.00    -0.490 OA
BRANCH  19  20
ATOM     20  C   UNL     1       8.434   1.526  23.995  0.00  0.00    +0.232 C 
BRANCH  20  22
ATOM     21  C   UNL     1      10.875   1.075  24.403  0.00  0.00    +0.010 C 
ATOM     22  C   UNL     1       9.871   1.909  23.610  0.00  0.00    +0.020 C 
ATOM     23  C   UNL     1      10.112   1.743  22.108  0.00  0.00    +0.010 C 
ENDBRANCH  20  22
ENDBRANCH  19  20
ENDBRANCH   1  19
TORSDOF 7
ENDMDL
MODEL 9
REMARK VINA RESULT:      -5.8      2.053      2.385
REMARK  Name = 
REMARK  10 active torsions:
REMARK  status: ('A' for Active; 'I' for Inactive)
REMARK    1  A    between atoms: C_1  and  C_2
REMARK    2  A    between atoms: C_2  and  C_3
REMARK    3  A    between atoms: C_2  and  C_4
REMARK    4  A    between atoms: C_4  and  O_5
REMARK    5  A    between atoms: O_5  and  C_6
REMARK    6  A    between atoms: C_7  and  C_21
REMARK    7  A    between atoms: C_9  and  C_12
REMARK    8  A    between atoms: C_14  and  C_15
REMARK    9  A    between atoms: C_16  and  C_18
REMARK   10  A    between atoms: C_18  and  O_19
REMARK                            x       y       z     vdW  Elec       q    Type
REMARK                         _______ _______ _______ _____ _____    ______ ____
ROOT
ATOM      1  C   UNL     1       8.100   2.402  22.432  0.00  0.00    +0.138 A 
ATOM      2  C   UNL     1       9.285   1.665  22.348  0.00  0.00    +0.047 A 
ATOM      3  C   UNL     1       9.288   0.294  22.637  0.00  0.00    +0.014 A 
ATOM      4  C   UNL     1       8.112  -0.372  23.011  0.00  0.00    +0.009 A 
ATOM      5  C   UNL     1       6.928   0.380  23.097  0.00  0.00    +0.033 A 
ATOM      6  C   UNL     1       6.919   1.756  22.816  0.00  0.00    +0.094 A 
ENDROOT
BRANCH   4   7
ATOM      7  C   UNL     1       8.151  -1.813  23.318  0.00  0.00    +0.109 A 
ATOM      8  S   UNL     1       8.930  -2.384  24.740  0.00  0.00    -0.060 S 
ATOM      9  C   UNL     1       8.534  -3.999  24.331  0.00  0.00    +0.119 A 
ATOM     10  C   UNL     1       7.823  -4.012  23.142  0.00  0.00    +0.060 A 
ATOM     11  C   UNL     1       7.300  -5.213  22.427  0.00  0.00    +0.067 C 
ATOM     12  N   UNL     1       7.592  -2.757  22.588  0.00  0.00    -0.243 NA
BRANCH   9  13
ATOM     13  C   UNL     1       8.924  -5.117  25.162  0.00  0.00    +0.345 C 
ATOM     14  O   UNL     1       8.210  -5.677  25.981  0.00  0.00    -0.244 OA
BRANCH  13  15
ATOM     15  O   UNL     1      10.209  -5.516  24.958  0.00  0.00    -0.477 OA
ATOM     16  H   UNL     1      10.798  -5.259  25.695  0.00  0.00    +0.295 HD
ENDBRANCH  13  15
ENDBRANCH   9  13
ENDBRANCH   4   7
BRANCH   6  17
ATOM     17  C   UNL     1       5.676   2.468  22.912  0.00  0.00    +0.103 C 
ATOM     18  N   UNL     1       4.688   3.065  23.040  0.00  0.00    -0.191 NA
ENDBRANCH   6  17
BRANCH   1  19
ATOM     19  O   UNL     1       8.025   3.750  22.215  0.00  0.00    -0.490 OA
BRANCH  19  20
ATOM     20  C   UNL     1       8.288   4.596  23.337  0.00  0.00    +0.232 C 
BRANCH  20  22
ATOM     21  C   UNL     1       7.312   6.547  22.084  0.00  0.00    +0.010 C 
ATOM     22  C   UNL     1       8.538   6.025  22.830  0.00  0.00    +0.020 C 
ATOM     23  C   UNL     1       8.904   6.971  23.977  0.00  0.00    +0.010 C 
ENDBRANCH  20  22
ENDBRANCH  19  20
ENDBRANCH   1  19
TORSDOF 7
ENDMDL
