MODEL 1
REMARK VINA RESULT:      -6.6      0.000      0.000
REMARK  Name = 
REMARK  6 active torsions:
REMARK  status: ('A' for Active; 'I' for Inactive)
REMARK    1  A    between atoms: N_1  and  C_2
REMARK    2  A    between atoms: C_3  and  C_4
REMARK    3  A    between atoms: C_4  and  C_5
REMARK    4  A    between atoms: C_5  and  O_6
REMARK    5  A    between atoms: C_11  and  C_12
REMARK    6  A    between atoms: C_12  and  C_14
REMARK                            x       y       z     vdW  Elec       q    Type
REMARK                         _______ _______ _______ _____ _____    ______ ____
ROOT
ATOM      1  C   UNL     1       9.382  -1.760  23.829  0.00  0.00    +0.039 A 
ATOM      2  C   UNL     1       8.961  -2.616  24.872  0.00  0.00    +0.043 A 
ATOM      3  C   UNL     1       8.510  -2.070  26.080  0.00  0.00    +0.013 A 
ATOM      4  C   UNL     1       8.630  -0.708  26.310  0.00  0.00    +0.001 A 
ATOM      5  C   UNL     1       9.302   0.085  25.382  0.00  0.00    +0.006 A 
ATOM      6  C   UNL     1       9.755  -0.444  24.155  0.00  0.00    -0.015 A 
ENDROOT
BRANCH   1   7
ATOM      7  N   UNL     1       9.610  -2.224  22.509  0.00  0.00    -0.357 N 
ATOM      8  H   UNL     1      10.603  -2.188  22.260  0.00  0.00    +0.142 HD
ATOM      9  H   UNL     1       9.317  -3.203  22.409  0.00  0.00    +0.142 HD
ENDBRANCH   1   7
BRANCH   2  10
ATOM     10  C   UNL     1       8.959  -4.109  24.779  0.00  0.00    +0.195 C 
ATOM     11  O   UNL     1      10.028  -4.705  24.834  0.00  0.00    -0.287 OA
BRANCH  10  12
ATOM     12  C   UNL     1       7.696  -4.884  24.602  0.00  0.00    +0.022 A 
ATOM     13  C   UNL     1       7.155  -5.182  23.348  0.00  0.00    +0.013 A 
ATOM     14  C   UNL     1       5.877  -5.750  23.243  0.00  0.00    +0.016 A 
ATOM     15  C   UNL     1       5.179  -6.091  24.398  0.00  0.00    +0.018 A 
ATOM     16 BR   UNL     1       3.432  -6.802  24.266  0.00  0.00    -0.050 Br
ATOM     17  C   UNL     1       5.752  -5.897  25.653  0.00  0.00    +0.016 A 
ATOM     18  C   UNL     1       7.010  -5.294  25.755  0.00  0.00    +0.013 A 
ENDBRANCH  10  12
ENDBRANCH   2  10
BRANCH   6  19
ATOM     19  C   UNL     1      10.539   0.492  23.245  0.00  0.00    +0.157 C 
BRANCH  19  20
ATOM     20  C   UNL     1       9.915   1.135  22.019  0.00  0.00    +0.309 C 
ATOM     21  O   UNL     1       9.135   0.507  21.308  0.00  0.00    -0.251 OA
BRANCH  20  22
ATOM     22  O   UNL     1      10.269   2.385  21.680  0.00  0.00    -0.480 OA
ATOM     23  H   UNL     1      10.565   2.478  20.744  0.00  0.00    +0.295 HD
ENDBRANCH  20  22
ENDBRANCH  19  20
ENDBRANCH   6  19
TORSDOF 6
ENDMDL
MODEL 2
REMARK VINA RESULT:      -6.5      0.471      1.170
REMARK  Name = 
REMARK  6 active torsions:
REMARK  status: ('A' for Active; 'I' for Inactive)
REMARK    1  A    between atoms: N_1  and  C_2
REMARK    2  A    between atoms: C_3  and  C_4
REMARK    3  A    between atoms: C_4  and  C_5
REMARK    4  A    between atoms: C_5  and  O_6
REMARK    5  A    between atoms: C_11  and  C_12
REMARK    6  A    between atoms: C_12  and  C_14
REMARK                            x       y       z     vdW  Elec       q    Type
REMARK                         _______ _______ _______ _____ _____    ______ ____
ROOT
ATOM      1  C   UNL     1       9.205  -1.824  23.793  0.00  0.00    +0.039 A 
ATOM      2  C   UNL     1       8.814  -2.622  24.893  0.00  0.00    +0.043 A 
ATOM      3  C   UNL     1       8.532  -2.018  26.124  0.00  0.00    +0.013 A 
ATOM      4  C   UNL     1       8.791  -0.669  26.308  0.00  0.00    +0.001 A 
ATOM      5  C   UNL     1       9.436   0.046  25.301  0.00  0.00    +0.006 A 
ATOM      6  C   UNL     1       9.720  -0.542  24.050  0.00  0.00    -0.015 A 
ENDROOT
BRANCH   1   7
ATOM      7  N   UNL     1       9.262  -2.328  22.469  0.00  0.00    -0.357 N 
ATOM      8  H   UNL     1       8.521  -1.933  21.881  0.00  0.00    +0.142 HD
ATOM      9  H   UNL     1      10.154  -2.084  22.022  0.00  0.00    +0.142 HD
ENDBRANCH   1   7
BRANCH   2  10
ATOM     10  C   UNL     1       8.672  -4.110  24.837  0.00  0.00    +0.195 C 
ATOM     11  O   UNL     1       9.674  -4.791  24.649  0.00  0.00    -0.287 OA
BRANCH  10  12
ATOM     12  C   UNL     1       7.347  -4.780  24.985  0.00  0.00    +0.022 A 
ATOM     13  C   UNL     1       6.870  -5.263  26.206  0.00  0.00    +0.013 A 
ATOM     14  C   UNL     1       5.707  -6.045  26.255  0.00  0.00    +0.016 A 
ATOM     15  C   UNL     1       4.982  -6.273  25.089  0.00  0.00    +0.018 A 
ATOM     16 BR   UNL     1       3.446  -7.374  25.137  0.00  0.00    -0.050 Br
ATOM     17  C   UNL     1       5.390  -5.708  23.882  0.00  0.00    +0.016 A 
ATOM     18  C   UNL     1       6.572  -4.962  23.830  0.00  0.00    +0.013 A 
ENDBRANCH  10  12
ENDBRANCH   2  10
BRANCH   6  19
ATOM     19  C   UNL     1      10.492   0.306  23.047  0.00  0.00    +0.157 C 
BRANCH  19  20
ATOM     20  C   UNL     1       9.800   1.042  21.912  0.00  0.00    +0.309 C 
ATOM     21  O   UNL     1       9.067   0.442  21.129  0.00  0.00    -0.251 OA
BRANCH  20  22
ATOM     22  O   UNL     1      10.043   2.349  21.732  0.00  0.00    -0.480 OA
ATOM     23  H   UNL     1       9.264   2.929  21.902  0.00  0.00    +0.295 HD
ENDBRANCH  20  22
ENDBRANCH  19  20
ENDBRANCH   6  19
TORSDOF 6
ENDMDL
MODEL 3
REMARK VINA RESULT:      -6.5      3.583      7.046
REMARK  Name = 
REMARK  6 active torsions:
REMARK  status: ('A' for Active; 'I' for Inactive)
REMARK    1  A    between atoms: N_1  and  C_2
REMARK    2  A    between atoms: C_3  and  C_4
REMARK    3  A    between atoms: C_4  and  C_5
REMARK    4  A    between atoms: C_5  and  O_6
REMARK    5  A    between atoms: C_11  and  C_12
REMARK    6  A    between atoms: C_12  and  C_14
REMARK                            x       y       z     vdW  Elec       q    Type
REMARK                         _______ _______ _______ _____ _____    ______ ____
ROOT
ATOM      1  C   UNL     1       6.919  -4.324  25.467  0.00  0.00    +0.039 A 
ATOM      2  C   UNL     1       7.716  -4.308  24.298  0.00  0.00    +0.043 A 
ATOM      3  C   UNL     1       7.257  -4.938  23.136  0.00  0.00    +0.013 A 
ATOM      4  C   UNL     1       6.107  -5.711  23.176  0.00  0.00    +0.001 A 
ATOM      5  C   UNL     1       5.483  -5.943  24.400  0.00  0.00    +0.006 A 
ATOM      6  C   UNL     1       5.924  -5.310  25.581  0.00  0.00    -0.015 A 
ENDROOT
BRANCH   1   7
ATOM      7  N   UNL     1       7.199  -3.505  26.590  0.00  0.00    -0.357 N 
ATOM      8  H   UNL     1       8.194  -3.264  26.645  0.00  0.00    +0.142 HD
ATOM      9  H   UNL     1       6.685  -2.618  26.534  0.00  0.00    +0.142 HD
ENDBRANCH   1   7
BRANCH   2  10
ATOM     10  C   UNL     1       9.054  -3.645  24.209  0.00  0.00    +0.195 C 
ATOM     11  O   UNL     1      10.047  -4.271  24.561  0.00  0.00    -0.287 OA
BRANCH  10  12
ATOM     12  C   UNL     1       9.206  -2.243  23.722  0.00  0.00    +0.022 A 
ATOM     13  C   UNL     1       9.171  -1.899  22.368  0.00  0.00    +0.013 A 
ATOM     14  C   UNL     1       9.502  -0.600  21.956  0.00  0.00    +0.016 A 
ATOM     15  C   UNL     1       9.789   0.372  22.911  0.00  0.00    +0.018 A 
ATOM     16 BR   UNL     1      10.293   2.109  22.362  0.00  0.00    -0.050 Br
ATOM     17  C   UNL     1       9.724   0.068  24.269  0.00  0.00    +0.016 A 
ATOM     18  C   UNL     1       9.432  -1.238  24.674  0.00  0.00    +0.013 A 
ENDBRANCH  10  12
ENDBRANCH   2  10
BRANCH   6  19
ATOM     19  C   UNL     1       5.217  -5.690  26.876  0.00  0.00    +0.157 C 
BRANCH  19  20
ATOM     20  C   UNL     1       5.919  -6.458  27.982  0.00  0.00    +0.309 C 
ATOM     21  O   UNL     1       7.016  -6.098  28.400  0.00  0.00    -0.251 OA
BRANCH  20  22
ATOM     22  O   UNL     1       5.356  -7.578  28.463  0.00  0.00    -0.480 OA
ATOM     23  H   UNL     1       5.656  -7.820  29.371  0.00  0.00    +0.295 HD
ENDBRANCH  20  22
ENDBRANCH  19  20
ENDBRANCH   6  19
TORSDOF 6
ENDMDL
MODEL 4
REMARK VINA RESULT:      -6.5      3.441      6.729
REMARK  Name = 
REMARK  6 active torsions:
REMARK  status: ('A' for Active; 'I' for Inactive)
REMARK    1  A    between atoms: N_1  and  C_2
REMARK    2  A    between atoms: C_3  and  C_4
REMARK    3  A    between atoms: C_4  and  C_5
REMARK    4  A    between atoms: C_5  and  O_6
REMARK    5  A    between atoms: C_11  and  C_12
REMARK    6  A    between atoms: C_12  and  C_14
REMARK                            x       y       z     vdW  Elec       q    Type
REMARK                         _______ _______ _______ _____ _____    ______ ____
ROOT
ATOM      1  C   UNL     1       8.399  -3.363  24.334  0.00  0.00    +0.039 A 
ATOM      2  C   UNL     1       8.331  -2.841  23.021  0.00  0.00    +0.043 A 
ATOM      3  C   UNL     1       7.448  -3.406  22.094  0.00  0.00    +0.013 A 
ATOM      4  C   UNL     1       6.763  -4.569  22.411  0.00  0.00    +0.001 A 
ATOM      5  C   UNL     1       7.049  -5.226  23.606  0.00  0.00    +0.006 A 
ATOM      6  C   UNL     1       7.929  -4.669  24.558  0.00  0.00    -0.015 A 
ENDROOT
BRANCH   1   7
ATOM      7  N   UNL     1       9.075  -2.693  25.385  0.00  0.00    -0.357 N 
ATOM      8  H   UNL     1       9.701  -1.964  25.030  0.00  0.00    +0.142 HD
ATOM      9  H   UNL     1       8.408  -2.228  26.013  0.00  0.00    +0.142 HD
ENDBRANCH   1   7
BRANCH   2  10
ATOM     10  C   UNL     1       9.159  -1.694  22.535  0.00  0.00    +0.195 C 
ATOM     11  O   UNL     1      10.348  -1.881  22.305  0.00  0.00    -0.287 OA
BRANCH  10  12
ATOM     12  C   UNL     1       8.579  -0.333  22.342  0.00  0.00    +0.022 A 
ATOM     13  C   UNL     1       9.197   0.655  21.569  0.00  0.00    +0.013 A 
ATOM     14  C   UNL     1       8.705   1.969  21.572  0.00  0.00    +0.016 A 
ATOM     15  C   UNL     1       7.549   2.269  22.287  0.00  0.00    +0.018 A 
ATOM     16 BR   UNL     1       6.915   4.049  22.343  0.00  0.00    -0.050 Br
ATOM     17  C   UNL     1       6.865   1.270  22.976  0.00  0.00    +0.016 A 
ATOM     18  C   UNL     1       7.380  -0.030  23.003  0.00  0.00    +0.013 A 
ENDBRANCH  10  12
ENDBRANCH   2  10
BRANCH   6  19
ATOM     19  C   UNL     1       8.226  -5.503  25.797  0.00  0.00    +0.157 C 
BRANCH  19  20
ATOM     20  C   UNL     1       7.517  -5.264  27.119  0.00  0.00    +0.309 C 
ATOM     21  O   UNL     1       7.051  -4.161  27.392  0.00  0.00    -0.251 OA
BRANCH  20  22
ATOM     22  O   UNL     1       7.455  -6.257  28.020  0.00  0.00    -0.480 OA
ATOM     23  H   UNL     1       8.335  -6.615  28.283  0.00  0.00    +0.295 HD
ENDBRANCH  20  22
ENDBRANCH  19  20
ENDBRANCH   6  19
TORSDOF 6
ENDMDL
MODEL 5
REMARK VINA RESULT:      -6.3      3.832      6.937
REMARK  Name = 
REMARK  6 active torsions:
REMARK  status: ('A' for Active; 'I' for Inactive)
REMARK    1  A    between atoms: N_1  and  C_2
REMARK    2  A    between atoms: C_3  and  C_4
REMARK    3  A    between atoms: C_4  and  C_5
REMARK    4  A    between atoms: C_5  and  O_6
REMARK    5  A    between atoms: C_11  and  C_12
REMARK    6  A    between atoms: C_12  and  C_14
REMARK                            x       y       z     vdW  Elec       q    Type
REMARK                         _______ _______ _______ _____ _____    ______ ____
ROOT
ATOM      1  C   UNL     1       6.734  -4.690  24.793  0.00  0.00    +0.039 A 
ATOM      2  C   UNL     1       7.810  -4.091  24.098  0.00  0.00    +0.043 A 
ATOM      3  C   UNL     1       9.116  -4.239  24.579  0.00  0.00    +0.013 A 
ATOM      4  C   UNL     1       9.335  -4.828  25.815  0.00  0.00    +0.001 A 
ATOM      5  C   UNL     1       8.245  -5.164  26.614  0.00  0.00    +0.006 A 
ATOM      6  C   UNL     1       6.921  -5.032  26.144  0.00  0.00    -0.015 A 
ENDROOT
BRANCH   1   7
ATOM      7  N   UNL     1       5.433  -4.794  24.238  0.00  0.00    -0.357 N 
ATOM      8  H   UNL     1       4.707  -4.585  24.931  0.00  0.00    +0.142 HD
ATOM      9  H   UNL     1       5.308  -4.125  23.469  0.00  0.00    +0.142 HD
ENDBRANCH   1   7
BRANCH   2  10
ATOM     10  C   UNL     1       7.652  -3.288  22.846  0.00  0.00    +0.195 C 
ATOM     11  O   UNL     1       7.072  -3.793  21.891  0.00  0.00    -0.287 OA
BRANCH  10  12
ATOM     12  C   UNL     1       8.197  -1.905  22.725  0.00  0.00    +0.022 A 
ATOM     13  C   UNL     1       9.215  -1.563  21.830  0.00  0.00    +0.013 A 
ATOM     14  C   UNL     1       9.815  -0.296  21.887  0.00  0.00    +0.016 A 
ATOM     15  C   UNL     1       9.337   0.651  22.788  0.00  0.00    +0.018 A 
ATOM     16 BR   UNL     1      10.178   2.339  22.911  0.00  0.00    -0.050 Br
ATOM     17  C   UNL     1       8.253   0.358  23.613  0.00  0.00    +0.016 A 
ATOM     18  C   UNL     1       7.683  -0.919  23.581  0.00  0.00    +0.013 A 
ENDBRANCH  10  12
ENDBRANCH   2  10
BRANCH   6  19
ATOM     19  C   UNL     1       5.802  -5.360  27.124  0.00  0.00    +0.157 C 
BRANCH  19  20
ATOM     20  C   UNL     1       5.134  -6.724  27.158  0.00  0.00    +0.309 C 
ATOM     21  O   UNL     1       4.436  -7.106  26.222  0.00  0.00    -0.251 OA
BRANCH  20  22
ATOM     22  O   UNL     1       5.262  -7.491  28.252  0.00  0.00    -0.480 OA
ATOM     23  H   UNL     1       6.128  -7.393  28.712  0.00  0.00    +0.295 HD
ENDBRANCH  20  22
ENDBRANCH  19  20
ENDBRANCH   6  19
TORSDOF 6
ENDMDL
MODEL 6
REMARK VINA RESULT:      -6.3      3.596      6.933
REMARK  Name = 
REMARK  6 active torsions:
REMARK  status: ('A' for Active; 'I' for Inactive)
REMARK    1  A    between atoms: N_1  and  C_2
REMARK    2  A    between atoms: C_3  and  C_4
REMARK    3  A    between atoms: C_4  and  C_5
REMARK    4  A    between atoms: C_5  and  O_6
REMARK    5  A    between atoms: C_11  and  C_12
REMARK    6  A    between atoms: C_12  and  C_14
REMARK                            x       y       z     vdW  Elec       q    Type
REMARK                         _______ _______ _______ _____ _____    ______ ____
ROOT
ATOM      1  C   UNL     1       7.789  -3.168  24.522  0.00  0.00    +0.039 A 
ATOM      2  C   UNL     1       8.209  -2.556  23.318  0.00  0.00    +0.043 A 
ATOM      3  C   UNL     1       7.382  -2.603  22.189  0.00  0.00    +0.013 A 
ATOM      4  C   UNL     1       6.235  -3.382  22.204  0.00  0.00    +0.001 A 
ATOM      5  C   UNL     1       5.979  -4.200  23.303  0.00  0.00    +0.006 A 
ATOM      6  C   UNL     1       6.795  -4.160  24.454  0.00  0.00    -0.015 A 
ENDROOT
BRANCH   1   7
ATOM      7  N   UNL     1       8.449  -2.949  25.757  0.00  0.00    -0.357 N 
ATOM      8  H   UNL     1       9.098  -3.711  25.981  0.00  0.00    +0.142 HD
ATOM      9  H   UNL     1       9.006  -2.087  25.727  0.00  0.00    +0.142 HD
ENDBRANCH   1   7
BRANCH   2  10
ATOM     10  C   UNL     1       9.511  -1.838  23.156  0.00  0.00    +0.195 C 
ATOM     11  O   UNL     1      10.534  -2.498  23.014  0.00  0.00    -0.287 OA
BRANCH  10  12
ATOM     12  C   UNL     1       9.596  -0.349  23.182  0.00  0.00    +0.022 A 
ATOM     13  C   UNL     1       9.864   0.418  22.045  0.00  0.00    +0.013 A 
ATOM     14  C   UNL     1      10.114   1.794  22.159  0.00  0.00    +0.016 A 
ATOM     15  C   UNL     1      10.017   2.409  23.404  0.00  0.00    +0.018 A 
ATOM     16 BR   UNL     1      10.411   4.250  23.576  0.00  0.00    -0.050 Br
ATOM     17  C   UNL     1       9.647   1.675  24.528  0.00  0.00    +0.016 A 
ATOM     18  C   UNL     1       9.437   0.296  24.417  0.00  0.00    +0.013 A 
ENDBRANCH  10  12
ENDBRANCH   2  10
BRANCH   6  19
ATOM     19  C   UNL     1       6.468  -5.146  25.568  0.00  0.00    +0.157 C 
BRANCH  19  20
ATOM     20  C   UNL     1       7.436  -5.429  26.704  0.00  0.00    +0.309 C 
ATOM     21  O   UNL     1       7.157  -5.120  27.860  0.00  0.00    -0.251 OA
BRANCH  20  22
ATOM     22  O   UNL     1       8.635  -5.967  26.427  0.00  0.00    -0.480 OA
ATOM     23  H   UNL     1       8.587  -6.842  25.977  0.00  0.00    +0.295 HD
ENDBRANCH  20  22
ENDBRANCH  19  20
ENDBRANCH   6  19
TORSDOF 6
ENDMDL
MODEL 7
REMARK VINA RESULT:      -6.2      3.602      6.655
REMARK  Name = 
REMARK  6 active torsions:
REMARK  status: ('A' for Active; 'I' for Inactive)
REMARK    1  A    between atoms: N_1  and  C_2
REMARK    2  A    between atoms: C_3  and  C_4
REMARK    3  A    between atoms: C_4  and  C_5
REMARK    4  A    between atoms: C_5  and  O_6
REMARK    5  A    between atoms: C_11  and  C_12
REMARK    6  A    between atoms: C_12  and  C_14
REMARK                            x       y       z     vdW  Elec       q    Type
REMARK                         _______ _______ _______ _____ _____    ______ ____
ROOT
ATOM      1  C   UNL     1       7.641  -3.669  23.337  0.00  0.00    +0.039 A 
ATOM      2  C   UNL     1       8.876  -3.074  23.686  0.00  0.00    +0.043 A 
ATOM      3  C   UNL     1       9.666  -3.651  24.688  0.00  0.00    +0.013 A 
ATOM      4  C   UNL     1       9.168  -4.702  25.443  0.00  0.00    +0.001 A 
ATOM      5  C   UNL     1       7.843  -5.097  25.273  0.00  0.00    +0.006 A 
ATOM      6  C   UNL     1       7.033  -4.535  24.263  0.00  0.00    -0.015 A 
ENDROOT
BRANCH   1   7
ATOM      7  N   UNL     1       6.916  -3.293  22.178  0.00  0.00    -0.357 N 
ATOM      8  H   UNL     1       6.219  -3.999  21.921  0.00  0.00    +0.142 HD
ATOM      9  H   UNL     1       6.403  -2.417  22.335  0.00  0.00    +0.142 HD
ENDBRANCH   1   7
BRANCH   2  10
ATOM     10  C   UNL     1       9.418  -1.837  23.044  0.00  0.00    +0.195 C 
ATOM     11  O   UNL     1      10.109  -1.950  22.038  0.00  0.00    -0.287 OA
BRANCH  10  12
ATOM     12  C   UNL     1       9.157  -0.480  23.606  0.00  0.00    +0.022 A 
ATOM     13  C   UNL     1       7.875   0.065  23.713  0.00  0.00    +0.013 A 
ATOM     14  C   UNL     1       7.703   1.410  24.076  0.00  0.00    +0.016 A 
ATOM     15  C   UNL     1       8.814   2.180  24.407  0.00  0.00    +0.018 A 
ATOM     16 BR   UNL     1       8.596   4.007  24.838  0.00  0.00    -0.050 Br
ATOM     17  C   UNL     1      10.089   1.618  24.406  0.00  0.00    +0.016 A 
ATOM     18  C   UNL     1      10.260   0.288  24.007  0.00  0.00    +0.013 A 
ENDBRANCH  10  12
ENDBRANCH   2  10
BRANCH   6  19
ATOM     19  C   UNL     1       5.579  -4.987  24.210  0.00  0.00    +0.157 C 
BRANCH  19  20
ATOM     20  C   UNL     1       5.096  -6.032  23.219  0.00  0.00    +0.309 C 
ATOM     21  O   UNL     1       4.953  -5.754  22.031  0.00  0.00    -0.251 OA
BRANCH  20  22
ATOM     22  O   UNL     1       4.763  -7.255  23.663  0.00  0.00    -0.480 OA
ATOM     23  H   UNL     1       3.847  -7.531  23.428  0.00  0.00    +0.295 HD
ENDBRANCH  20  22
ENDBRANCH  19  20
ENDBRANCH   6  19
TORSDOF 6
ENDMDL
MODEL 8
REMARK VINA RESULT:      -6.2      2.021      2.939
REMARK  Name = 
REMARK  6 active torsions:
REMARK  status: ('A' for Active; 'I' for Inactive)
REMARK    1  A    between atoms: N_1  and  C_2
REMARK    2  A    between atoms: C_3  and  C_4
REMARK    3  A    between atoms: C_4  and  C_5
REMARK    4  A    between atoms: C_5  and  O_6
REMARK    5  A    between atoms: C_11  and  C_12
REMARK    6  A    between atoms: C_12  and  C_14
REMARK                            x       y       z     vdW  Elec       q    Type
REMARK                         _______ _______ _______ _____ _____    ______ ____
ROOT
ATOM      1  C   UNL     1       9.801  -0.108  23.876  0.00  0.00    +0.039 A 
ATOM      2  C   UNL     1       9.419  -1.235  23.112  0.00  0.00    +0.043 A 
ATOM      3  C   UNL     1       9.291  -1.121  21.722  0.00  0.00    +0.013 A 
ATOM      4  C   UNL     1       9.380   0.124  21.119  0.00  0.00    +0.001 A 
ATOM      5  C   UNL     1       9.481   1.263  21.916  0.00  0.00    +0.006 A 
ATOM      6  C   UNL     1       9.620   1.169  23.317  0.00  0.00    -0.015 A 
ENDROOT
BRANCH   1   7
ATOM      7  N   UNL     1      10.189  -0.208  25.236  0.00  0.00    -0.357 N 
ATOM      8  H   UNL     1      10.034   0.671  25.740  0.00  0.00    +0.142 HD
ATOM      9  H   UNL     1       9.640  -0.926  25.723  0.00  0.00    +0.142 HD
ENDBRANCH   1   7
BRANCH   2  10
ATOM     10  C   UNL     1       9.133  -2.583  23.695  0.00  0.00    +0.195 C 
ATOM     11  O   UNL     1      10.068  -3.250  24.122  0.00  0.00    -0.287 OA
BRANCH  10  12
ATOM     12  C   UNL     1       7.749  -3.138  23.751  0.00  0.00    +0.022 A 
ATOM     13  C   UNL     1       6.610  -2.335  23.849  0.00  0.00    +0.013 A 
ATOM     14  C   UNL     1       5.353  -2.911  24.084  0.00  0.00    +0.016 A 
ATOM     15  C   UNL     1       5.232  -4.297  24.138  0.00  0.00    +0.018 A 
ATOM     16 BR   UNL     1       3.552  -5.079  24.512  0.00  0.00    -0.050 Br
ATOM     17  C   UNL     1       6.343  -5.112  23.936  0.00  0.00    +0.016 A 
ATOM     18  C   UNL     1       7.601  -4.533  23.742  0.00  0.00    +0.013 A 
ENDBRANCH  10  12
ENDBRANCH   2  10
BRANCH   6  19
ATOM     19  C   UNL     1       9.651   2.476  24.099  0.00  0.00    +0.157 C 
BRANCH  19  20
ATOM     20  C   UNL     1      10.341   3.719  23.563  0.00  0.00    +0.309 C 
ATOM     21  O   UNL     1      11.555   3.734  23.378  0.00  0.00    -0.251 OA
BRANCH  20  22
ATOM     22  O   UNL     1       9.619   4.831  23.350  0.00  0.00    -0.480 OA
ATOM     23  H   UNL     1       9.264   4.908  22.434  0.00  0.00    +0.295 HD
ENDBRANCH  20  22
ENDBRANCH  19  20
ENDBRANCH   6  19
TORSDOF 6
ENDMDL
MODEL 9
REMARK VINA RESULT:      -6.1      1.751      1.932
REMARK  Name = 
REMARK  6 active torsions:
REMARK  status: ('A' for Active; 'I' for Inactive)
REMARK    1  A    between atoms: N_1  and  C_2
REMARK    2  A    between atoms: C_3  and  C_4
REMARK    3  A    between atoms: C_4  and  C_5
REMARK    4  A    between atoms: C_5  and  O_6
REMARK    5  A    between atoms: C_11  and  C_12
REMARK    6  A    between atoms: C_12  and  C_14
REMARK                            x       y       z     vdW  Elec       q    Type
REMARK                         _______ _______ _______ _____ _____    ______ ____
ROOT
ATOM      1  C   UNL     1       9.025  -0.932  22.483  0.00  0.00    +0.039 A 
ATOM      2  C   UNL     1       8.183  -1.764  23.258  0.00  0.00    +0.043 A 
ATOM      3  C   UNL     1       6.917  -1.307  23.641  0.00  0.00    +0.013 A 
ATOM      4  C   UNL     1       6.555   0.010  23.401  0.00  0.00    +0.001 A 
ATOM      5  C   UNL     1       7.500   0.894  22.885  0.00  0.00    +0.006 A 
ATOM      6  C   UNL     1       8.778   0.452  22.484  0.00  0.00    -0.015 A 
ENDROOT
BRANCH   1   7
ATOM      7  N   UNL     1      10.201  -1.414  21.855  0.00  0.00    -0.357 N 
ATOM      8  H   UNL     1      10.527  -2.288  22.279  0.00  0.00    +0.142 HD
ATOM      9  H   UNL     1      10.031  -1.614  20.862  0.00  0.00    +0.142 HD
ENDBRANCH   1   7
BRANCH   2  10
ATOM     10  C   UNL     1       8.557  -3.139  23.712  0.00  0.00    +0.195 C 
ATOM     11  O   UNL     1       9.737  -3.389  23.928  0.00  0.00    -0.287 OA
BRANCH  10  12
ATOM     12  C   UNL     1       7.536  -4.213  23.888  0.00  0.00    +0.022 A 
ATOM     13  C   UNL     1       6.935  -4.876  22.815  0.00  0.00    +0.013 A 
ATOM     14  C   UNL     1       5.853  -5.742  23.031  0.00  0.00    +0.016 A 
ATOM     15  C   UNL     1       5.430  -6.003  24.332  0.00  0.00    +0.018 A 
ATOM     16 BR   UNL     1       3.937  -7.123  24.627  0.00  0.00    -0.050 Br
ATOM     17  C   UNL     1       6.090  -5.431  25.417  0.00  0.00    +0.016 A 
ATOM     18  C   UNL     1       7.143  -4.537  25.195  0.00  0.00    +0.013 A 
ENDBRANCH  10  12
ENDBRANCH   2  10
BRANCH   6  19
ATOM     19  C   UNL     1       9.757   1.513  22.000  0.00  0.00    +0.157 C 
BRANCH  19  20
ATOM     20  C   UNL     1      10.607   2.326  22.963  0.00  0.00    +0.309 C 
ATOM     21  O   UNL     1      10.915   1.875  24.063  0.00  0.00    -0.251 OA
BRANCH  20  22
ATOM     22  O   UNL     1      10.970   3.573  22.626  0.00  0.00    -0.480 OA
ATOM     23  H   UNL     1      10.592   4.272  23.210  0.00  0.00    +0.295 HD
ENDBRANCH  20  22
ENDBRANCH  19  20
ENDBRANCH   6  19
TORSDOF 6
ENDMDL
