MODEL 1
REMARK VINA RESULT:      -7.6      0.000      0.000
REMARK  Name = 
REMARK  7 active torsions:
REMARK  status: ('A' for Active; 'I' for Inactive)
REMARK    1  A    between atoms: C_2  and  C_3
REMARK    2  A    between atoms: C_2  and  N_4
REMARK    3  A    between atoms: C_2  and  C_26
REMARK    4  A    between atoms: C_7  and  N_9
REMARK    5  A    between atoms: N_9  and  S_10
REMARK    6  A    between atoms: S_10  and  C_13
REMARK    7  A    between atoms: C_16  and  C_18
REMARK                            x       y       z     vdW  Elec       q    Type
REMARK                         _______ _______ _______ _____ _____    ______ ____
ROOT
ATOM      1  N   UNL     1       8.335  -3.086  24.795  0.00  0.00    -0.175 NA
ATOM      2  H   UNL     1       7.413  -3.090  24.366  0.00  0.00    +0.149 HD
ENDROOT
BRANCH   1   6
ATOM      3  N   UNL     1       9.675  -0.215  23.237  0.00  0.00    -0.289 N 
ATOM      4  C   UNL     1       9.538  -0.983  24.392  0.00  0.00    +0.235 C 
ATOM      5  O   UNL     1       9.505  -0.559  25.536  0.00  0.00    -0.274 OA
ATOM      6  C   UNL     1       9.394  -2.452  23.984  0.00  0.00    +0.164 C 
ATOM      7  C   UNL     1       9.028  -2.337  22.510  0.00  0.00    +0.049 C 
ATOM      8  C   UNL     1       9.654  -1.036  22.056  0.00  0.00    +0.110 C 
BRANCH   3   9
ATOM      9  C   UNL     1       9.372   1.224  23.182  0.00  0.00    +0.159 C 
ATOM     10  C   UNL     1      10.077   1.917  22.015  0.00  0.00    +0.038 C 
BRANCH   9  11
ATOM     11  C   UNL     1       7.856   1.546  23.189  0.00  0.00    +0.236 C 
ATOM     12  N   UNL     1       7.332   2.207  24.293  0.00  0.00    -0.296 N 
ATOM     13  C   UNL     1       5.926   2.622  24.271  0.00  0.00    +0.136 C 
ATOM     14  C   UNL     1       5.829   4.154  24.266  0.00  0.00    +0.179 C 
ATOM     15  O   UNL     1       6.557   4.727  25.368  0.00  0.00    -0.377 OA
ATOM     16  C   UNL     1       7.943   4.346  25.321  0.00  0.00    +0.179 C 
ATOM     17  C   UNL     1       8.093   2.821  25.381  0.00  0.00    +0.136 C 
ATOM     18  O   UNL     1       7.151   1.279  22.213  0.00  0.00    -0.274 OA
ENDBRANCH   9  11
ENDBRANCH   3   9
ENDBRANCH   1   6
BRANCH   1  19
ATOM     19  S   UNL     1       8.646  -4.540  25.588  0.00  0.00    +0.096 S 
ATOM     20  O   UNL     1       9.090  -4.226  26.933  0.00  0.00    -0.150 OA
ATOM     21  O   UNL     1       9.473  -5.327  24.697  0.00  0.00    -0.150 OA
BRANCH  19  22
ATOM     22  C   UNL     1       7.136  -5.436  25.813  0.00  0.00    +0.307 A 
ATOM     23  N   UNL     1       6.188  -5.526  24.792  0.00  0.00    -0.189 NA
ATOM     24  C   UNL     1       5.210  -6.208  25.353  0.00  0.00    +0.165 A 
ATOM     25  N   UNL     1       5.578  -6.551  26.624  0.00  0.00    -0.256 N 
ATOM     26  H   UNL     1       5.052  -7.084  27.306  0.00  0.00    +0.191 HD
ATOM     27  N   UNL     1       6.787  -6.081  26.940  0.00  0.00    -0.131 NA
BRANCH  24  28
ATOM     28  C   UNL     1       3.950  -6.516  24.748  0.00  0.00    +0.057 A 
ATOM     29  S   UNL     1       3.261  -5.524  23.526  0.00  0.00    -0.074 S 
ATOM     30  C   UNL     1       1.933  -6.556  23.360  0.00  0.00    +0.079 A 
ATOM     31 CL   UNL     1       0.716  -6.196  22.205  0.00  0.00    -0.076 Cl
ATOM     32  C   UNL     1       1.968  -7.632  24.207  0.00  0.00    +0.028 A 
ATOM     33  C   UNL     1       3.144  -7.608  25.017  0.00  0.00    +0.021 A 
ENDBRANCH  24  28
ENDBRANCH  19  22
ENDBRANCH   1  19
TORSDOF 6
ENDMDL
MODEL 2
REMARK VINA RESULT:      -7.4      4.273      9.097
REMARK  Name = 
REMARK  7 active torsions:
REMARK  status: ('A' for Active; 'I' for Inactive)
REMARK    1  A    between atoms: C_2  and  C_3
REMARK    2  A    between atoms: C_2  and  N_4
REMARK    3  A    between atoms: C_2  and  C_26
REMARK    4  A    between atoms: C_7  and  N_9
REMARK    5  A    between atoms: N_9  and  S_10
REMARK    6  A    between atoms: S_10  and  C_13
REMARK    7  A    between atoms: C_16  and  C_18
REMARK                            x       y       z     vdW  Elec       q    Type
REMARK                         _______ _______ _______ _____ _____    ______ ____
ROOT
ATOM      1  N   UNL     1       8.046  -3.024  23.658  0.00  0.00    -0.175 NA
ATOM      2  H   UNL     1       8.336  -3.628  24.424  0.00  0.00    +0.149 HD
ENDROOT
BRANCH   1   6
ATOM      3  N   UNL     1       5.033  -4.787  23.125  0.00  0.00    -0.289 N 
ATOM      4  C   UNL     1       5.670  -3.569  23.353  0.00  0.00    +0.235 C 
ATOM      5  O   UNL     1       5.210  -2.624  23.971  0.00  0.00    -0.274 OA
ATOM      6  C   UNL     1       7.069  -3.627  22.730  0.00  0.00    +0.164 C 
ATOM      7  C   UNL     1       7.269  -5.125  22.542  0.00  0.00    +0.049 C 
ATOM      8  C   UNL     1       5.873  -5.686  22.377  0.00  0.00    +0.110 C 
BRANCH   3   9
ATOM      9  C   UNL     1       3.912  -5.278  23.940  0.00  0.00    +0.159 C 
ATOM     10  C   UNL     1       2.770  -5.825  23.081  0.00  0.00    +0.038 C 
BRANCH   9  11
ATOM     11  C   UNL     1       4.328  -6.299  25.029  0.00  0.00    +0.236 C 
ATOM     12  N   UNL     1       4.674  -5.815  26.284  0.00  0.00    -0.296 N 
ATOM     13  C   UNL     1       4.961  -6.768  27.361  0.00  0.00    +0.136 C 
ATOM     14  C   UNL     1       3.892  -6.661  28.457  0.00  0.00    +0.179 C 
ATOM     15  O   UNL     1       3.768  -5.309  28.935  0.00  0.00    -0.377 OA
ATOM     16  C   UNL     1       3.428  -4.414  27.862  0.00  0.00    +0.179 C 
ATOM     17  C   UNL     1       4.498  -4.444  26.765  0.00  0.00    +0.136 C 
ATOM     18  O   UNL     1       4.290  -7.512  24.804  0.00  0.00    -0.274 OA
ENDBRANCH   9  11
ENDBRANCH   3   9
ENDBRANCH   1   6
BRANCH   1  19
ATOM     19  S   UNL     1       9.347  -2.145  23.048  0.00  0.00    +0.096 S 
ATOM     20  O   UNL     1       9.034  -1.781  21.679  0.00  0.00    -0.150 OA
ATOM     21  O   UNL     1      10.540  -2.904  23.361  0.00  0.00    -0.150 OA
BRANCH  19  22
ATOM     22  C   UNL     1       9.482  -0.601  23.902  0.00  0.00    +0.307 A 
ATOM     23  N   UNL     1       9.557   0.608  23.207  0.00  0.00    -0.189 NA
ATOM     24  C   UNL     1       9.700   1.497  24.169  0.00  0.00    +0.165 A 
ATOM     25  N   UNL     1       9.661   0.857  25.376  0.00  0.00    -0.256 N 
ATOM     26  H   UNL     1       9.731   1.262  26.302  0.00  0.00    +0.191 HD
ATOM     27  N   UNL     1       9.521  -0.464  25.240  0.00  0.00    -0.131 NA
BRANCH  24  28
ATOM     28  C   UNL     1       9.899   2.903  23.987  0.00  0.00    +0.057 A 
ATOM     29  S   UNL     1       8.667   4.048  24.335  0.00  0.00    -0.074 S 
ATOM     30  C   UNL     1       9.675   5.341  23.925  0.00  0.00    +0.079 A 
ATOM     31 CL   UNL     1       9.092   6.949  24.055  0.00  0.00    -0.076 Cl
ATOM     32  C   UNL     1      10.922   4.950  23.513  0.00  0.00    +0.028 A 
ATOM     33  C   UNL     1      11.052   3.528  23.548  0.00  0.00    +0.021 A 
ENDBRANCH  24  28
ENDBRANCH  19  22
ENDBRANCH   1  19
TORSDOF 6
ENDMDL
MODEL 3
REMARK VINA RESULT:      -7.2      1.947      2.162
REMARK  Name = 
REMARK  7 active torsions:
REMARK  status: ('A' for Active; 'I' for Inactive)
REMARK    1  A    between atoms: C_2  and  C_3
REMARK    2  A    between atoms: C_2  and  N_4
REMARK    3  A    between atoms: C_2  and  C_26
REMARK    4  A    between atoms: C_7  and  N_9
REMARK    5  A    between atoms: N_9  and  S_10
REMARK    6  A    between atoms: S_10  and  C_13
REMARK    7  A    between atoms: C_16  and  C_18
REMARK                            x       y       z     vdW  Elec       q    Type
REMARK                         _______ _______ _______ _____ _____    ______ ____
ROOT
ATOM      1  N   UNL     1       8.427  -3.033  24.363  0.00  0.00    -0.175 NA
ATOM      2  H   UNL     1       7.487  -2.831  24.029  0.00  0.00    +0.149 HD
ENDROOT
BRANCH   1   6
ATOM      3  N   UNL     1       9.731   0.152  23.572  0.00  0.00    -0.289 N 
ATOM      4  C   UNL     1       9.582  -0.870  24.507  0.00  0.00    +0.235 C 
ATOM      5  O   UNL     1       9.506  -0.730  25.717  0.00  0.00    -0.274 OA
ATOM      6  C   UNL     1       9.490  -2.204  23.760  0.00  0.00    +0.164 C 
ATOM      7  C   UNL     1       9.162  -1.751  22.343  0.00  0.00    +0.049 C 
ATOM      8  C   UNL     1       9.765  -0.368  22.229  0.00  0.00    +0.110 C 
BRANCH   3   9
ATOM      9  C   UNL     1       9.391   1.556  23.847  0.00  0.00    +0.159 C 
ATOM     10  C   UNL     1      10.610   2.475  23.750  0.00  0.00    +0.038 C 
BRANCH   9  11
ATOM     11  C   UNL     1       8.216   2.096  22.992  0.00  0.00    +0.236 C 
ATOM     12  N   UNL     1       6.940   1.613  23.251  0.00  0.00    -0.296 N 
ATOM     13  C   UNL     1       5.801   2.192  22.534  0.00  0.00    +0.136 C 
ATOM     14  C   UNL     1       4.887   2.942  23.513  0.00  0.00    +0.179 C 
ATOM     15  O   UNL     1       4.480   2.092  24.602  0.00  0.00    -0.377 OA
ATOM     16  C   UNL     1       5.623   1.592  25.319  0.00  0.00    +0.179 C 
ATOM     17  C   UNL     1       6.539   0.785  24.390  0.00  0.00    +0.136 C 
ATOM     18  O   UNL     1       8.403   2.977  22.149  0.00  0.00    -0.274 OA
ENDBRANCH   9  11
ENDBRANCH   3   9
ENDBRANCH   1   6
BRANCH   1  19
ATOM     19  S   UNL     1       8.663  -4.690  24.552  0.00  0.00    +0.096 S 
ATOM     20  O   UNL     1      10.004  -4.891  25.068  0.00  0.00    -0.150 OA
ATOM     21  O   UNL     1       8.244  -5.311  23.313  0.00  0.00    -0.150 OA
BRANCH  19  22
ATOM     22  C   UNL     1       7.598  -5.308  25.823  0.00  0.00    +0.307 A 
ATOM     23  N   UNL     1       6.265  -5.627  25.559  0.00  0.00    -0.189 NA
ATOM     24  C   UNL     1       5.805  -5.989  26.740  0.00  0.00    +0.165 A 
ATOM     25  N   UNL     1       6.824  -5.937  27.649  0.00  0.00    -0.256 N 
ATOM     26  H   UNL     1       6.795  -6.165  28.636  0.00  0.00    +0.191 HD
ATOM     27  N   UNL     1       7.966  -5.515  27.100  0.00  0.00    -0.131 NA
BRANCH  24  28
ATOM     28  C   UNL     1       4.452  -6.348  27.038  0.00  0.00    +0.057 A 
ATOM     29  S   UNL     1       3.393  -6.978  25.840  0.00  0.00    -0.074 S 
ATOM     30  C   UNL     1       2.142  -7.156  26.961  0.00  0.00    +0.079 A 
ATOM     31 CL   UNL     1       0.637  -7.809  26.458  0.00  0.00    -0.076 Cl
ATOM     32  C   UNL     1       2.476  -6.742  28.223  0.00  0.00    +0.028 A 
ATOM     33  C   UNL     1       3.823  -6.269  28.267  0.00  0.00    +0.021 A 
ENDBRANCH  24  28
ENDBRANCH  19  22
ENDBRANCH   1  19
TORSDOF 6
ENDMDL
MODEL 4
REMARK VINA RESULT:      -7.0      4.069      8.950
REMARK  Name = 
REMARK  7 active torsions:
REMARK  status: ('A' for Active; 'I' for Inactive)
REMARK    1  A    between atoms: C_2  and  C_3
REMARK    2  A    between atoms: C_2  and  N_4
REMARK    3  A    between atoms: C_2  and  C_26
REMARK    4  A    between atoms: C_7  and  N_9
REMARK    5  A    between atoms: N_9  and  S_10
REMARK    6  A    between atoms: S_10  and  C_13
REMARK    7  A    between atoms: C_16  and  C_18
REMARK                            x       y       z     vdW  Elec       q    Type
REMARK                         _______ _______ _______ _____ _____    ______ ____
ROOT
ATOM      1  N   UNL     1       9.003   0.129  23.191  0.00  0.00    -0.175 NA
ATOM      2  H   UNL     1       8.028  -0.006  22.937  0.00  0.00    +0.149 HD
ENDROOT
BRANCH   1   6
ATOM      3  N   UNL     1       9.234  -2.916  24.964  0.00  0.00    -0.289 N 
ATOM      4  C   UNL     1       9.758  -2.067  23.991  0.00  0.00    +0.235 C 
ATOM      5  O   UNL     1      10.343  -2.413  22.978  0.00  0.00    -0.274 OA
ATOM      6  C   UNL     1       9.442  -0.621  24.385  0.00  0.00    +0.164 C 
ATOM      7  C   UNL     1       8.334  -0.808  25.413  0.00  0.00    +0.049 C 
ATOM      8  C   UNL     1       8.590  -2.172  26.016  0.00  0.00    +0.110 C 
BRANCH   3   9
ATOM      9  C   UNL     1       8.925  -4.333  24.720  0.00  0.00    +0.159 C 
ATOM     10  C   UNL     1       9.841  -5.268  25.511  0.00  0.00    +0.038 C 
BRANCH   9  11
ATOM     11  C   UNL     1       7.434  -4.696  24.940  0.00  0.00    +0.236 C 
ATOM     12  N   UNL     1       6.537  -4.436  23.912  0.00  0.00    -0.296 N 
ATOM     13  C   UNL     1       5.145  -4.874  24.054  0.00  0.00    +0.136 C 
ATOM     14  C   UNL     1       4.830  -5.968  23.024  0.00  0.00    +0.179 C 
ATOM     15  O   UNL     1       5.137  -5.530  21.687  0.00  0.00    -0.377 OA
ATOM     16  C   UNL     1       6.524  -5.166  21.572  0.00  0.00    +0.179 C 
ATOM     17  C   UNL     1       6.874  -4.034  22.546  0.00  0.00    +0.136 C 
ATOM     18  O   UNL     1       7.068  -5.258  25.976  0.00  0.00    -0.274 OA
ENDBRANCH   9  11
ENDBRANCH   3   9
ENDBRANCH   1   6
BRANCH   1  19
ATOM     19  S   UNL     1       9.468   1.737  22.996  0.00  0.00    +0.096 S 
ATOM     20  O   UNL     1      10.248   1.828  21.776  0.00  0.00    -0.150 OA
ATOM     21  O   UNL     1      10.020   2.164  24.265  0.00  0.00    -0.150 OA
BRANCH  19  22
ATOM     22  C   UNL     1       8.043   2.741  22.691  0.00  0.00    +0.307 A 
ATOM     23  N   UNL     1       7.649   3.733  23.592  0.00  0.00    -0.189 NA
ATOM     24  C   UNL     1       6.545   4.206  23.051  0.00  0.00    +0.165 A 
ATOM     25  N   UNL     1       6.321   3.565  21.864  0.00  0.00    -0.256 N 
ATOM     26  H   UNL     1       5.563   3.711  21.207  0.00  0.00    +0.191 HD
ATOM     27  N   UNL     1       7.249   2.640  21.610  0.00  0.00    -0.131 NA
BRANCH  24  28
ATOM     28  C   UNL     1       5.694   5.205  23.622  0.00  0.00    +0.057 A 
ATOM     29  S   UNL     1       3.981   5.107  23.522  0.00  0.00    -0.074 S 
ATOM     30  C   UNL     1       3.793   6.528  24.417  0.00  0.00    +0.079 A 
ATOM     31 CL   UNL     1       2.217   7.105  24.774  0.00  0.00    -0.076 Cl
ATOM     32  C   UNL     1       4.981   7.102  24.788  0.00  0.00    +0.028 A 
ATOM     33  C   UNL     1       6.089   6.330  24.323  0.00  0.00    +0.021 A 
ENDBRANCH  24  28
ENDBRANCH  19  22
ENDBRANCH   1  19
TORSDOF 6
ENDMDL
MODEL 5
REMARK VINA RESULT:      -7.0      4.629      9.648
REMARK  Name = 
REMARK  7 active torsions:
REMARK  status: ('A' for Active; 'I' for Inactive)
REMARK    1  A    between atoms: C_2  and  C_3
REMARK    2  A    between atoms: C_2  and  N_4
REMARK    3  A    between atoms: C_2  and  C_26
REMARK    4  A    between atoms: C_7  and  N_9
REMARK    5  A    between atoms: N_9  and  S_10
REMARK    6  A    between atoms: S_10  and  C_13
REMARK    7  A    between atoms: C_16  and  C_18
REMARK                            x       y       z     vdW  Elec       q    Type
REMARK                         _______ _______ _______ _____ _____    ______ ____
ROOT
ATOM      1  N   UNL     1       5.246   1.338  24.096  0.00  0.00    -0.175 NA
ATOM      2  H   UNL     1       4.406   0.905  24.474  0.00  0.00    +0.149 HD
ENDROOT
BRANCH   1   6
ATOM      3  N   UNL     1       8.042  -0.816  24.028  0.00  0.00    -0.289 N 
ATOM      4  C   UNL     1       7.445   0.367  23.596  0.00  0.00    +0.235 C 
ATOM      5  O   UNL     1       7.611   0.899  22.510  0.00  0.00    -0.274 OA
ATOM      6  C   UNL     1       6.510   0.871  24.699  0.00  0.00    +0.164 C 
ATOM      7  C   UNL     1       6.336  -0.374  25.560  0.00  0.00    +0.049 C 
ATOM      8  C   UNL     1       7.608  -1.168  25.355  0.00  0.00    +0.110 C 
BRANCH   3   9
ATOM      9  C   UNL     1       8.612  -1.816  23.112  0.00  0.00    +0.159 C 
ATOM     10  C   UNL     1      10.102  -1.583  22.859  0.00  0.00    +0.038 C 
BRANCH   9  11
ATOM     11  C   UNL     1       8.341  -3.282  23.537  0.00  0.00    +0.236 C 
ATOM     12  N   UNL     1       7.106  -3.837  23.227  0.00  0.00    -0.296 N 
ATOM     13  C   UNL     1       6.870  -5.254  23.517  0.00  0.00    +0.136 C 
ATOM     14  C   UNL     1       6.695  -6.038  22.209  0.00  0.00    +0.179 C 
ATOM     15  O   UNL     1       5.660  -5.462  21.390  0.00  0.00    -0.377 OA
ATOM     16  C   UNL     1       5.957  -4.091  21.076  0.00  0.00    +0.179 C 
ATOM     17  C   UNL     1       6.086  -3.253  22.355  0.00  0.00    +0.136 C 
ATOM     18  O   UNL     1       9.222  -3.954  24.079  0.00  0.00    -0.274 OA
ENDBRANCH   9  11
ENDBRANCH   3   9
ENDBRANCH   1   6
BRANCH   1  19
ATOM     19  S   UNL     1       5.009   2.984  23.819  0.00  0.00    +0.096 S 
ATOM     20  O   UNL     1       3.846   3.399  24.580  0.00  0.00    -0.150 OA
ATOM     21  O   UNL     1       5.064   3.171  22.383  0.00  0.00    -0.150 OA
BRANCH  19  22
ATOM     22  C   UNL     1       6.350   3.908  24.510  0.00  0.00    +0.307 A 
ATOM     23  N   UNL     1       7.530   4.120  23.793  0.00  0.00    -0.189 NA
ATOM     24  C   UNL     1       8.283   4.784  24.647  0.00  0.00    +0.165 A 
ATOM     25  N   UNL     1       7.570   5.003  25.793  0.00  0.00    -0.256 N 
ATOM     26  H   UNL     1       7.863   5.493  26.629  0.00  0.00    +0.191 HD
ATOM     27  N   UNL     1       6.349   4.465  25.734  0.00  0.00    -0.131 NA
BRANCH  24  28
ATOM     28  C   UNL     1       9.639   5.187  24.430  0.00  0.00    +0.057 A 
ATOM     29  S   UNL     1      10.729   4.246  23.493  0.00  0.00    -0.074 S 
ATOM     30  C   UNL     1      11.967   5.378  23.695  0.00  0.00    +0.079 A 
ATOM     31 CL   UNL     1      13.493   5.109  22.959  0.00  0.00    -0.076 Cl
ATOM     32  C   UNL     1      11.604   6.453  24.464  0.00  0.00    +0.028 A 
ATOM     33  C   UNL     1      10.246   6.340  24.893  0.00  0.00    +0.021 A 
ENDBRANCH  24  28
ENDBRANCH  19  22
ENDBRANCH   1  19
TORSDOF 6
ENDMDL
MODEL 6
REMARK VINA RESULT:      -6.9      4.205      8.714
REMARK  Name = 
REMARK  7 active torsions:
REMARK  status: ('A' for Active; 'I' for Inactive)
REMARK    1  A    between atoms: C_2  and  C_3
REMARK    2  A    between atoms: C_2  and  N_4
REMARK    3  A    between atoms: C_2  and  C_26
REMARK    4  A    between atoms: C_7  and  N_9
REMARK    5  A    between atoms: N_9  and  S_10
REMARK    6  A    between atoms: S_10  and  C_13
REMARK    7  A    between atoms: C_16  and  C_18
REMARK                            x       y       z     vdW  Elec       q    Type
REMARK                         _______ _______ _______ _____ _____    ______ ____
ROOT
ATOM      1  N   UNL     1       8.758  -2.752  22.845  0.00  0.00    -0.175 NA
ATOM      2  H   UNL     1       9.086  -3.433  22.164  0.00  0.00    +0.149 HD
ENDROOT
BRANCH   1   6
ATOM      3  N   UNL     1       5.412  -3.104  23.916  0.00  0.00    -0.289 N 
ATOM      4  C   UNL     1       6.654  -2.496  24.086  0.00  0.00    +0.235 C 
ATOM      5  O   UNL     1       7.138  -2.139  25.147  0.00  0.00    -0.274 OA
ATOM      6  C   UNL     1       7.333  -2.386  22.717  0.00  0.00    +0.164 C 
ATOM      7  C   UNL     1       6.533  -3.380  21.887  0.00  0.00    +0.049 C 
ATOM      8  C   UNL     1       5.165  -3.413  22.532  0.00  0.00    +0.110 C 
BRANCH   3   9
ATOM      9  C   UNL     1       4.693  -3.791  25.000  0.00  0.00    +0.159 C 
ATOM     10  C   UNL     1       3.365  -4.384  24.526  0.00  0.00    +0.038 C 
BRANCH   9  11
ATOM     11  C   UNL     1       5.543  -4.852  25.743  0.00  0.00    +0.236 C 
ATOM     12  N   UNL     1       5.876  -4.614  27.071  0.00  0.00    -0.296 N 
ATOM     13  C   UNL     1       6.581  -5.654  27.826  0.00  0.00    +0.136 C 
ATOM     14  C   UNL     1       5.681  -6.195  28.945  0.00  0.00    +0.179 C 
ATOM     15  O   UNL     1       5.200  -5.132  29.788  0.00  0.00    -0.377 OA
ATOM     16  C   UNL     1       4.462  -4.163  29.022  0.00  0.00    +0.179 C 
ATOM     17  C   UNL     1       5.340  -3.552  27.923  0.00  0.00    +0.136 C 
ATOM     18  O   UNL     1       5.861  -5.907  25.189  0.00  0.00    -0.274 OA
ENDBRANCH   9  11
ENDBRANCH   3   9
ENDBRANCH   1   6
BRANCH   1  19
ATOM     19  S   UNL     1       9.910  -1.551  23.110  0.00  0.00    +0.096 S 
ATOM     20  O   UNL     1      11.096  -1.899  22.350  0.00  0.00    -0.150 OA
ATOM     21  O   UNL     1       9.978  -1.354  24.543  0.00  0.00    -0.150 OA
BRANCH  19  22
ATOM     22  C   UNL     1       9.359  -0.024  22.405  0.00  0.00    +0.307 A 
ATOM     23  N   UNL     1       9.171   1.112  23.195  0.00  0.00    -0.189 NA
ATOM     24  C   UNL     1       8.715   2.001  22.335  0.00  0.00    +0.165 A 
ATOM     25  N   UNL     1       8.684   1.439  21.089  0.00  0.00    -0.256 N 
ATOM     26  H   UNL     1       8.396   1.866  20.217  0.00  0.00    +0.191 HD
ATOM     27  N   UNL     1       9.087   0.166  21.102  0.00  0.00    -0.131 NA
BRANCH  24  28
ATOM     28  C   UNL     1       8.290   3.330  22.651  0.00  0.00    +0.057 A 
ATOM     29  S   UNL     1       9.177   4.339  23.723  0.00  0.00    -0.074 S 
ATOM     30  C   UNL     1       8.096   5.618  23.502  0.00  0.00    +0.079 A 
ATOM     31 CL   UNL     1       8.366   7.108  24.309  0.00  0.00    -0.076 Cl
ATOM     32  C   UNL     1       7.063   5.320  22.653  0.00  0.00    +0.028 A 
ATOM     33  C   UNL     1       7.175   3.984  22.159  0.00  0.00    +0.021 A 
ENDBRANCH  24  28
ENDBRANCH  19  22
ENDBRANCH   1  19
TORSDOF 6
ENDMDL
MODEL 7
REMARK VINA RESULT:      -6.8      2.806      3.232
REMARK  Name = 
REMARK  7 active torsions:
REMARK  status: ('A' for Active; 'I' for Inactive)
REMARK    1  A    between atoms: C_2  and  C_3
REMARK    2  A    between atoms: C_2  and  N_4
REMARK    3  A    between atoms: C_2  and  C_26
REMARK    4  A    between atoms: C_7  and  N_9
REMARK    5  A    between atoms: N_9  and  S_10
REMARK    6  A    between atoms: S_10  and  C_13
REMARK    7  A    between atoms: C_16  and  C_18
REMARK                            x       y       z     vdW  Elec       q    Type
REMARK                         _______ _______ _______ _____ _____    ______ ____
ROOT
ATOM      1  N   UNL     1       8.419  -1.387  24.339  0.00  0.00    -0.175 NA
ATOM      2  H   UNL     1       7.595  -1.046  23.849  0.00  0.00    +0.149 HD
ENDROOT
BRANCH   1   6
ATOM      3  N   UNL     1       9.364   2.012  24.483  0.00  0.00    -0.289 N 
ATOM      4  C   UNL     1       8.748   0.925  25.100  0.00  0.00    +0.235 C 
ATOM      5  O   UNL     1       7.798   0.978  25.863  0.00  0.00    -0.274 OA
ATOM      6  C   UNL     1       9.439  -0.358  24.627  0.00  0.00    +0.164 C 
ATOM      7  C   UNL     1      10.174   0.119  23.382  0.00  0.00    +0.049 C 
ATOM      8  C   UNL     1      10.442   1.588  23.628  0.00  0.00    +0.110 C 
BRANCH   3   9
ATOM      9  C   UNL     1       8.715   3.321  24.313  0.00  0.00    +0.159 C 
ATOM     10  C   UNL     1       9.719   4.424  23.976  0.00  0.00    +0.038 C 
BRANCH   9  11
ATOM     11  C   UNL     1       7.538   3.311  23.305  0.00  0.00    +0.236 C 
ATOM     12  N   UNL     1       6.259   3.559  23.786  0.00  0.00    -0.296 N 
ATOM     13  C   UNL     1       5.149   3.667  22.834  0.00  0.00    +0.136 C 
ATOM     14  C   UNL     1       4.598   5.100  22.828  0.00  0.00    +0.179 C 
ATOM     15  O   UNL     1       4.232   5.524  24.154  0.00  0.00    -0.377 OA
ATOM     16  C   UNL     1       5.360   5.462  25.043  0.00  0.00    +0.179 C 
ATOM     17  C   UNL     1       5.912   4.033  25.126  0.00  0.00    +0.136 C 
ATOM     18  O   UNL     1       7.743   3.150  22.099  0.00  0.00    -0.274 OA
ENDBRANCH   9  11
ENDBRANCH   3   9
ENDBRANCH   1   6
BRANCH   1  19
ATOM     19  S   UNL     1       8.894  -2.895  23.756  0.00  0.00    +0.096 S 
ATOM     20  O   UNL     1      10.345  -2.934  23.757  0.00  0.00    -0.150 OA
ATOM     21  O   UNL     1       8.146  -3.120  22.536  0.00  0.00    -0.150 OA
BRANCH  19  22
ATOM     22  C   UNL     1       8.411  -4.159  24.896  0.00  0.00    +0.307 A 
ATOM     23  N   UNL     1       7.068  -4.378  25.208  0.00  0.00    -0.189 NA
ATOM     24  C   UNL     1       7.124  -5.338  26.110  0.00  0.00    +0.165 A 
ATOM     25  N   UNL     1       8.428  -5.707  26.287  0.00  0.00    -0.256 N 
ATOM     26  H   UNL     1       8.799  -6.423  26.900  0.00  0.00    +0.191 HD
ATOM     27  N   UNL     1       9.261  -4.984  25.533  0.00  0.00    -0.131 NA
BRANCH  24  28
ATOM     28  C   UNL     1       6.008  -5.888  26.818  0.00  0.00    +0.057 A 
ATOM     29  S   UNL     1       5.958  -5.944  28.534  0.00  0.00    -0.074 S 
ATOM     30  C   UNL     1       4.414  -6.632  28.521  0.00  0.00    +0.079 A 
ATOM     31 CL   UNL     1       3.629  -6.986  30.005  0.00  0.00    -0.076 Cl
ATOM     32  C   UNL     1       3.921  -6.843  27.261  0.00  0.00    +0.028 A 
ATOM     33  C   UNL     1       4.852  -6.411  26.267  0.00  0.00    +0.021 A 
ENDBRANCH  24  28
ENDBRANCH  19  22
ENDBRANCH   1  19
TORSDOF 6
ENDMDL
MODEL 8
REMARK VINA RESULT:      -6.7      1.753      2.094
REMARK  Name = 
REMARK  7 active torsions:
REMARK  status: ('A' for Active; 'I' for Inactive)
REMARK    1  A    between atoms: C_2  and  C_3
REMARK    2  A    between atoms: C_2  and  N_4
REMARK    3  A    between atoms: C_2  and  C_26
REMARK    4  A    between atoms: C_7  and  N_9
REMARK    5  A    between atoms: N_9  and  S_10
REMARK    6  A    between atoms: S_10  and  C_13
REMARK    7  A    between atoms: C_16  and  C_18
REMARK                            x       y       z     vdW  Elec       q    Type
REMARK                         _______ _______ _______ _____ _____    ______ ____
ROOT
ATOM      1  N   UNL     1       8.353  -1.447  24.355  0.00  0.00    -0.175 NA
ATOM      2  H   UNL     1       7.513  -1.056  23.937  0.00  0.00    +0.149 HD
ENDROOT
BRANCH   1   6
ATOM      3  N   UNL     1       9.524   1.883  24.370  0.00  0.00    -0.289 N 
ATOM      4  C   UNL     1       8.886   0.847  25.049  0.00  0.00    +0.235 C 
ATOM      5  O   UNL     1       8.000   0.972  25.879  0.00  0.00    -0.274 OA
ATOM      6  C   UNL     1       9.455  -0.485  24.550  0.00  0.00    +0.164 C 
ATOM      7  C   UNL     1      10.126  -0.073  23.247  0.00  0.00    +0.049 C 
ATOM      8  C   UNL     1      10.507   1.378  23.447  0.00  0.00    +0.110 C 
BRANCH   3   9
ATOM      9  C   UNL     1       8.950   3.230  24.225  0.00  0.00    +0.159 C 
ATOM     10  C   UNL     1       9.999   4.262  23.809  0.00  0.00    +0.038 C 
BRANCH   9  11
ATOM     11  C   UNL     1       7.712   3.286  23.294  0.00  0.00    +0.236 C 
ATOM     12  N   UNL     1       6.502   3.699  23.836  0.00  0.00    -0.296 N 
ATOM     13  C   UNL     1       5.347   3.869  22.950  0.00  0.00    +0.136 C 
ATOM     14  C   UNL     1       4.948   5.350  22.883  0.00  0.00    +0.179 C 
ATOM     15  O   UNL     1       4.719   5.889  24.198  0.00  0.00    -0.377 OA
ATOM     16  C   UNL     1       5.894   5.759  25.018  0.00  0.00    +0.179 C 
ATOM     17  C   UNL     1       6.299   4.287  25.161  0.00  0.00    +0.136 C 
ATOM     18  O   UNL     1       7.816   3.033  22.091  0.00  0.00    -0.274 OA
ENDBRANCH   9  11
ENDBRANCH   3   9
ENDBRANCH   1   6
BRANCH   1  19
ATOM     19  S   UNL     1       8.681  -2.982  23.741  0.00  0.00    +0.096 S 
ATOM     20  O   UNL     1      10.019  -3.352  24.164  0.00  0.00    -0.150 OA
ATOM     21  O   UNL     1       8.329  -2.948  22.337  0.00  0.00    -0.150 OA
BRANCH  19  22
ATOM     22  C   UNL     1       7.623  -4.175  24.508  0.00  0.00    +0.307 A 
ATOM     23  N   UNL     1       6.491  -4.666  23.854  0.00  0.00    -0.189 NA
ATOM     24  C   UNL     1       5.953  -5.468  24.751  0.00  0.00    +0.165 A 
ATOM     25  N   UNL     1       6.750  -5.493  25.862  0.00  0.00    -0.256 N 
ATOM     26  H   UNL     1       6.617  -6.020  26.716  0.00  0.00    +0.191 HD
ATOM     27  N   UNL     1       7.810  -4.691  25.736  0.00  0.00    -0.131 NA
BRANCH  24  28
ATOM     28  C   UNL     1       4.717  -6.176  24.607  0.00  0.00    +0.057 A 
ATOM     29  S   UNL     1       3.695  -5.953  23.244  0.00  0.00    -0.074 S 
ATOM     30  C   UNL     1       2.595  -7.103  23.812  0.00  0.00    +0.079 A 
ATOM     31 CL   UNL     1       1.198  -7.472  22.888  0.00  0.00    -0.076 Cl
ATOM     32  C   UNL     1       2.953  -7.654  25.015  0.00  0.00    +0.028 A 
ATOM     33  C   UNL     1       4.190  -7.111  25.479  0.00  0.00    +0.021 A 
ENDBRANCH  24  28
ENDBRANCH  19  22
ENDBRANCH   1  19
TORSDOF 6
ENDMDL
MODEL 9
REMARK VINA RESULT:      -6.7      4.079      8.897
REMARK  Name = 
REMARK  7 active torsions:
REMARK  status: ('A' for Active; 'I' for Inactive)
REMARK    1  A    between atoms: C_2  and  C_3
REMARK    2  A    between atoms: C_2  and  N_4
REMARK    3  A    between atoms: C_2  and  C_26
REMARK    4  A    between atoms: C_7  and  N_9
REMARK    5  A    between atoms: N_9  and  S_10
REMARK    6  A    between atoms: S_10  and  C_13
REMARK    7  A    between atoms: C_16  and  C_18
REMARK                            x       y       z     vdW  Elec       q    Type
REMARK                         _______ _______ _______ _____ _____    ______ ____
ROOT
ATOM      1  N   UNL     1       8.497  -2.209  23.025  0.00  0.00    -0.175 NA
ATOM      2  H   UNL     1       7.583  -1.765  22.986  0.00  0.00    +0.149 HD
ENDROOT
BRANCH   1   6
ATOM      3  N   UNL     1       7.458  -4.386  25.603  0.00  0.00    -0.289 N 
ATOM      4  C   UNL     1       7.987  -4.230  24.323  0.00  0.00    +0.235 C 
ATOM      5  O   UNL     1       7.819  -4.986  23.381  0.00  0.00    -0.274 OA
ATOM      6  C   UNL     1       8.787  -2.924  24.283  0.00  0.00    +0.164 C 
ATOM      7  C   UNL     1       8.267  -2.197  25.516  0.00  0.00    +0.049 C 
ATOM      8  C   UNL     1       7.839  -3.297  26.464  0.00  0.00    +0.110 C 
BRANCH   3   9
ATOM      9  C   UNL     1       6.289  -5.229  25.897  0.00  0.00    +0.159 C 
ATOM     10  C   UNL     1       6.460  -6.019  27.196  0.00  0.00    +0.038 C 
BRANCH   9  11
ATOM     11  C   UNL     1       4.943  -4.461  25.886  0.00  0.00    +0.236 C 
ATOM     12  N   UNL     1       4.238  -4.389  24.691  0.00  0.00    -0.296 N 
ATOM     13  C   UNL     1       2.911  -3.767  24.684  0.00  0.00    +0.136 C 
ATOM     14  C   UNL     1       1.838  -4.818  24.369  0.00  0.00    +0.179 C 
ATOM     15  O   UNL     1       2.130  -5.510  23.141  0.00  0.00    -0.377 OA
ATOM     16  C   UNL     1       3.412  -6.158  23.209  0.00  0.00    +0.179 C 
ATOM     17  C   UNL     1       4.527  -5.137  23.467  0.00  0.00    +0.136 C 
ATOM     18  O   UNL     1       4.481  -3.982  26.926  0.00  0.00    -0.274 OA
ENDBRANCH   9  11
ENDBRANCH   3   9
ENDBRANCH   1   6
BRANCH   1  19
ATOM     19  S   UNL     1       9.679  -1.231  22.326  0.00  0.00    +0.096 S 
ATOM     20  O   UNL     1       9.246  -0.904  20.981  0.00  0.00    -0.150 OA
ATOM     21  O   UNL     1      10.948  -1.889  22.559  0.00  0.00    -0.150 OA
BRANCH  19  22
ATOM     22  C   UNL     1       9.744   0.325  23.166  0.00  0.00    +0.307 A 
ATOM     23  N   UNL     1       9.020   1.427  22.708  0.00  0.00    -0.189 NA
ATOM     24  C   UNL     1       9.368   2.383  23.546  0.00  0.00    +0.165 A 
ATOM     25  N   UNL     1      10.214   1.864  24.486  0.00  0.00    -0.256 N 
ATOM     26  H   UNL     1      10.645   2.338  25.270  0.00  0.00    +0.191 HD
ATOM     27  N   UNL     1      10.467   0.570  24.274  0.00  0.00    -0.131 NA
BRANCH  24  28
ATOM     28  C   UNL     1       8.956   3.751  23.473  0.00  0.00    +0.057 A 
ATOM     29  S   UNL     1       7.592   4.243  22.551  0.00  0.00    -0.074 S 
ATOM     30  C   UNL     1       7.783   5.854  23.024  0.00  0.00    +0.079 A 
ATOM     31 CL   UNL     1       6.677   7.040  22.467  0.00  0.00    -0.076 Cl
ATOM     32  C   UNL     1       8.857   6.056  23.850  0.00  0.00    +0.028 A 
ATOM     33  C   UNL     1       9.542   4.830  24.110  0.00  0.00    +0.021 A 
ENDBRANCH  24  28
ENDBRANCH  19  22
ENDBRANCH   1  19
TORSDOF 6
ENDMDL
