MODEL 1
REMARK VINA RESULT:      -4.6      0.000      0.000
REMARK  Name = 
REMARK  5 active torsions:
REMARK  status: ('A' for Active; 'I' for Inactive)
REMARK    1  A    between atoms: C_1  and  C_2
REMARK    2  A    between atoms: C_5  and  O_7
REMARK    3  A    between atoms: C_8  and  O_10
REMARK    4  A    between atoms: C_11  and  O_13
REMARK    5  A    between atoms: C_14  and  O_16
REMARK                            x       y       z     vdW  Elec       q    Type
REMARK                         _______ _______ _______ _____ _____    ______ ____
ROOT
ATOM      1  C   UNL     1       8.223  -2.576  22.680  0.00  0.00    +0.041 C 
ATOM      2  C   UNL     1       9.254  -1.474  22.903  0.00  0.00    +0.149 C 
ATOM      3  C   UNL     1       9.078  -0.314  21.910  0.00  0.00    +0.174 C 
ATOM      4  C   UNL     1      10.019   0.838  22.255  0.00  0.00    +0.179 C 
ATOM      5  C   UNL     1       9.954   1.203  23.733  0.00  0.00    +0.201 C 
ATOM      6  C   UNL     1      10.118  -0.065  24.583  0.00  0.00    +0.279 C 
ATOM      7  O   UNL     1       9.125  -1.023  24.259  0.00  0.00    -0.343 OA
ENDROOT
BRANCH   3   8
ATOM      8  O   UNL     1       9.378  -0.775  20.582  0.00  0.00    -0.387 OA
ATOM      9  H   UNL     1       9.426   0.030  20.026  0.00  0.00    +0.210 HD
ENDBRANCH   3   8
BRANCH   4  10
ATOM     10  O   UNL     1       9.697   1.980  21.443  0.00  0.00    -0.386 OA
ATOM     11  H   UNL     1       9.366   1.614  20.598  0.00  0.00    +0.210 HD
ENDBRANCH   4  10
BRANCH   5  12
ATOM     12  O   UNL     1      10.998   2.154  24.006  0.00  0.00    -0.384 OA
ATOM     13  H   UNL     1      10.775   2.540  24.878  0.00  0.00    +0.210 HD
ENDBRANCH   5  12
BRANCH   6  14
ATOM     14  O   UNL     1       9.962   0.298  25.947  0.00  0.00    -0.365 OA
ATOM     15  H   UNL     1      10.855   0.205  26.323  0.00  0.00    +0.213 HD
ENDBRANCH   6  14
TORSDOF 4
ENDMDL
MODEL 2
REMARK VINA RESULT:      -4.6      1.313      2.562
REMARK  Name = 
REMARK  5 active torsions:
REMARK  status: ('A' for Active; 'I' for Inactive)
REMARK    1  A    between atoms: C_1  and  C_2
REMARK    2  A    between atoms: C_5  and  O_7
REMARK    3  A    between atoms: C_8  and  O_10
REMARK    4  A    between atoms: C_11  and  O_13
REMARK    5  A    between atoms: C_14  and  O_16
REMARK                            x       y       z     vdW  Elec       q    Type
REMARK                         _______ _______ _______ _____ _____    ______ ____
ROOT
ATOM      1  C   UNL     1       9.057  -0.928  26.027  0.00  0.00    +0.041 C 
ATOM      2  C   UNL     1       9.735  -0.169  24.892  0.00  0.00    +0.149 C 
ATOM      3  C   UNL     1       9.479  -0.828  23.527  0.00  0.00    +0.174 C 
ATOM      4  C   UNL     1      10.038   0.036  22.398  0.00  0.00    +0.179 C 
ATOM      5  C   UNL     1       9.611   1.493  22.533  0.00  0.00    +0.201 C 
ATOM      6  C   UNL     1       9.910   1.986  23.955  0.00  0.00    +0.279 C 
ATOM      7  O   UNL     1       9.251   1.181  24.918  0.00  0.00    -0.343 OA
ENDROOT
BRANCH   3   8
ATOM      8  O   UNL     1      10.123  -2.112  23.489  0.00  0.00    -0.387 OA
ATOM      9  H   UNL     1      11.067  -1.930  23.304  0.00  0.00    +0.210 HD
ENDBRANCH   3   8
BRANCH   4  10
ATOM     10  O   UNL     1       9.612  -0.494  21.132  0.00  0.00    -0.386 OA
ATOM     11  H   UNL     1       9.129   0.234  20.693  0.00  0.00    +0.210 HD
ENDBRANCH   4  10
BRANCH   5  12
ATOM     12  O   UNL     1      10.329   2.262  21.552  0.00  0.00    -0.384 OA
ATOM     13  H   UNL     1      11.277   2.130  21.761  0.00  0.00    +0.210 HD
ENDBRANCH   5  12
BRANCH   6  14
ATOM     14  O   UNL     1       9.418   3.314  24.072  0.00  0.00    -0.365 OA
ATOM     15  H   UNL     1       8.922   3.312  24.910  0.00  0.00    +0.213 HD
ENDBRANCH   6  14
TORSDOF 4
ENDMDL
MODEL 3
REMARK VINA RESULT:      -4.5      4.173      6.118
REMARK  Name = 
REMARK  5 active torsions:
REMARK  status: ('A' for Active; 'I' for Inactive)
REMARK    1  A    between atoms: C_1  and  C_2
REMARK    2  A    between atoms: C_5  and  O_7
REMARK    3  A    between atoms: C_8  and  O_10
REMARK    4  A    between atoms: C_11  and  O_13
REMARK    5  A    between atoms: C_14  and  O_16
REMARK                            x       y       z     vdW  Elec       q    Type
REMARK                         _______ _______ _______ _____ _____    ______ ____
ROOT
ATOM      1  C   UNL     1       5.322  -5.454  26.125  0.00  0.00    +0.041 C 
ATOM      2  C   UNL     1       6.588  -4.644  25.868  0.00  0.00    +0.149 C 
ATOM      3  C   UNL     1       7.859  -5.472  26.113  0.00  0.00    +0.174 C 
ATOM      4  C   UNL     1       9.102  -4.686  25.700  0.00  0.00    +0.179 C 
ATOM      5  C   UNL     1       8.954  -4.075  24.312  0.00  0.00    +0.201 C 
ATOM      6  C   UNL     1       7.627  -3.309  24.226  0.00  0.00    +0.279 C 
ATOM      7  O   UNL     1       6.532  -4.162  24.518  0.00  0.00    -0.343 OA
ENDROOT
BRANCH   3   8
ATOM      8  O   UNL     1       7.958  -5.792  27.510  0.00  0.00    -0.387 OA
ATOM      9  H   UNL     1       8.112  -6.758  27.551  0.00  0.00    +0.210 HD
ENDBRANCH   3   8
BRANCH   4  10
ATOM     10  O   UNL     1      10.252  -5.547  25.747  0.00  0.00    -0.386 OA
ATOM     11  H   UNL     1      11.026  -4.949  25.768  0.00  0.00    +0.210 HD
ENDBRANCH   4  10
BRANCH   5  12
ATOM     12  O   UNL     1      10.075  -3.204  24.083  0.00  0.00    -0.384 OA
ATOM     13  H   UNL     1       9.788  -2.322  24.399  0.00  0.00    +0.210 HD
ENDBRANCH   5  12
BRANCH   6  14
ATOM     14  O   UNL     1       7.480  -2.833  22.896  0.00  0.00    -0.365 OA
ATOM     15  H   UNL     1       6.611  -3.173  22.615  0.00  0.00    +0.213 HD
ENDBRANCH   6  14
TORSDOF 4
ENDMDL
MODEL 4
REMARK VINA RESULT:      -4.5      4.096      5.472
REMARK  Name = 
REMARK  5 active torsions:
REMARK  status: ('A' for Active; 'I' for Inactive)
REMARK    1  A    between atoms: C_1  and  C_2
REMARK    2  A    between atoms: C_5  and  O_7
REMARK    3  A    between atoms: C_8  and  O_10
REMARK    4  A    between atoms: C_11  and  O_13
REMARK    5  A    between atoms: C_14  and  O_16
REMARK                            x       y       z     vdW  Elec       q    Type
REMARK                         _______ _______ _______ _____ _____    ______ ____
ROOT
ATOM      1  C   UNL     1       5.333  -2.784  25.040  0.00  0.00    +0.041 C 
ATOM      2  C   UNL     1       6.502  -3.757  24.930  0.00  0.00    +0.149 C 
ATOM      3  C   UNL     1       7.761  -3.080  24.367  0.00  0.00    +0.174 C 
ATOM      4  C   UNL     1       8.952  -4.034  24.413  0.00  0.00    +0.179 C 
ATOM      5  C   UNL     1       9.097  -4.697  25.778  0.00  0.00    +0.201 C 
ATOM      6  C   UNL     1       7.750  -5.297  26.203  0.00  0.00    +0.279 C 
ATOM      7  O   UNL     1       6.741  -4.302  26.235  0.00  0.00    -0.343 OA
ENDROOT
BRANCH   3   8
ATOM      8  O   UNL     1       7.527  -2.698  23.001  0.00  0.00    -0.387 OA
ATOM      9  H   UNL     1       6.634  -3.032  22.781  0.00  0.00    +0.210 HD
ENDBRANCH   3   8
BRANCH   4  10
ATOM     10  O   UNL     1      10.153  -3.320  24.074  0.00  0.00    -0.386 OA
ATOM     11  H   UNL     1      10.456  -3.707  23.228  0.00  0.00    +0.210 HD
ENDBRANCH   4  10
BRANCH   5  12
ATOM     12  O   UNL     1      10.112  -5.711  25.678  0.00  0.00    -0.384 OA
ATOM     13  H   UNL     1      10.914  -5.317  26.081  0.00  0.00    +0.210 HD
ENDBRANCH   5  12
BRANCH   6  14
ATOM     14  O   UNL     1       7.899  -5.824  27.514  0.00  0.00    -0.365 OA
ATOM     15  H   UNL     1       6.985  -5.955  27.824  0.00  0.00    +0.213 HD
ENDBRANCH   6  14
TORSDOF 4
ENDMDL
MODEL 5
REMARK VINA RESULT:      -4.5      5.854      6.487
REMARK  Name = 
REMARK  5 active torsions:
REMARK  status: ('A' for Active; 'I' for Inactive)
REMARK    1  A    between atoms: C_1  and  C_2
REMARK    2  A    between atoms: C_5  and  O_7
REMARK    3  A    between atoms: C_8  and  O_10
REMARK    4  A    between atoms: C_11  and  O_13
REMARK    5  A    between atoms: C_14  and  O_16
REMARK                            x       y       z     vdW  Elec       q    Type
REMARK                         _______ _______ _______ _____ _____    ______ ____
ROOT
ATOM      1  C   UNL     1       7.152  -5.708  21.743  0.00  0.00    +0.041 C 
ATOM      2  C   UNL     1       7.385  -5.104  23.123  0.00  0.00    +0.149 C 
ATOM      3  C   UNL     1       6.198  -5.354  24.067  0.00  0.00    +0.174 C 
ATOM      4  C   UNL     1       6.524  -4.875  25.480  0.00  0.00    +0.179 C 
ATOM      5  C   UNL     1       7.880  -5.384  25.955  0.00  0.00    +0.201 C 
ATOM      6  C   UNL     1       8.943  -5.082  24.891  0.00  0.00    +0.279 C 
ATOM      7  O   UNL     1       8.596  -5.668  23.648  0.00  0.00    -0.343 OA
ENDROOT
BRANCH   3   8
ATOM      8  O   UNL     1       5.050  -4.635  23.589  0.00  0.00    -0.387 OA
ATOM      9  H   UNL     1       4.713  -4.129  24.357  0.00  0.00    +0.210 HD
ENDBRANCH   3   8
BRANCH   4  10
ATOM     10  O   UNL     1       5.487  -5.299  26.381  0.00  0.00    -0.386 OA
ATOM     11  H   UNL     1       5.939  -5.832  27.066  0.00  0.00    +0.210 HD
ENDBRANCH   4  10
BRANCH   5  12
ATOM     12  O   UNL     1       8.190  -4.738  27.202  0.00  0.00    -0.384 OA
ATOM     13  H   UNL     1       9.166  -4.765  27.273  0.00  0.00    +0.210 HD
ENDBRANCH   5  12
BRANCH   6  14
ATOM     14  O   UNL     1      10.172  -5.649  25.324  0.00  0.00    -0.365 OA
ATOM     15  H   UNL     1      10.380  -5.168  26.145  0.00  0.00    +0.213 HD
ENDBRANCH   6  14
TORSDOF 4
ENDMDL
MODEL 6
REMARK VINA RESULT:      -4.4      1.411      4.074
REMARK  Name = 
REMARK  5 active torsions:
REMARK  status: ('A' for Active; 'I' for Inactive)
REMARK    1  A    between atoms: C_1  and  C_2
REMARK    2  A    between atoms: C_5  and  O_7
REMARK    3  A    between atoms: C_8  and  O_10
REMARK    4  A    between atoms: C_11  and  O_13
REMARK    5  A    between atoms: C_14  and  O_16
REMARK                            x       y       z     vdW  Elec       q    Type
REMARK                         _______ _______ _______ _____ _____    ______ ____
ROOT
ATOM      1  C   UNL     1       8.322   2.428  25.167  0.00  0.00    +0.041 C 
ATOM      2  C   UNL     1       9.165   1.506  24.291  0.00  0.00    +0.149 C 
ATOM      3  C   UNL     1       9.153   0.058  24.805  0.00  0.00    +0.174 C 
ATOM      4  C   UNL     1       9.874  -0.867  23.827  0.00  0.00    +0.179 C 
ATOM      5  C   UNL     1       9.401  -0.658  22.393  0.00  0.00    +0.201 C 
ATOM      6  C   UNL     1       9.447   0.837  22.049  0.00  0.00    +0.279 C 
ATOM      7  O   UNL     1       8.654   1.588  22.953  0.00  0.00    -0.343 OA
ENDROOT
BRANCH   3   8
ATOM      8  O   UNL     1       9.822  -0.002  26.076  0.00  0.00    -0.387 OA
ATOM      9  H   UNL     1       9.326   0.601  26.666  0.00  0.00    +0.210 HD
ENDBRANCH   3   8
BRANCH   4  10
ATOM     10  O   UNL     1       9.677  -2.234  24.225  0.00  0.00    -0.386 OA
ATOM     11  H   UNL     1      10.269  -2.371  24.991  0.00  0.00    +0.210 HD
ENDBRANCH   4  10
BRANCH   5  12
ATOM     12  O   UNL     1      10.256  -1.421  21.524  0.00  0.00    -0.384 OA
ATOM     13  H   UNL     1      11.040  -0.855  21.369  0.00  0.00    +0.210 HD
ENDBRANCH   5  12
BRANCH   6  14
ATOM     14  O   UNL     1       8.915   1.004  20.743  0.00  0.00    -0.365 OA
ATOM     15  H   UNL     1       9.603   1.503  20.267  0.00  0.00    +0.213 HD
ENDBRANCH   6  14
TORSDOF 4
ENDMDL
MODEL 7
REMARK VINA RESULT:      -4.4      1.316      3.068
REMARK  Name = 
REMARK  5 active torsions:
REMARK  status: ('A' for Active; 'I' for Inactive)
REMARK    1  A    between atoms: C_1  and  C_2
REMARK    2  A    between atoms: C_5  and  O_7
REMARK    3  A    between atoms: C_8  and  O_10
REMARK    4  A    between atoms: C_11  and  O_13
REMARK    5  A    between atoms: C_14  and  O_16
REMARK                            x       y       z     vdW  Elec       q    Type
REMARK                         _______ _______ _______ _____ _____    ______ ____
ROOT
ATOM      1  C   UNL     1       9.654   3.149  23.326  0.00  0.00    +0.041 C 
ATOM      2  C   UNL     1       9.236   1.691  23.478  0.00  0.00    +0.149 C 
ATOM      3  C   UNL     1       9.872   0.796  22.402  0.00  0.00    +0.174 C 
ATOM      4  C   UNL     1       9.560  -0.675  22.670  0.00  0.00    +0.179 C 
ATOM      5  C   UNL     1       9.841  -1.060  24.118  0.00  0.00    +0.201 C 
ATOM      6  C   UNL     1       9.161  -0.056  25.058  0.00  0.00    +0.279 C 
ATOM      7  O   UNL     1       9.607   1.264  24.796  0.00  0.00    -0.343 OA
ENDROOT
BRANCH   3   8
ATOM      8  O   UNL     1       9.345   1.153  21.113  0.00  0.00    -0.387 OA
ATOM      9  H   UNL     1       9.719   0.503  20.484  0.00  0.00    +0.210 HD
ENDBRANCH   3   8
BRANCH   4  10
ATOM     10  O   UNL     1      10.327  -1.499  21.776  0.00  0.00    -0.386 OA
ATOM     11  H   UNL     1       9.782  -1.583  20.968  0.00  0.00    +0.210 HD
ENDBRANCH   4  10
BRANCH   5  12
ATOM     12  O   UNL     1       9.345  -2.393  24.330  0.00  0.00    -0.384 OA
ATOM     13  H   UNL     1       8.390  -2.353  24.114  0.00  0.00    +0.210 HD
ENDBRANCH   5  12
BRANCH   6  14
ATOM     14  O   UNL     1       9.517  -0.392  26.392  0.00  0.00    -0.365 OA
ATOM     15  H   UNL     1       9.027   0.248  26.938  0.00  0.00    +0.213 HD
ENDBRANCH   6  14
TORSDOF 4
ENDMDL
MODEL 8
REMARK VINA RESULT:      -4.4      3.161      5.119
REMARK  Name = 
REMARK  5 active torsions:
REMARK  status: ('A' for Active; 'I' for Inactive)
REMARK    1  A    between atoms: C_1  and  C_2
REMARK    2  A    between atoms: C_5  and  O_7
REMARK    3  A    between atoms: C_8  and  O_10
REMARK    4  A    between atoms: C_11  and  O_13
REMARK    5  A    between atoms: C_14  and  O_16
REMARK                            x       y       z     vdW  Elec       q    Type
REMARK                         _______ _______ _______ _____ _____    ______ ____
ROOT
ATOM      1  C   UNL     1      10.302  -1.655  22.745  0.00  0.00    +0.041 C 
ATOM      2  C   UNL     1       9.462  -2.428  23.756  0.00  0.00    +0.149 C 
ATOM      3  C   UNL     1       8.057  -2.740  23.217  0.00  0.00    +0.174 C 
ATOM      4  C   UNL     1       7.297  -3.643  24.185  0.00  0.00    +0.179 C 
ATOM      5  C   UNL     1       8.132  -4.841  24.621  0.00  0.00    +0.201 C 
ATOM      6  C   UNL     1       9.507  -4.361  25.104  0.00  0.00    +0.279 C 
ATOM      7  O   UNL     1      10.172  -3.630  24.088  0.00  0.00    -0.343 OA
ENDROOT
BRANCH   3   8
ATOM      8  O   UNL     1       7.325  -1.514  23.056  0.00  0.00    -0.387 OA
ATOM      9  H   UNL     1       6.385  -1.744  23.204  0.00  0.00    +0.210 HD
ENDBRANCH   3   8
BRANCH   4  10
ATOM     10  O   UNL     1       6.074  -4.083  23.571  0.00  0.00    -0.386 OA
ATOM     11  H   UNL     1       5.675  -4.713  24.204  0.00  0.00    +0.210 HD
ENDBRANCH   4  10
BRANCH   5  12
ATOM     12  O   UNL     1       7.421  -5.526  25.666  0.00  0.00    -0.384 OA
ATOM     13  H   UNL     1       7.224  -4.842  26.339  0.00  0.00    +0.210 HD
ENDBRANCH   5  12
BRANCH   6  14
ATOM     14  O   UNL     1      10.288  -5.506  25.414  0.00  0.00    -0.365 OA
ATOM     15  H   UNL     1       9.921  -5.823  26.259  0.00  0.00    +0.213 HD
ENDBRANCH   6  14
TORSDOF 4
ENDMDL
MODEL 9
REMARK VINA RESULT:      -4.4      1.709      3.265
REMARK  Name = 
REMARK  5 active torsions:
REMARK  status: ('A' for Active; 'I' for Inactive)
REMARK    1  A    between atoms: C_1  and  C_2
REMARK    2  A    between atoms: C_5  and  O_7
REMARK    3  A    between atoms: C_8  and  O_10
REMARK    4  A    between atoms: C_11  and  O_13
REMARK    5  A    between atoms: C_14  and  O_16
REMARK                            x       y       z     vdW  Elec       q    Type
REMARK                         _______ _______ _______ _____ _____    ______ ____
ROOT
ATOM      1  C   UNL     1      10.028   1.470  21.955  0.00  0.00    +0.041 C 
ATOM      2  C   UNL     1       9.328   0.408  22.796  0.00  0.00    +0.149 C 
ATOM      3  C   UNL     1      10.086  -0.929  22.781  0.00  0.00    +0.174 C 
ATOM      4  C   UNL     1       9.448  -1.921  23.751  0.00  0.00    +0.179 C 
ATOM      5  C   UNL     1       9.206  -1.300  25.122  0.00  0.00    +0.201 C 
ATOM      6  C   UNL     1       8.467   0.035  24.959  0.00  0.00    +0.279 C 
ATOM      7  O   UNL     1       9.202   0.921  24.131  0.00  0.00    -0.343 OA
ENDROOT
BRANCH   3   8
ATOM      8  O   UNL     1      10.044  -1.485  21.457  0.00  0.00    -0.387 OA
ATOM      9  H   UNL     1      10.290  -0.755  20.853  0.00  0.00    +0.210 HD
ENDBRANCH   3   8
BRANCH   4  10
ATOM     10  O   UNL     1      10.286  -3.083  23.869  0.00  0.00    -0.386 OA
ATOM     11  H   UNL     1       9.836  -3.664  24.515  0.00  0.00    +0.210 HD
ENDBRANCH   4  10
BRANCH   5  12
ATOM     12  O   UNL     1       8.437  -2.230  25.905  0.00  0.00    -0.384 OA
ATOM     13  H   UNL     1       8.126  -1.720  26.682  0.00  0.00    +0.210 HD
ENDBRANCH   5  12
BRANCH   6  14
ATOM     14  O   UNL     1       8.340   0.627  26.244  0.00  0.00    -0.365 OA
ATOM     15  H   UNL     1       9.132   0.326  26.724  0.00  0.00    +0.213 HD
ENDBRANCH   6  14
TORSDOF 4
ENDMDL
