MODEL 1
REMARK VINA RESULT:      -4.6      0.000      0.000
REMARK  Name = 
REMARK  5 active torsions:
REMARK  status: ('A' for Active; 'I' for Inactive)
REMARK    1  A    between atoms: N_1  and  C_2
REMARK    2  A    between atoms: C_2  and  C_3
REMARK    3  A    between atoms: C_3  and  C_4
REMARK    4  A    between atoms: C_4  and  C_5
REMARK    5  A    between atoms: C_5  and  O_6
REMARK                            x       y       z     vdW  Elec       q    Type
REMARK                         _______ _______ _______ _____ _____    ______ ____
ROOT
ATOM      1  C   UNL     1       8.085  -4.050  24.932  0.00  0.00    -0.007 C 
ATOM      2  C   UNL     1       7.017  -3.916  23.800  0.00  0.00    +0.009 C 
ATOM      3  C   UNL     1       7.587  -3.505  22.443  0.00  0.00    +0.001 C 
ATOM      4  C   UNL     1       8.374  -2.210  22.558  0.00  0.00    +0.000 C 
ATOM      5  C   UNL     1       9.497  -2.344  23.577  0.00  0.00    +0.001 C 
ATOM      6  C   UNL     1       8.973  -2.776  24.948  0.00  0.00    +0.009 C 
ENDROOT
BRANCH   1   7
ATOM      7  C   UNL     1       8.913  -5.345  24.661  0.00  0.00    +0.085 C 
BRANCH   7   8
ATOM      8  N   UNL     1      10.156  -5.464  25.410  0.00  0.00    -0.329 NA
ATOM      9  H   UNL     1      10.956  -5.210  24.817  0.00  0.00    +0.118 HD
ATOM     10  H   UNL     1      10.173  -4.756  26.146  0.00  0.00    +0.118 HD
ENDBRANCH   7   8
ENDBRANCH   1   7
BRANCH   1  11
ATOM     11  C   UNL     1       7.285  -4.148  26.264  0.00  0.00    +0.128 C 
BRANCH  11  12
ATOM     12  C   UNL     1       6.975  -5.534  26.771  0.00  0.00    +0.305 C 
ATOM     13  O   UNL     1       6.026  -6.196  26.370  0.00  0.00    -0.251 OA
BRANCH  12  14
ATOM     14  O   UNL     1       7.826  -5.990  27.712  0.00  0.00    -0.481 OA
ATOM     15  H   UNL     1       8.466  -6.649  27.384  0.00  0.00    +0.295 HD
ENDBRANCH  12  14
ENDBRANCH  11  12
ENDBRANCH   1  11
TORSDOF 5
ENDMDL
MODEL 2
REMARK VINA RESULT:      -4.5      4.861      6.050
REMARK  Name = 
REMARK  5 active torsions:
REMARK  status: ('A' for Active; 'I' for Inactive)
REMARK    1  A    between atoms: N_1  and  C_2
REMARK    2  A    between atoms: C_2  and  C_3
REMARK    3  A    between atoms: C_3  and  C_4
REMARK    4  A    between atoms: C_4  and  C_5
REMARK    5  A    between atoms: C_5  and  O_6
REMARK                            x       y       z     vdW  Elec       q    Type
REMARK                         _______ _______ _______ _____ _____    ______ ____
ROOT
ATOM      1  C   UNL     1       9.227  -0.730  22.948  0.00  0.00    -0.007 C 
ATOM      2  C   UNL     1       7.743  -1.213  22.899  0.00  0.00    +0.009 C 
ATOM      3  C   UNL     1       7.369  -2.210  23.994  0.00  0.00    +0.001 C 
ATOM      4  C   UNL     1       8.298  -3.413  23.970  0.00  0.00    +0.000 C 
ATOM      5  C   UNL     1       9.750  -2.982  24.129  0.00  0.00    +0.001 C 
ATOM      6  C   UNL     1      10.162  -1.965  23.063  0.00  0.00    +0.009 C 
ENDROOT
BRANCH   1   7
ATOM      7  C   UNL     1       9.377   0.241  24.162  0.00  0.00    +0.085 C 
BRANCH   7   8
ATOM      8  N   UNL     1      10.738   0.655  24.471  0.00  0.00    -0.329 NA
ATOM      9  H   UNL     1      10.933   1.577  24.058  0.00  0.00    +0.118 HD
ATOM     10  H   UNL     1      10.819   0.823  25.475  0.00  0.00    +0.118 HD
ENDBRANCH   7   8
ENDBRANCH   1   7
BRANCH   1  11
ATOM     11  C   UNL     1       9.485  -0.001  21.597  0.00  0.00    +0.128 C 
BRANCH  11  12
ATOM     12  C   UNL     1       9.154   1.470  21.542  0.00  0.00    +0.305 C 
ATOM     13  O   UNL     1       8.014   1.894  21.406  0.00  0.00    -0.251 OA
BRANCH  12  14
ATOM     14  O   UNL     1      10.220   2.288  21.652  0.00  0.00    -0.481 OA
ATOM     15  H   UNL     1      10.299   2.938  20.929  0.00  0.00    +0.295 HD
ENDBRANCH  12  14
ENDBRANCH  11  12
ENDBRANCH   1  11
TORSDOF 5
ENDMDL
MODEL 3
REMARK VINA RESULT:      -4.4      2.576      3.435
REMARK  Name = 
REMARK  5 active torsions:
REMARK  status: ('A' for Active; 'I' for Inactive)
REMARK    1  A    between atoms: N_1  and  C_2
REMARK    2  A    between atoms: C_2  and  C_3
REMARK    3  A    between atoms: C_3  and  C_4
REMARK    4  A    between atoms: C_4  and  C_5
REMARK    5  A    between atoms: C_5  and  O_6
REMARK                            x       y       z     vdW  Elec       q    Type
REMARK                         _______ _______ _______ _____ _____    ______ ____
ROOT
ATOM      1  C   UNL     1       8.790  -2.170  24.613  0.00  0.00    -0.007 C 
ATOM      2  C   UNL     1       8.978  -1.001  25.630  0.00  0.00    +0.009 C 
ATOM      3  C   UNL     1       9.309   0.345  24.989  0.00  0.00    +0.001 C 
ATOM      4  C   UNL     1      10.541   0.234  24.106  0.00  0.00    +0.000 C 
ATOM      5  C   UNL     1      10.345  -0.825  23.028  0.00  0.00    +0.001 C 
ATOM      6  C   UNL     1       9.990  -2.187  23.627  0.00  0.00    +0.009 C 
ENDROOT
BRANCH   1   7
ATOM      7  C   UNL     1       7.427  -1.956  23.881  0.00  0.00    +0.085 C 
BRANCH   7   8
ATOM      8  N   UNL     1       7.271  -2.670  22.622  0.00  0.00    -0.329 NA
ATOM      9  H   UNL     1       6.889  -2.044  21.901  0.00  0.00    +0.118 HD
ATOM     10  H   UNL     1       8.194  -2.914  22.258  0.00  0.00    +0.118 HD
ENDBRANCH   7   8
ENDBRANCH   1   7
BRANCH   1  11
ATOM     11  C   UNL     1       8.787  -3.477  25.458  0.00  0.00    +0.128 C 
BRANCH  11  12
ATOM     12  C   UNL     1       9.196  -4.746  24.752  0.00  0.00    +0.305 C 
ATOM     13  O   UNL     1       8.517  -5.273  23.879  0.00  0.00    -0.251 OA
BRANCH  12  14
ATOM     14  O   UNL     1      10.372  -5.262  25.162  0.00  0.00    -0.481 OA
ATOM     15  H   UNL     1      10.803  -4.754  25.873  0.00  0.00    +0.295 HD
ENDBRANCH  12  14
ENDBRANCH  11  12
ENDBRANCH   1  11
TORSDOF 5
ENDMDL
MODEL 4
REMARK VINA RESULT:      -4.4      1.946      2.967
REMARK  Name = 
REMARK  5 active torsions:
REMARK  status: ('A' for Active; 'I' for Inactive)
REMARK    1  A    between atoms: N_1  and  C_2
REMARK    2  A    between atoms: C_2  and  C_3
REMARK    3  A    between atoms: C_3  and  C_4
REMARK    4  A    between atoms: C_4  and  C_5
REMARK    5  A    between atoms: C_5  and  O_6
REMARK                            x       y       z     vdW  Elec       q    Type
REMARK                         _______ _______ _______ _____ _____    ______ ____
ROOT
ATOM      1  C   UNL     1       7.732  -4.804  23.845  0.00  0.00    -0.007 C 
ATOM      2  C   UNL     1       7.789  -5.802  22.646  0.00  0.00    +0.009 C 
ATOM      3  C   UNL     1       6.695  -5.592  21.600  0.00  0.00    +0.001 C 
ATOM      4  C   UNL     1       5.318  -5.642  22.240  0.00  0.00    +0.000 C 
ATOM      5  C   UNL     1       5.193  -4.600  23.344  0.00  0.00    +0.001 C 
ATOM      6  C   UNL     1       6.283  -4.761  24.405  0.00  0.00    +0.009 C 
ENDROOT
BRANCH   1   7
ATOM      7  C   UNL     1       8.210  -3.409  23.334  0.00  0.00    +0.085 C 
BRANCH   7   8
ATOM      8  N   UNL     1       9.553  -3.017  23.738  0.00  0.00    -0.329 NA
ATOM      9  H   UNL     1       9.670  -2.000  23.651  0.00  0.00    +0.118 HD
ATOM     10  H   UNL     1       9.664  -3.184  24.740  0.00  0.00    +0.118 HD
ENDBRANCH   7   8
ENDBRANCH   1   7
BRANCH   1  11
ATOM     11  C   UNL     1       8.694  -5.378  24.926  0.00  0.00    +0.128 C 
BRANCH  11  12
ATOM     12  C   UNL     1       8.436  -4.969  26.355  0.00  0.00    +0.305 C 
ATOM     13  O   UNL     1       8.657  -3.842  26.778  0.00  0.00    -0.251 OA
BRANCH  12  14
ATOM     14  O   UNL     1       7.943  -5.950  27.138  0.00  0.00    -0.481 OA
ATOM     15  H   UNL     1       6.979  -6.074  27.061  0.00  0.00    +0.295 HD
ENDBRANCH  12  14
ENDBRANCH  11  12
ENDBRANCH   1  11
TORSDOF 5
ENDMDL
MODEL 5
REMARK VINA RESULT:      -4.4      3.752      4.909
REMARK  Name = 
REMARK  5 active torsions:
REMARK  status: ('A' for Active; 'I' for Inactive)
REMARK    1  A    between atoms: N_1  and  C_2
REMARK    2  A    between atoms: C_2  and  C_3
REMARK    3  A    between atoms: C_3  and  C_4
REMARK    4  A    between atoms: C_4  and  C_5
REMARK    5  A    between atoms: C_5  and  O_6
REMARK                            x       y       z     vdW  Elec       q    Type
REMARK                         _______ _______ _______ _____ _____    ______ ____
ROOT
ATOM      1  C   UNL     1       8.776  -0.186  23.908  0.00  0.00    -0.007 C 
ATOM      2  C   UNL     1       9.562   1.058  24.430  0.00  0.00    +0.009 C 
ATOM      3  C   UNL     1       9.586   2.239  23.462  0.00  0.00    +0.001 C 
ATOM      4  C   UNL     1      10.137   1.819  22.110  0.00  0.00    +0.000 C 
ATOM      5  C   UNL     1       9.320   0.676  21.520  0.00  0.00    +0.001 C 
ATOM      6  C   UNL     1       9.252  -0.523  22.468  0.00  0.00    +0.009 C 
ENDROOT
BRANCH   1   7
ATOM      7  C   UNL     1       7.252   0.150  23.964  0.00  0.00    +0.085 C 
BRANCH   7   8
ATOM      8  N   UNL     1       6.392  -0.697  23.149  0.00  0.00    -0.329 NA
ATOM      9  H   UNL     1       6.446  -0.416  22.161  0.00  0.00    +0.118 HD
ATOM     10  H   UNL     1       6.764  -1.648  23.145  0.00  0.00    +0.118 HD
ENDBRANCH   7   8
ENDBRANCH   1   7
BRANCH   1  11
ATOM     11  C   UNL     1       9.140  -1.356  24.867  0.00  0.00    +0.128 C 
BRANCH  11  12
ATOM     12  C   UNL     1       9.139  -2.745  24.279  0.00  0.00    +0.305 C 
ATOM     13  O   UNL     1      10.164  -3.369  24.034  0.00  0.00    -0.251 OA
BRANCH  12  14
ATOM     14  O   UNL     1       7.912  -3.250  24.036  0.00  0.00    -0.481 OA
ATOM     15  H   UNL     1       7.181  -2.651  24.275  0.00  0.00    +0.295 HD
ENDBRANCH  12  14
ENDBRANCH  11  12
ENDBRANCH   1  11
TORSDOF 5
ENDMDL
MODEL 6
REMARK VINA RESULT:      -4.4      5.250      6.424
REMARK  Name = 
REMARK  5 active torsions:
REMARK  status: ('A' for Active; 'I' for Inactive)
REMARK    1  A    between atoms: N_1  and  C_2
REMARK    2  A    between atoms: C_2  and  C_3
REMARK    3  A    between atoms: C_3  and  C_4
REMARK    4  A    between atoms: C_4  and  C_5
REMARK    5  A    between atoms: C_5  and  O_6
REMARK                            x       y       z     vdW  Elec       q    Type
REMARK                         _______ _______ _______ _____ _____    ______ ____
ROOT
ATOM      1  C   UNL     1       9.488   1.122  23.450  0.00  0.00    -0.007 C 
ATOM      2  C   UNL     1       8.751   1.058  24.825  0.00  0.00    +0.009 C 
ATOM      3  C   UNL     1       7.847   2.256  25.112  0.00  0.00    +0.001 C 
ATOM      4  C   UNL     1       8.627   3.556  25.012  0.00  0.00    +0.000 C 
ATOM      5  C   UNL     1       9.269   3.702  23.638  0.00  0.00    +0.001 C 
ATOM      6  C   UNL     1      10.168   2.510  23.300  0.00  0.00    +0.009 C 
ENDROOT
BRANCH   1   7
ATOM      7  C   UNL     1       8.437   0.853  22.328  0.00  0.00    +0.085 C 
BRANCH   7   8
ATOM      8  N   UNL     1       8.839   1.243  20.984  0.00  0.00    -0.329 NA
ATOM      9  H   UNL     1       9.526   2.007  21.025  0.00  0.00    +0.118 HD
ATOM     10  H   UNL     1       9.361   0.478  20.554  0.00  0.00    +0.118 HD
ENDBRANCH   7   8
ENDBRANCH   1   7
BRANCH   1  11
ATOM     11  C   UNL     1      10.575   0.009  23.496  0.00  0.00    +0.128 C 
BRANCH  11  12
ATOM     12  C   UNL     1      10.174  -1.356  22.994  0.00  0.00    +0.305 C 
ATOM     13  O   UNL     1       9.697  -2.221  23.718  0.00  0.00    -0.251 OA
BRANCH  12  14
ATOM     14  O   UNL     1      10.387  -1.554  21.678  0.00  0.00    -0.481 OA
ATOM     15  H   UNL     1      11.257  -1.246  21.365  0.00  0.00    +0.295 HD
ENDBRANCH  12  14
ENDBRANCH  11  12
ENDBRANCH   1  11
TORSDOF 5
ENDMDL
MODEL 7
REMARK VINA RESULT:      -4.3      2.981      4.024
REMARK  Name = 
REMARK  5 active torsions:
REMARK  status: ('A' for Active; 'I' for Inactive)
REMARK    1  A    between atoms: N_1  and  C_2
REMARK    2  A    between atoms: C_2  and  C_3
REMARK    3  A    between atoms: C_3  and  C_4
REMARK    4  A    between atoms: C_4  and  C_5
REMARK    5  A    between atoms: C_5  and  O_6
REMARK                            x       y       z     vdW  Elec       q    Type
REMARK                         _______ _______ _______ _____ _____    ______ ____
ROOT
ATOM      1  C   UNL     1       7.441  -4.246  24.086  0.00  0.00    -0.007 C 
ATOM      2  C   UNL     1       5.939  -4.216  24.514  0.00  0.00    +0.009 C 
ATOM      3  C   UNL     1       5.174  -5.504  24.216  0.00  0.00    +0.001 C 
ATOM      4  C   UNL     1       5.277  -5.865  22.743  0.00  0.00    +0.000 C 
ATOM      5  C   UNL     1       6.733  -6.012  22.319  0.00  0.00    +0.001 C 
ATOM      6  C   UNL     1       7.543  -4.749  22.620  0.00  0.00    +0.009 C 
ENDROOT
BRANCH   1   7
ATOM      7  C   UNL     1       8.207  -5.171  25.084  0.00  0.00    +0.085 C 
BRANCH   7   8
ATOM      8  N   UNL     1       9.520  -5.620  24.641  0.00  0.00    -0.329 NA
ATOM      9  H   UNL     1       9.772  -5.168  23.753  0.00  0.00    +0.118 HD
ATOM     10  H   UNL     1      10.228  -5.278  25.292  0.00  0.00    +0.118 HD
ENDBRANCH   7   8
ENDBRANCH   1   7
BRANCH   1  11
ATOM     11  C   UNL     1       7.939  -2.774  24.171  0.00  0.00    +0.128 C 
BRANCH  11  12
ATOM     12  C   UNL     1       9.154  -2.418  23.351  0.00  0.00    +0.305 C 
ATOM     13  O   UNL     1      10.285  -2.792  23.634  0.00  0.00    -0.251 OA
BRANCH  12  14
ATOM     14  O   UNL     1       8.897  -1.646  22.276  0.00  0.00    -0.481 OA
ATOM     15  H   UNL     1       8.361  -2.084  21.590  0.00  0.00    +0.295 HD
ENDBRANCH  12  14
ENDBRANCH  11  12
ENDBRANCH   1  11
TORSDOF 5
ENDMDL
MODEL 8
REMARK VINA RESULT:      -4.3      3.263      4.551
REMARK  Name = 
REMARK  5 active torsions:
REMARK  status: ('A' for Active; 'I' for Inactive)
REMARK    1  A    between atoms: N_1  and  C_2
REMARK    2  A    between atoms: C_2  and  C_3
REMARK    3  A    between atoms: C_3  and  C_4
REMARK    4  A    between atoms: C_4  and  C_5
REMARK    5  A    between atoms: C_5  and  O_6
REMARK                            x       y       z     vdW  Elec       q    Type
REMARK                         _______ _______ _______ _____ _____    ______ ____
ROOT
ATOM      1  C   UNL     1       9.563  -0.618  23.510  0.00  0.00    -0.007 C 
ATOM      2  C   UNL     1      10.187  -0.026  22.206  0.00  0.00    +0.009 C 
ATOM      3  C   UNL     1       9.724   1.392  21.874  0.00  0.00    +0.001 C 
ATOM      4  C   UNL     1       8.208   1.458  21.789  0.00  0.00    +0.000 C 
ATOM      5  C   UNL     1       7.569   0.991  23.090  0.00  0.00    +0.001 C 
ATOM      6  C   UNL     1       8.023  -0.419  23.473  0.00  0.00    +0.009 C 
ENDROOT
BRANCH   1   7
ATOM      7  C   UNL     1      10.224   0.100  24.729  0.00  0.00    +0.085 C 
BRANCH   7   8
ATOM      8  N   UNL     1       9.512  -0.026  25.993  0.00  0.00    -0.329 NA
ATOM      9  H   UNL     1       9.975  -0.718  26.596  0.00  0.00    +0.118 HD
ATOM     10  H   UNL     1       9.603   0.845  26.517  0.00  0.00    +0.118 HD
ENDBRANCH   7   8
ENDBRANCH   1   7
BRANCH   1  11
ATOM     11  C   UNL     1       9.895  -2.138  23.490  0.00  0.00    +0.128 C 
BRANCH  11  12
ATOM     12  C   UNL     1       8.963  -3.049  24.250  0.00  0.00    +0.305 C 
ATOM     13  O   UNL     1       8.871  -3.045  25.471  0.00  0.00    -0.251 OA
BRANCH  12  14
ATOM     14  O   UNL     1       8.236  -3.878  23.474  0.00  0.00    -0.481 OA
ATOM     15  H   UNL     1       7.438  -3.469  23.091  0.00  0.00    +0.295 HD
ENDBRANCH  12  14
ENDBRANCH  11  12
ENDBRANCH   1  11
TORSDOF 5
ENDMDL
MODEL 9
REMARK VINA RESULT:      -4.3      3.939      4.922
REMARK  Name = 
REMARK  5 active torsions:
REMARK  status: ('A' for Active; 'I' for Inactive)
REMARK    1  A    between atoms: N_1  and  C_2
REMARK    2  A    between atoms: C_2  and  C_3
REMARK    3  A    between atoms: C_3  and  C_4
REMARK    4  A    between atoms: C_4  and  C_5
REMARK    5  A    between atoms: C_5  and  O_6
REMARK                            x       y       z     vdW  Elec       q    Type
REMARK                         _______ _______ _______ _____ _____    ______ ____
ROOT
ATOM      1  C   UNL     1       9.410  -0.602  23.668  0.00  0.00    -0.007 C 
ATOM      2  C   UNL     1       8.813   0.518  22.759  0.00  0.00    +0.009 C 
ATOM      3  C   UNL     1       9.821   1.584  22.330  0.00  0.00    +0.001 C 
ATOM      4  C   UNL     1      10.491   2.212  23.541  0.00  0.00    +0.000 C 
ATOM      5  C   UNL     1      11.180   1.153  24.392  0.00  0.00    +0.001 C 
ATOM      6  C   UNL     1      10.210   0.053  24.827  0.00  0.00    +0.009 C 
ENDROOT
BRANCH   1   7
ATOM      7  C   UNL     1      10.304  -1.520  22.777  0.00  0.00    +0.085 C 
BRANCH   7   8
ATOM      8  N   UNL     1       9.901  -1.626  21.381  0.00  0.00    -0.329 NA
ATOM      9  H   UNL     1      10.303  -0.854  20.834  0.00  0.00    +0.118 HD
ATOM     10  H   UNL     1      10.329  -2.457  20.971  0.00  0.00    +0.118 HD
ENDBRANCH   7   8
ENDBRANCH   1   7
BRANCH   1  11
ATOM     11  C   UNL     1       8.190  -1.378  24.247  0.00  0.00    +0.128 C 
BRANCH  11  12
ATOM     12  C   UNL     1       6.999  -1.551  23.337  0.00  0.00    +0.305 C 
ATOM     13  O   UNL     1       6.996  -2.310  22.376  0.00  0.00    -0.251 OA
BRANCH  12  14
ATOM     14  O   UNL     1       5.931  -0.796  23.663  0.00  0.00    -0.481 OA
ATOM     15  H   UNL     1       5.177  -1.304  24.014  0.00  0.00    +0.295 HD
ENDBRANCH  12  14
ENDBRANCH  11  12
ENDBRANCH   1  11
TORSDOF 5
ENDMDL
