MODEL 1
REMARK VINA RESULT:      -4.5      0.000      0.000
REMARK  Name = 
REMARK  2 active torsions:
REMARK  status: ('A' for Active; 'I' for Inactive)
REMARK    1  A    between atoms: N_1  and  C_2
REMARK    2  A    between atoms: C_3  and  N_4
REMARK                            x       y       z     vdW  Elec       q    Type
REMARK                         _______ _______ _______ _____ _____    ______ ____
ROOT
ATOM      1  C   UNL     1       9.802  -0.021  22.680  0.00  0.00    +0.124 A 
ATOM      2  N   UNL     1       9.619  -0.678  23.861  0.00  0.00    -0.295 N 
ATOM      3  H   UNL     1       9.612  -1.687  23.870  0.00  0.00    +0.172 HD
ATOM      4  C   UNL     1       9.459  -0.079  25.074  0.00  0.00    +0.328 A 
ATOM      5  O   UNL     1       9.294  -0.728  26.101  0.00  0.00    -0.247 OA
ATOM      6  N   UNL     1       9.498   1.281  25.079  0.00  0.00    -0.273 N 
ATOM      7  H   UNL     1       9.433   1.746  25.970  0.00  0.00    +0.173 HD
ATOM      8  C   UNL     1       9.737   2.049  23.978  0.00  0.00    +0.277 A 
ATOM      9  O   UNL     1       9.892   3.267  24.046  0.00  0.00    -0.266 OA
ATOM     10  C   UNL     1       9.843   1.330  22.660  0.00  0.00    +0.128 A 
ENDROOT
BRANCH   1  11
ATOM     11  N   UNL     1       9.919  -0.766  21.523  0.00  0.00    -0.343 N 
ATOM     12  H   UNL     1       9.227  -0.507  20.827  0.00  0.00    +0.144 HD
ATOM     13  H   UNL     1      10.862  -0.693  21.140  0.00  0.00    +0.144 HD
ENDBRANCH   1  11
BRANCH  10  14
ATOM     14  N   UNL     1      10.027   2.104  21.514  0.00  0.00    -0.351 N 
ATOM     15  H   UNL     1      11.027   2.280  21.379  0.00  0.00    +0.143 HD
ATOM     16  H   UNL     1       9.616   1.653  20.700  0.00  0.00    +0.143 HD
ENDBRANCH  10  14
TORSDOF 2
ENDMDL
MODEL 2
REMARK VINA RESULT:      -4.4      4.761      6.125
REMARK  Name = 
REMARK  2 active torsions:
REMARK  status: ('A' for Active; 'I' for Inactive)
REMARK    1  A    between atoms: N_1  and  C_2
REMARK    2  A    between atoms: C_3  and  N_4
REMARK                            x       y       z     vdW  Elec       q    Type
REMARK                         _______ _______ _______ _____ _____    ______ ____
ROOT
ATOM      1  C   UNL     1       7.987  -4.931  26.249  0.00  0.00    +0.124 A 
ATOM      2  N   UNL     1       6.905  -4.128  26.041  0.00  0.00    -0.295 N 
ATOM      3  H   UNL     1       6.071  -4.267  26.592  0.00  0.00    +0.172 HD
ATOM      4  C   UNL     1       6.850  -3.108  25.140  0.00  0.00    +0.328 A 
ATOM      5  O   UNL     1       5.842  -2.423  24.997  0.00  0.00    -0.247 OA
ATOM      6  N   UNL     1       7.978  -2.890  24.412  0.00  0.00    -0.273 N 
ATOM      7  H   UNL     1       7.979  -2.109  23.777  0.00  0.00    +0.173 HD
ATOM      8  C   UNL     1       9.143  -3.580  24.572  0.00  0.00    +0.277 A 
ATOM      9  O   UNL     1      10.178  -3.269  23.986  0.00  0.00    -0.266 OA
ATOM     10  C   UNL     1       9.119  -4.735  25.538  0.00  0.00    +0.128 A 
ENDROOT
BRANCH   1  11
ATOM     11  N   UNL     1       7.883  -5.949  27.178  0.00  0.00    -0.343 N 
ATOM     12  H   UNL     1       7.975  -6.867  26.755  0.00  0.00    +0.144 HD
ATOM     13  H   UNL     1       8.566  -5.825  27.926  0.00  0.00    +0.144 HD
ENDBRANCH   1  11
BRANCH  10  14
ATOM     14  N   UNL     1      10.284  -5.491  25.669  0.00  0.00    -0.351 N 
ATOM     15  H   UNL     1      10.647  -5.721  24.739  0.00  0.00    +0.143 HD
ATOM     16  H   UNL     1      10.978  -4.998  26.226  0.00  0.00    +0.143 HD
ENDBRANCH  10  14
TORSDOF 2
ENDMDL
MODEL 3
REMARK VINA RESULT:      -4.3      5.812      7.153
REMARK  Name = 
REMARK  2 active torsions:
REMARK  status: ('A' for Active; 'I' for Inactive)
REMARK    1  A    between atoms: N_1  and  C_2
REMARK    2  A    between atoms: C_3  and  N_4
REMARK                            x       y       z     vdW  Elec       q    Type
REMARK                         _______ _______ _______ _____ _____    ______ ____
ROOT
ATOM      1  C   UNL     1       8.834  -5.145  25.350  0.00  0.00    +0.124 A 
ATOM      2  N   UNL     1       8.708  -4.577  24.117  0.00  0.00    -0.295 N 
ATOM      3  H   UNL     1       9.534  -4.418  23.558  0.00  0.00    +0.172 HD
ATOM      4  C   UNL     1       7.530  -4.207  23.541  0.00  0.00    +0.328 A 
ATOM      5  O   UNL     1       7.485  -3.696  22.427  0.00  0.00    -0.247 OA
ATOM      6  N   UNL     1       6.408  -4.444  24.272  0.00  0.00    -0.273 N 
ATOM      7  H   UNL     1       5.521  -4.227  23.847  0.00  0.00    +0.173 HD
ATOM      8  C   UNL     1       6.395  -5.063  25.487  0.00  0.00    +0.277 A 
ATOM      9  O   UNL     1       5.351  -5.374  26.057  0.00  0.00    -0.266 OA
ATOM     10  C   UNL     1       7.733  -5.389  26.095  0.00  0.00    +0.128 A 
ENDROOT
BRANCH   1  11
ATOM     11  N   UNL     1      10.102  -5.437  25.815  0.00  0.00    -0.343 N 
ATOM     12  H   UNL     1      10.829  -5.052  25.220  0.00  0.00    +0.144 HD
ATOM     13  H   UNL     1      10.215  -5.117  26.778  0.00  0.00    +0.144 HD
ENDBRANCH   1  11
BRANCH  10  14
ATOM     14  N   UNL     1       7.742  -5.966  27.365  0.00  0.00    -0.351 N 
ATOM     15  H   UNL     1       8.103  -5.290  28.044  0.00  0.00    +0.143 HD
ATOM     16  H   UNL     1       6.813  -6.291  27.623  0.00  0.00    +0.143 HD
ENDBRANCH  10  14
TORSDOF 2
ENDMDL
MODEL 4
REMARK VINA RESULT:      -4.3      6.052      6.812
REMARK  Name = 
REMARK  2 active torsions:
REMARK  status: ('A' for Active; 'I' for Inactive)
REMARK    1  A    between atoms: N_1  and  C_2
REMARK    2  A    between atoms: C_3  and  N_4
REMARK                            x       y       z     vdW  Elec       q    Type
REMARK                         _______ _______ _______ _____ _____    ______ ____
ROOT
ATOM      1  C   UNL     1       8.646  -5.334  25.763  0.00  0.00    +0.124 A 
ATOM      2  N   UNL     1       8.208  -5.657  27.013  0.00  0.00    -0.295 N 
ATOM      3  H   UNL     1       8.848  -6.081  27.668  0.00  0.00    +0.172 HD
ATOM      4  C   UNL     1       6.949  -5.437  27.483  0.00  0.00    +0.328 A 
ATOM      5  O   UNL     1       6.615  -5.756  28.620  0.00  0.00    -0.247 OA
ATOM      6  N   UNL     1       6.085  -4.838  26.620  0.00  0.00    -0.273 N 
ATOM      7  H   UNL     1       5.163  -4.617  26.961  0.00  0.00    +0.173 HD
ATOM      8  C   UNL     1       6.418  -4.409  25.369  0.00  0.00    +0.277 A 
ATOM      9  O   UNL     1       5.646  -3.758  24.668  0.00  0.00    -0.266 OA
ATOM     10  C   UNL     1       7.806  -4.740  24.888  0.00  0.00    +0.128 A 
ENDROOT
BRANCH   1  11
ATOM     11  N   UNL     1       9.946  -5.650  25.418  0.00  0.00    -0.343 N 
ATOM     12  H   UNL     1      10.625  -5.218  26.038  0.00  0.00    +0.144 HD
ATOM     13  H   UNL     1      10.075  -6.662  25.388  0.00  0.00    +0.144 HD
ENDBRANCH   1  11
BRANCH  10  14
ATOM     14  N   UNL     1       8.145  -4.363  23.588  0.00  0.00    -0.351 N 
ATOM     15  H   UNL     1       8.820  -5.032  23.205  0.00  0.00    +0.143 HD
ATOM     16  H   UNL     1       7.316  -4.296  23.001  0.00  0.00    +0.143 HD
ENDBRANCH  10  14
TORSDOF 2
ENDMDL
MODEL 5
REMARK VINA RESULT:      -4.3      1.634      2.607
REMARK  Name = 
REMARK  2 active torsions:
REMARK  status: ('A' for Active; 'I' for Inactive)
REMARK    1  A    between atoms: N_1  and  C_2
REMARK    2  A    between atoms: C_3  and  N_4
REMARK                            x       y       z     vdW  Elec       q    Type
REMARK                         _______ _______ _______ _____ _____    ______ ____
ROOT
ATOM      1  C   UNL     1       9.599   2.105  24.000  0.00  0.00    +0.124 A 
ATOM      2  N   UNL     1       9.400   1.357  25.123  0.00  0.00    -0.295 N 
ATOM      3  H   UNL     1       9.165   1.818  25.990  0.00  0.00    +0.172 HD
ATOM      4  C   UNL     1       9.472  -0.002  25.182  0.00  0.00    +0.328 A 
ATOM      5  O   UNL     1       9.286  -0.616  26.227  0.00  0.00    -0.247 OA
ATOM      6  N   UNL     1       9.758  -0.637  24.013  0.00  0.00    -0.273 N 
ATOM      7  H   UNL     1       9.765  -1.644  24.020  0.00  0.00    +0.173 HD
ATOM      8  C   UNL     1       9.914  -0.008  22.813  0.00  0.00    +0.277 A 
ATOM      9  O   UNL     1      10.044  -0.627  21.758  0.00  0.00    -0.266 OA
ATOM     10  C   UNL     1       9.885   1.497  22.828  0.00  0.00    +0.128 A 
ENDROOT
BRANCH   1  11
ATOM     11  N   UNL     1       9.524   3.481  24.102  0.00  0.00    -0.343 N 
ATOM     12  H   UNL     1       8.591   3.831  23.911  0.00  0.00    +0.144 HD
ATOM     13  H   UNL     1       9.848   3.792  25.019  0.00  0.00    +0.144 HD
ENDBRANCH   1  11
BRANCH  10  14
ATOM     14  N   UNL     1      10.105   2.158  21.619  0.00  0.00    -0.351 N 
ATOM     15  H   UNL     1      10.022   3.169  21.765  0.00  0.00    +0.143 HD
ATOM     16  H   UNL     1      11.012   1.913  21.230  0.00  0.00    +0.143 HD
ENDBRANCH  10  14
TORSDOF 2
ENDMDL
MODEL 6
REMARK VINA RESULT:      -4.2      0.946      3.011
REMARK  Name = 
REMARK  2 active torsions:
REMARK  status: ('A' for Active; 'I' for Inactive)
REMARK    1  A    between atoms: N_1  and  C_2
REMARK    2  A    between atoms: C_3  and  N_4
REMARK                            x       y       z     vdW  Elec       q    Type
REMARK                         _______ _______ _______ _____ _____    ______ ____
ROOT
ATOM      1  C   UNL     1       9.973  -0.329  22.627  0.00  0.00    +0.124 A 
ATOM      2  N   UNL     1      10.220   1.011  22.607  0.00  0.00    -0.295 N 
ATOM      3  H   UNL     1      10.366   1.475  21.723  0.00  0.00    +0.172 HD
ATOM      4  C   UNL     1      10.272   1.814  23.706  0.00  0.00    +0.328 A 
ATOM      5  O   UNL     1      10.504   3.016  23.621  0.00  0.00    -0.247 OA
ATOM      6  N   UNL     1      10.046   1.207  24.902  0.00  0.00    -0.273 N 
ATOM      7  H   UNL     1      10.028   1.788  25.724  0.00  0.00    +0.173 HD
ATOM      8  C   UNL     1       9.726  -0.111  25.049  0.00  0.00    +0.277 A 
ATOM      9  O   UNL     1       9.403  -0.593  26.133  0.00  0.00    -0.266 OA
ATOM     10  C   UNL     1       9.747  -0.955  23.803  0.00  0.00    +0.128 A 
ENDROOT
BRANCH   1  11
ATOM     11  N   UNL     1       9.984  -1.020  21.430  0.00  0.00    -0.343 N 
ATOM     12  H   UNL     1      10.437  -0.496  20.687  0.00  0.00    +0.144 HD
ATOM     13  H   UNL     1      10.420  -1.935  21.546  0.00  0.00    +0.144 HD
ENDBRANCH   1  11
BRANCH  10  14
ATOM     14  N   UNL     1       9.482  -2.318  23.943  0.00  0.00    -0.351 N 
ATOM     15  H   UNL     1       9.026  -2.486  24.845  0.00  0.00    +0.143 HD
ATOM     16  H   UNL     1       8.913  -2.659  23.171  0.00  0.00    +0.143 HD
ENDBRANCH  10  14
TORSDOF 2
ENDMDL
MODEL 7
REMARK VINA RESULT:      -4.2      6.023      6.813
REMARK  Name = 
REMARK  2 active torsions:
REMARK  status: ('A' for Active; 'I' for Inactive)
REMARK    1  A    between atoms: N_1  and  C_2
REMARK    2  A    between atoms: C_3  and  N_4
REMARK                            x       y       z     vdW  Elec       q    Type
REMARK                         _______ _______ _______ _____ _____    ______ ____
ROOT
ATOM      1  C   UNL     1       6.459  -5.089  24.903  0.00  0.00    +0.124 A 
ATOM      2  N   UNL     1       6.337  -5.496  26.198  0.00  0.00    -0.295 N 
ATOM      3  H   UNL     1       5.424  -5.727  26.561  0.00  0.00    +0.172 HD
ATOM      4  C   UNL     1       7.370  -5.642  27.074  0.00  0.00    +0.328 A 
ATOM      5  O   UNL     1       7.193  -6.009  28.231  0.00  0.00    -0.247 OA
ATOM      6  N   UNL     1       8.610  -5.363  26.588  0.00  0.00    -0.273 N 
ATOM      7  H   UNL     1       9.395  -5.513  27.200  0.00  0.00    +0.173 HD
ATOM      8  C   UNL     1       8.870  -5.010  25.296  0.00  0.00    +0.277 A 
ATOM      9  O   UNL     1      10.015  -4.892  24.864  0.00  0.00    -0.266 OA
ATOM     10  C   UNL     1       7.680  -4.805  24.398  0.00  0.00    +0.128 A 
ENDROOT
BRANCH   1  11
ATOM     11  N   UNL     1       5.313  -4.956  24.143  0.00  0.00    -0.343 N 
ATOM     12  H   UNL     1       5.367  -5.473  23.271  0.00  0.00    +0.144 HD
ATOM     13  H   UNL     1       4.491  -5.235  24.679  0.00  0.00    +0.144 HD
ENDBRANCH   1  11
BRANCH  10  14
ATOM     14  N   UNL     1       7.924  -4.384  23.090  0.00  0.00    -0.351 N 
ATOM     15  H   UNL     1       7.065  -4.471  22.539  0.00  0.00    +0.143 HD
ATOM     16  H   UNL     1       8.279  -3.431  23.075  0.00  0.00    +0.143 HD
ENDBRANCH  10  14
TORSDOF 2
ENDMDL
MODEL 8
REMARK VINA RESULT:      -4.2      1.898      3.888
REMARK  Name = 
REMARK  2 active torsions:
REMARK  status: ('A' for Active; 'I' for Inactive)
REMARK    1  A    between atoms: N_1  and  C_2
REMARK    2  A    between atoms: C_3  and  N_4
REMARK                            x       y       z     vdW  Elec       q    Type
REMARK                         _______ _______ _______ _____ _____    ______ ____
ROOT
ATOM      1  C   UNL     1       9.515  -0.315  25.466  0.00  0.00    +0.124 A 
ATOM      2  N   UNL     1       9.933   0.945  25.157  0.00  0.00    -0.295 N 
ATOM      3  H   UNL     1       9.911   1.662  25.867  0.00  0.00    +0.172 HD
ATOM      4  C   UNL     1      10.411   1.336  23.943  0.00  0.00    +0.328 A 
ATOM      5  O   UNL     1      10.769   2.490  23.728  0.00  0.00    -0.247 OA
ATOM      6  N   UNL     1      10.475   0.372  22.986  0.00  0.00    -0.273 N 
ATOM      7  H   UNL     1      10.873   0.623  22.096  0.00  0.00    +0.173 HD
ATOM      8  C   UNL     1      10.148  -0.937  23.188  0.00  0.00    +0.277 A 
ATOM      9  O   UNL     1      10.341  -1.802  22.336  0.00  0.00    -0.266 OA
ATOM     10  C   UNL     1       9.567  -1.290  24.531  0.00  0.00    +0.128 A 
ENDROOT
BRANCH   1  11
ATOM     11  N   UNL     1       9.023  -0.555  26.734  0.00  0.00    -0.343 N 
ATOM     12  H   UNL     1       8.486   0.228  27.094  0.00  0.00    +0.144 HD
ATOM     13  H   UNL     1       8.469  -1.411  26.750  0.00  0.00    +0.144 HD
ENDBRANCH   1  11
BRANCH  10  14
ATOM     14  N   UNL     1       9.170  -2.612  24.735  0.00  0.00    -0.351 N 
ATOM     15  H   UNL     1       8.400  -2.636  25.411  0.00  0.00    +0.143 HD
ATOM     16  H   UNL     1       8.906  -3.052  23.857  0.00  0.00    +0.143 HD
ENDBRANCH  10  14
TORSDOF 2
ENDMDL
MODEL 9
REMARK VINA RESULT:      -4.2      2.706      3.205
REMARK  Name = 
REMARK  2 active torsions:
REMARK  status: ('A' for Active; 'I' for Inactive)
REMARK    1  A    between atoms: N_1  and  C_2
REMARK    2  A    between atoms: C_3  and  N_4
REMARK                            x       y       z     vdW  Elec       q    Type
REMARK                         _______ _______ _______ _____ _____    ______ ____
ROOT
ATOM      1  C   UNL     1       9.388   0.950  22.011  0.00  0.00    +0.124 A 
ATOM      2  N   UNL     1      10.229  -0.115  22.150  0.00  0.00    -0.295 N 
ATOM      3  H   UNL     1      11.207  -0.005  21.929  0.00  0.00    +0.172 HD
ATOM      4  C   UNL     1       9.862  -1.349  22.593  0.00  0.00    +0.328 A 
ATOM      5  O   UNL     1      10.668  -2.269  22.692  0.00  0.00    -0.247 OA
ATOM      6  N   UNL     1       8.551  -1.501  22.924  0.00  0.00    -0.273 N 
ATOM      7  H   UNL     1       8.266  -2.390  23.303  0.00  0.00    +0.173 HD
ATOM      8  C   UNL     1       7.627  -0.499  22.890  0.00  0.00    +0.277 A 
ATOM      9  O   UNL     1       6.483  -0.644  23.318  0.00  0.00    -0.266 OA
ATOM     10  C   UNL     1       8.082   0.823  22.332  0.00  0.00    +0.128 A 
ENDROOT
BRANCH   1  11
ATOM     11  N   UNL     1       9.900   2.134  21.518  0.00  0.00    -0.343 N 
ATOM     12  H   UNL     1      10.823   2.015  21.111  0.00  0.00    +0.144 HD
ATOM     13  H   UNL     1       9.258   2.551  20.843  0.00  0.00    +0.144 HD
ENDBRANCH   1  11
BRANCH  10  14
ATOM     14  N   UNL     1       7.133   1.842  22.233  0.00  0.00    -0.351 N 
ATOM     15  H   UNL     1       6.686   1.981  23.144  0.00  0.00    +0.143 HD
ATOM     16  H   UNL     1       7.558   2.702  21.892  0.00  0.00    +0.143 HD
ENDBRANCH  10  14
TORSDOF 2
ENDMDL
