MODEL 1
REMARK VINA RESULT:      -5.2      0.000      0.000
REMARK  Name = 
REMARK  13 active torsions:
REMARK  status: ('A' for Active; 'I' for Inactive)
REMARK    1  A    between atoms: O_1  and  C_2
REMARK    2  A    between atoms: C_2  and  C_4
REMARK    3  A    between atoms: C_2  and  C_10
REMARK    4  A    between atoms: C_4  and  O_5
REMARK    5  A    between atoms: O_5  and  P_6
REMARK    6  A    between atoms: P_6  and  O_7
REMARK    7  A    between atoms: P_6  and  O_8
REMARK    8  A    between atoms: C_10  and  O_12
REMARK    9  A    between atoms: C_10  and  C_13
REMARK   10  A    between atoms: C_13  and  O_15
REMARK   11  A    between atoms: C_13  and  C_16
REMARK   12  A    between atoms: C_16  and  O_18
REMARK   13  A    between atoms: C_16  and  C_19
REMARK                            x       y       z     vdW  Elec       q    Type
REMARK                         _______ _______ _______ _____ _____    ______ ____
ROOT
ATOM      1  C   UNL     1       8.554  -1.838  23.212  0.00  0.00    +0.172 C 
ENDROOT
BRANCH   1   2
ATOM      2  O   UNL     1       7.539  -1.015  23.845  0.00  0.00    -0.387 OA
ATOM      3  H   UNL     1       7.543  -0.163  23.365  0.00  0.00    +0.210 HD
ENDBRANCH   1   2
BRANCH   1   4
ATOM      4  C   UNL     1       8.978  -1.064  21.946  0.00  0.00    +0.176 C 
BRANCH   4   5
ATOM      5  O   UNL     1      10.345  -1.448  21.650  0.00  0.00    -0.386 OA
ATOM      6  H   UNL     1      10.894  -1.031  22.347  0.00  0.00    +0.210 HD
ENDBRANCH   4   5
BRANCH   4   7
ATOM      7  C   UNL     1       8.934   0.476  21.996  0.00  0.00    +0.181 C 
BRANCH   7   8
ATOM      8  O   UNL     1       8.640   0.992  20.684  0.00  0.00    -0.386 OA
ATOM      9  H   UNL     1       9.307   0.600  20.087  0.00  0.00    +0.210 HD
ENDBRANCH   7   8
BRANCH   7  10
ATOM     10  C   UNL     1      10.193   1.191  22.512  0.00  0.00    +0.208 C 
BRANCH  10  11
ATOM     11  C   UNL     1      10.053   1.621  23.966  0.00  0.00    +0.257 C 
ATOM     12  O   UNL     1       9.067   1.429  24.669  0.00  0.00    -0.298 OA
ENDBRANCH  10  11
BRANCH  10  13
ATOM     13  O   UNL     1      10.397   2.347  21.691  0.00  0.00    -0.382 OA
ATOM     14  H   UNL     1      11.346   2.355  21.462  0.00  0.00    +0.210 HD
ENDBRANCH  10  13
ENDBRANCH   7  10
ENDBRANCH   4   7
ENDBRANCH   1   4
BRANCH   1  15
ATOM     15  C   UNL     1       9.650  -2.079  24.244  0.00  0.00    +0.206 C 
BRANCH  15  16
ATOM     16  O   UNL     1      10.042  -3.435  24.109  0.00  0.00    -0.284 OA
BRANCH  16  17
ATOM     17  P   UNL     1       9.293  -4.531  25.002  0.00  0.00    +0.472 P 
ATOM     18  O   UNL     1       8.437  -4.050  26.114  0.00  0.00    -0.228 OA
BRANCH  17  19
ATOM     19  O   UNL     1      10.462  -5.539  25.397  0.00  0.00    -0.303 OA
ATOM     20  H   UNL     1      11.166  -5.076  25.883  0.00  0.00    +0.222 HD
ENDBRANCH  17  19
BRANCH  17  21
ATOM     21  O   UNL     1       8.523  -5.390  23.895  0.00  0.00    -0.303 OA
ATOM     22  H   UNL     1       8.045  -6.118  24.354  0.00  0.00    +0.222 HD
ENDBRANCH  17  21
ENDBRANCH  16  17
ENDBRANCH  15  16
ENDBRANCH   1  15
TORSDOF 13
ENDMDL
MODEL 2
REMARK VINA RESULT:      -4.9      1.291      2.045
REMARK  Name = 
REMARK  13 active torsions:
REMARK  status: ('A' for Active; 'I' for Inactive)
REMARK    1  A    between atoms: O_1  and  C_2
REMARK    2  A    between atoms: C_2  and  C_4
REMARK    3  A    between atoms: C_2  and  C_10
REMARK    4  A    between atoms: C_4  and  O_5
REMARK    5  A    between atoms: O_5  and  P_6
REMARK    6  A    between atoms: P_6  and  O_7
REMARK    7  A    between atoms: P_6  and  O_8
REMARK    8  A    between atoms: C_10  and  O_12
REMARK    9  A    between atoms: C_10  and  C_13
REMARK   10  A    between atoms: C_13  and  O_15
REMARK   11  A    between atoms: C_13  and  C_16
REMARK   12  A    between atoms: C_16  and  O_18
REMARK   13  A    between atoms: C_16  and  C_19
REMARK                            x       y       z     vdW  Elec       q    Type
REMARK                         _______ _______ _______ _____ _____    ______ ____
ROOT
ATOM      1  C   UNL     1      10.222  -1.407  22.936  0.00  0.00    +0.172 C 
ENDROOT
BRANCH   1   2
ATOM      2  O   UNL     1      10.261  -1.711  21.518  0.00  0.00    -0.387 OA
ATOM      3  H   UNL     1       9.367  -2.034  21.284  0.00  0.00    +0.210 HD
ENDBRANCH   1   2
BRANCH   1   4
ATOM      4  C   UNL     1       9.830   0.083  23.025  0.00  0.00    +0.176 C 
BRANCH   4   5
ATOM      5  O   UNL     1       9.882   0.618  21.679  0.00  0.00    -0.386 OA
ATOM      6  H   UNL     1      10.369  -0.047  21.147  0.00  0.00    +0.210 HD
ENDBRANCH   4   5
BRANCH   4   7
ATOM      7  C   UNL     1      10.687   1.001  23.918  0.00  0.00    +0.181 C 
BRANCH   7   8
ATOM      8  O   UNL     1      10.676   0.505  25.270  0.00  0.00    -0.386 OA
ATOM      9  H   UNL     1      11.487  -0.032  25.364  0.00  0.00    +0.210 HD
ENDBRANCH   7   8
BRANCH   7  10
ATOM     10  C   UNL     1      10.300   2.488  23.959  0.00  0.00    +0.208 C 
BRANCH  10  11
ATOM     11  C   UNL     1       8.830   2.689  24.306  0.00  0.00    +0.257 C 
ATOM     12  O   UNL     1       8.271   2.244  25.302  0.00  0.00    -0.298 OA
ENDBRANCH  10  11
BRANCH  10  13
ATOM     13  O   UNL     1      10.563   3.036  22.662  0.00  0.00    -0.382 OA
ATOM     14  H   UNL     1      11.435   3.470  22.721  0.00  0.00    +0.210 HD
ENDBRANCH  10  13
ENDBRANCH   7  10
ENDBRANCH   4   7
ENDBRANCH   1   4
BRANCH   1  15
ATOM     15  C   UNL     1       9.251  -2.391  23.584  0.00  0.00    +0.206 C 
BRANCH  15  16
ATOM     16  O   UNL     1      10.043  -3.395  24.195  0.00  0.00    -0.284 OA
BRANCH  16  17
ATOM     17  P   UNL     1       9.300  -4.525  25.051  0.00  0.00    +0.472 P 
ATOM     18  O   UNL     1       8.446  -4.088  26.181  0.00  0.00    -0.228 OA
BRANCH  17  19
ATOM     19  O   UNL     1      10.474  -5.542  25.406  0.00  0.00    -0.303 OA
ATOM     20  H   UNL     1      10.490  -5.729  26.360  0.00  0.00    +0.222 HD
ENDBRANCH  17  19
BRANCH  17  21
ATOM     21  O   UNL     1       8.530  -5.347  23.916  0.00  0.00    -0.303 OA
ATOM     22  H   UNL     1       7.891  -4.736  23.481  0.00  0.00    +0.222 HD
ENDBRANCH  17  21
ENDBRANCH  16  17
ENDBRANCH  15  16
ENDBRANCH   1  15
TORSDOF 13
ENDMDL
MODEL 3
REMARK VINA RESULT:      -4.9      1.366      2.011
REMARK  Name = 
REMARK  13 active torsions:
REMARK  status: ('A' for Active; 'I' for Inactive)
REMARK    1  A    between atoms: O_1  and  C_2
REMARK    2  A    between atoms: C_2  and  C_4
REMARK    3  A    between atoms: C_2  and  C_10
REMARK    4  A    between atoms: C_4  and  O_5
REMARK    5  A    between atoms: O_5  and  P_6
REMARK    6  A    between atoms: P_6  and  O_7
REMARK    7  A    between atoms: P_6  and  O_8
REMARK    8  A    between atoms: C_10  and  O_12
REMARK    9  A    between atoms: C_10  and  C_13
REMARK   10  A    between atoms: C_13  and  O_15
REMARK   11  A    between atoms: C_13  and  C_16
REMARK   12  A    between atoms: C_16  and  O_18
REMARK   13  A    between atoms: C_16  and  C_19
REMARK                            x       y       z     vdW  Elec       q    Type
REMARK                         _______ _______ _______ _____ _____    ______ ____
ROOT
ATOM      1  C   UNL     1      10.337  -1.627  22.688  0.00  0.00    +0.172 C 
ENDROOT
BRANCH   1   2
ATOM      2  O   UNL     1       9.932  -1.509  21.298  0.00  0.00    -0.387 OA
ATOM      3  H   UNL     1      10.464  -0.780  20.922  0.00  0.00    +0.210 HD
ENDBRANCH   1   2
BRANCH   1   4
ATOM      4  C   UNL     1      10.406  -0.180  23.218  0.00  0.00    +0.176 C 
BRANCH   4   5
ATOM      5  O   UNL     1      10.227  -0.244  24.656  0.00  0.00    -0.386 OA
ATOM      6  H   UNL     1       9.468   0.344  24.856  0.00  0.00    +0.210 HD
ENDBRANCH   4   5
BRANCH   4   7
ATOM      7  C   UNL     1       9.384   0.837  22.673  0.00  0.00    +0.181 C 
BRANCH   7   8
ATOM      8  O   UNL     1       9.951   1.534  21.548  0.00  0.00    -0.386 OA
ATOM      9  H   UNL     1       9.555   1.126  20.754  0.00  0.00    +0.210 HD
ENDBRANCH   7   8
BRANCH   7  10
ATOM     10  C   UNL     1       8.855   1.889  23.661  0.00  0.00    +0.208 C 
BRANCH  10  11
ATOM     11  C   UNL     1       7.812   2.799  23.027  0.00  0.00    +0.257 C 
ATOM     12  O   UNL     1       7.424   2.729  21.866  0.00  0.00    -0.298 OA
ENDBRANCH  10  11
BRANCH  10  13
ATOM     13  O   UNL     1       9.974   2.674  24.092  0.00  0.00    -0.382 OA
ATOM     14  H   UNL     1      10.556   2.069  24.589  0.00  0.00    +0.210 HD
ENDBRANCH  10  13
ENDBRANCH   7  10
ENDBRANCH   4   7
ENDBRANCH   1   4
BRANCH   1  15
ATOM     15  C   UNL     1       9.329  -2.542  23.377  0.00  0.00    +0.206 C 
BRANCH  15  16
ATOM     16  O   UNL     1      10.075  -3.403  24.220  0.00  0.00    -0.284 OA
BRANCH  16  17
ATOM     17  P   UNL     1       9.286  -4.526  25.042  0.00  0.00    +0.472 P 
ATOM     18  O   UNL     1       8.397  -4.081  26.143  0.00  0.00    -0.228 OA
BRANCH  17  19
ATOM     19  O   UNL     1      10.431  -5.561  25.435  0.00  0.00    -0.303 OA
ATOM     20  H   UNL     1      10.883  -5.282  26.249  0.00  0.00    +0.222 HD
ENDBRANCH  17  19
BRANCH  17  21
ATOM     21  O   UNL     1       8.546  -5.331  23.876  0.00  0.00    -0.303 OA
ATOM     22  H   UNL     1       8.252  -6.195  24.244  0.00  0.00    +0.222 HD
ENDBRANCH  17  21
ENDBRANCH  16  17
ENDBRANCH  15  16
ENDBRANCH   1  15
TORSDOF 13
ENDMDL
MODEL 4
REMARK VINA RESULT:      -4.9      2.427      5.818
REMARK  Name = 
REMARK  13 active torsions:
REMARK  status: ('A' for Active; 'I' for Inactive)
REMARK    1  A    between atoms: O_1  and  C_2
REMARK    2  A    between atoms: C_2  and  C_4
REMARK    3  A    between atoms: C_2  and  C_10
REMARK    4  A    between atoms: C_4  and  O_5
REMARK    5  A    between atoms: O_5  and  P_6
REMARK    6  A    between atoms: P_6  and  O_7
REMARK    7  A    between atoms: P_6  and  O_8
REMARK    8  A    between atoms: C_10  and  O_12
REMARK    9  A    between atoms: C_10  and  C_13
REMARK   10  A    between atoms: C_13  and  O_15
REMARK   11  A    between atoms: C_13  and  C_16
REMARK   12  A    between atoms: C_16  and  O_18
REMARK   13  A    between atoms: C_16  and  C_19
REMARK                            x       y       z     vdW  Elec       q    Type
REMARK                         _______ _______ _______ _____ _____    ______ ____
ROOT
ATOM      1  C   UNL     1       8.303  -1.860  22.873  0.00  0.00    +0.172 C 
ENDROOT
BRANCH   1   2
ATOM      2  O   UNL     1       7.507  -2.744  22.040  0.00  0.00    -0.387 OA
ATOM      3  H   UNL     1       8.126  -3.135  21.391  0.00  0.00    +0.210 HD
ENDBRANCH   1   2
BRANCH   1   4
ATOM      4  C   UNL     1       8.948  -2.771  23.939  0.00  0.00    +0.176 C 
BRANCH   4   5
ATOM      5  O   UNL     1      10.362  -2.853  23.629  0.00  0.00    -0.386 OA
ATOM      6  H   UNL     1      10.453  -2.521  22.712  0.00  0.00    +0.210 HD
ENDBRANCH   4   5
BRANCH   4   7
ATOM      7  C   UNL     1       8.421  -4.214  24.068  0.00  0.00    +0.181 C 
BRANCH   7   8
ATOM      8  O   UNL     1       6.994  -4.190  24.259  0.00  0.00    -0.386 OA
ATOM      9  H   UNL     1       6.815  -4.789  25.009  0.00  0.00    +0.210 HD
ENDBRANCH   7   8
BRANCH   7  10
ATOM     10  C   UNL     1       9.031  -5.079  25.181  0.00  0.00    +0.208 C 
BRANCH  10  11
ATOM     11  C   UNL     1       8.860  -4.448  26.557  0.00  0.00    +0.257 C 
ATOM     12  O   UNL     1       7.832  -4.473  27.224  0.00  0.00    -0.298 OA
ENDBRANCH  10  11
BRANCH  10  13
ATOM     13  O   UNL     1      10.427  -5.226  24.894  0.00  0.00    -0.382 OA
ATOM     14  H   UNL     1      10.678  -4.452  24.356  0.00  0.00    +0.210 HD
ENDBRANCH  10  13
ENDBRANCH   7  10
ENDBRANCH   4   7
ENDBRANCH   1   4
BRANCH   1  15
ATOM     15  C   UNL     1       9.272  -1.123  21.953  0.00  0.00    +0.206 C 
BRANCH  15  16
ATOM     16  O   UNL     1       9.670   0.051  22.643  0.00  0.00    -0.284 OA
BRANCH  16  17
ATOM     17  P   UNL     1       9.101   1.456  22.132  0.00  0.00    +0.472 P 
ATOM     18  O   UNL     1       8.157   2.183  23.016  0.00  0.00    -0.228 OA
BRANCH  17  19
ATOM     19  O   UNL     1       8.579   1.126  20.664  0.00  0.00    -0.303 OA
ATOM     20  H   UNL     1       7.859   0.473  20.693  0.00  0.00    +0.222 HD
ENDBRANCH  17  19
BRANCH  17  21
ATOM     21  O   UNL     1      10.445   2.254  21.796  0.00  0.00    -0.303 OA
ATOM     22  H   UNL     1      10.398   3.129  22.246  0.00  0.00    +0.222 HD
ENDBRANCH  17  21
ENDBRANCH  16  17
ENDBRANCH  15  16
ENDBRANCH   1  15
TORSDOF 13
ENDMDL
MODEL 5
REMARK VINA RESULT:      -4.9      2.412      5.871
REMARK  Name = 
REMARK  13 active torsions:
REMARK  status: ('A' for Active; 'I' for Inactive)
REMARK    1  A    between atoms: O_1  and  C_2
REMARK    2  A    between atoms: C_2  and  C_4
REMARK    3  A    between atoms: C_2  and  C_10
REMARK    4  A    between atoms: C_4  and  O_5
REMARK    5  A    between atoms: O_5  and  P_6
REMARK    6  A    between atoms: P_6  and  O_7
REMARK    7  A    between atoms: P_6  and  O_8
REMARK    8  A    between atoms: C_10  and  O_12
REMARK    9  A    between atoms: C_10  and  C_13
REMARK   10  A    between atoms: C_13  and  O_15
REMARK   11  A    between atoms: C_13  and  C_16
REMARK   12  A    between atoms: C_16  and  O_18
REMARK   13  A    between atoms: C_16  and  C_19
REMARK                            x       y       z     vdW  Elec       q    Type
REMARK                         _______ _______ _______ _____ _____    ______ ____
ROOT
ATOM      1  C   UNL     1       9.835  -1.288  24.579  0.00  0.00    +0.172 C 
ENDROOT
BRANCH   1   2
ATOM      2  O   UNL     1       8.475  -0.957  24.962  0.00  0.00    -0.387 OA
ATOM      3  H   UNL     1       8.543  -0.462  25.804  0.00  0.00    +0.210 HD
ENDBRANCH   1   2
BRANCH   1   4
ATOM      4  C   UNL     1       9.748  -2.682  23.923  0.00  0.00    +0.176 C 
BRANCH   4   5
ATOM      5  O   UNL     1       8.848  -2.566  22.793  0.00  0.00    -0.386 OA
ATOM      6  H   UNL     1       8.547  -1.633  22.787  0.00  0.00    +0.210 HD
ENDBRANCH   4   5
BRANCH   4   7
ATOM      7  C   UNL     1       9.248  -3.856  24.790  0.00  0.00    +0.181 C 
BRANCH   7   8
ATOM      8  O   UNL     1      10.253  -4.886  24.831  0.00  0.00    -0.386 OA
ATOM      9  H   UNL     1      10.508  -5.048  23.903  0.00  0.00    +0.210 HD
ENDBRANCH   7   8
BRANCH   7  10
ATOM     10  C   UNL     1       7.920  -4.509  24.375  0.00  0.00    +0.208 C 
BRANCH  10  11
ATOM     11  C   UNL     1       7.264  -5.257  25.528  0.00  0.00    +0.257 C 
ATOM     12  O   UNL     1       7.857  -5.732  26.491  0.00  0.00    -0.298 OA
ENDBRANCH  10  11
BRANCH  10  13
ATOM     13  O   UNL     1       8.207  -5.427  23.313  0.00  0.00    -0.382 OA
ATOM     14  H   UNL     1       8.476  -4.884  22.548  0.00  0.00    +0.210 HD
ENDBRANCH  10  13
ENDBRANCH   7  10
ENDBRANCH   4   7
ENDBRANCH   1   4
BRANCH   1  15
ATOM     15  C   UNL     1      10.340  -0.162  23.682  0.00  0.00    +0.206 C 
BRANCH  15  16
ATOM     16  O   UNL     1       9.210   0.628  23.351  0.00  0.00    -0.284 OA
BRANCH  16  17
ATOM     17  P   UNL     1       9.010   1.058  21.823  0.00  0.00    +0.472 P 
ATOM     18  O   UNL     1       7.699   1.630  21.431  0.00  0.00    -0.228 OA
BRANCH  17  19
ATOM     19  O   UNL     1       9.488  -0.230  21.018  0.00  0.00    -0.303 OA
ATOM     20  H   UNL     1       8.727  -0.697  20.632  0.00  0.00    +0.222 HD
ENDBRANCH  17  19
BRANCH  17  21
ATOM     21  O   UNL     1      10.256   2.033  21.589  0.00  0.00    -0.303 OA
ATOM     22  H   UNL     1      10.156   2.803  22.193  0.00  0.00    +0.222 HD
ENDBRANCH  17  21
ENDBRANCH  16  17
ENDBRANCH  15  16
ENDBRANCH   1  15
TORSDOF 13
ENDMDL
MODEL 6
REMARK VINA RESULT:      -4.8      1.317      2.320
REMARK  Name = 
REMARK  13 active torsions:
REMARK  status: ('A' for Active; 'I' for Inactive)
REMARK    1  A    between atoms: O_1  and  C_2
REMARK    2  A    between atoms: C_2  and  C_4
REMARK    3  A    between atoms: C_2  and  C_10
REMARK    4  A    between atoms: C_4  and  O_5
REMARK    5  A    between atoms: O_5  and  P_6
REMARK    6  A    between atoms: P_6  and  O_7
REMARK    7  A    between atoms: P_6  and  O_8
REMARK    8  A    between atoms: C_10  and  O_12
REMARK    9  A    between atoms: C_10  and  C_13
REMARK   10  A    between atoms: C_13  and  O_15
REMARK   11  A    between atoms: C_13  and  C_16
REMARK   12  A    between atoms: C_16  and  O_18
REMARK   13  A    between atoms: C_16  and  C_19
REMARK                            x       y       z     vdW  Elec       q    Type
REMARK                         _______ _______ _______ _____ _____    ______ ____
ROOT
ATOM      1  C   UNL     1       9.182  -2.111  24.255  0.00  0.00    +0.172 C 
ENDROOT
BRANCH   1   2
ATOM      2  O   UNL     1      10.172  -3.136  23.979  0.00  0.00    -0.387 OA
ATOM      3  H   UNL     1      10.530  -2.935  23.091  0.00  0.00    +0.210 HD
ENDBRANCH   1   2
BRANCH   1   4
ATOM      4  C   UNL     1       8.371  -1.963  22.950  0.00  0.00    +0.176 C 
BRANCH   4   5
ATOM      5  O   UNL     1       8.001  -3.299  22.525  0.00  0.00    -0.386 OA
ATOM      6  H   UNL     1       8.840  -3.804  22.477  0.00  0.00    +0.210 HD
ENDBRANCH   4   5
BRANCH   4   7
ATOM      7  C   UNL     1       9.052  -1.272  21.753  0.00  0.00    +0.181 C 
BRANCH   7   8
ATOM      8  O   UNL     1      10.464  -1.555  21.772  0.00  0.00    -0.386 OA
ATOM      9  H   UNL     1      10.564  -2.377  22.291  0.00  0.00    +0.210 HD
ENDBRANCH   7   8
BRANCH   7  10
ATOM     10  C   UNL     1       8.878   0.251  21.639  0.00  0.00    +0.208 C 
BRANCH  10  11
ATOM     11  C   UNL     1      10.092   1.007  22.164  0.00  0.00    +0.257 C 
ATOM     12  O   UNL     1      10.447   1.048  23.336  0.00  0.00    -0.298 OA
ENDBRANCH  10  11
BRANCH  10  13
ATOM     13  O   UNL     1       7.724   0.610  22.408  0.00  0.00    -0.382 OA
ATOM     14  H   UNL     1       7.027   0.837  21.764  0.00  0.00    +0.210 HD
ENDBRANCH  10  13
ENDBRANCH   7  10
ENDBRANCH   4   7
ENDBRANCH   1   4
BRANCH   1  15
ATOM     15  C   UNL     1       8.394  -2.560  25.482  0.00  0.00    +0.206 C 
BRANCH  15  16
ATOM     16  O   UNL     1       9.078  -3.684  26.011  0.00  0.00    -0.284 OA
BRANCH  16  17
ATOM     17  P   UNL     1       8.474  -5.138  25.728  0.00  0.00    +0.472 P 
ATOM     18  O   UNL     1       7.312  -5.239  24.812  0.00  0.00    -0.228 OA
BRANCH  17  19
ATOM     19  O   UNL     1       8.272  -5.738  27.190  0.00  0.00    -0.303 OA
ATOM     20  H   UNL     1       8.228  -6.709  27.161  0.00  0.00    +0.222 HD
ENDBRANCH  17  19
BRANCH  17  21
ATOM     21  O   UNL     1       9.768  -5.947  25.252  0.00  0.00    -0.303 OA
ATOM     22  H   UNL     1      10.561  -5.486  25.610  0.00  0.00    +0.222 HD
ENDBRANCH  17  21
ENDBRANCH  16  17
ENDBRANCH  15  16
ENDBRANCH   1  15
TORSDOF 13
ENDMDL
MODEL 7
REMARK VINA RESULT:      -4.8      1.685      2.849
REMARK  Name = 
REMARK  13 active torsions:
REMARK  status: ('A' for Active; 'I' for Inactive)
REMARK    1  A    between atoms: O_1  and  C_2
REMARK    2  A    between atoms: C_2  and  C_4
REMARK    3  A    between atoms: C_2  and  C_10
REMARK    4  A    between atoms: C_4  and  O_5
REMARK    5  A    between atoms: O_5  and  P_6
REMARK    6  A    between atoms: P_6  and  O_7
REMARK    7  A    between atoms: P_6  and  O_8
REMARK    8  A    between atoms: C_10  and  O_12
REMARK    9  A    between atoms: C_10  and  C_13
REMARK   10  A    between atoms: C_13  and  O_15
REMARK   11  A    between atoms: C_13  and  C_16
REMARK   12  A    between atoms: C_16  and  O_18
REMARK   13  A    between atoms: C_16  and  C_19
REMARK                            x       y       z     vdW  Elec       q    Type
REMARK                         _______ _______ _______ _____ _____    ______ ____
ROOT
ATOM      1  C   UNL     1       7.316  -3.318  23.769  0.00  0.00    +0.172 C 
ENDROOT
BRANCH   1   2
ATOM      2  O   UNL     1       6.906  -2.501  24.897  0.00  0.00    -0.387 OA
ATOM      3  H   UNL     1       6.899  -3.096  25.674  0.00  0.00    +0.210 HD
ENDBRANCH   1   2
BRANCH   1   4
ATOM      4  C   UNL     1       8.709  -2.789  23.366  0.00  0.00    +0.176 C 
BRANCH   4   5
ATOM      5  O   UNL     1       9.687  -3.538  24.131  0.00  0.00    -0.386 OA
ATOM      6  H   UNL     1       9.777  -4.400  23.674  0.00  0.00    +0.210 HD
ENDBRANCH   4   5
BRANCH   4   7
ATOM      7  C   UNL     1       9.002  -1.291  23.586  0.00  0.00    +0.181 C 
BRANCH   7   8
ATOM      8  O   UNL     1       7.837  -0.517  23.246  0.00  0.00    -0.386 OA
ATOM      9  H   UNL     1       7.344  -1.049  22.591  0.00  0.00    +0.210 HD
ENDBRANCH   7   8
BRANCH   7  10
ATOM     10  C   UNL     1      10.199  -0.699  22.826  0.00  0.00    +0.208 C 
BRANCH  10  11
ATOM     11  C   UNL     1       9.847   0.608  22.129  0.00  0.00    +0.257 C 
ATOM     12  O   UNL     1       9.139   0.710  21.133  0.00  0.00    -0.298 OA
ENDBRANCH  10  11
BRANCH  10  13
ATOM     13  O   UNL     1      10.608  -1.664  21.849  0.00  0.00    -0.382 OA
ATOM     14  H   UNL     1       9.789  -2.005  21.443  0.00  0.00    +0.210 HD
ENDBRANCH  10  13
ENDBRANCH   7  10
ENDBRANCH   4   7
ENDBRANCH   1   4
BRANCH   1  15
ATOM     15  C   UNL     1       7.262  -4.774  24.220  0.00  0.00    +0.206 C 
BRANCH  15  16
ATOM     16  O   UNL     1       6.817  -4.763  25.566  0.00  0.00    -0.284 OA
BRANCH  16  17
ATOM     17  P   UNL     1       7.856  -5.183  26.709  0.00  0.00    +0.472 P 
ATOM     18  O   UNL     1       7.325  -5.883  27.903  0.00  0.00    -0.228 OA
BRANCH  17  19
ATOM     19  O   UNL     1       8.661  -3.835  26.981  0.00  0.00    -0.303 OA
ATOM     20  H   UNL     1       8.051  -3.106  27.188  0.00  0.00    +0.222 HD
ENDBRANCH  17  19
BRANCH  17  21
ATOM     21  O   UNL     1       8.941  -6.013  25.879  0.00  0.00    -0.303 OA
ATOM     22  H   UNL     1       8.713  -6.968  25.953  0.00  0.00    +0.222 HD
ENDBRANCH  17  21
ENDBRANCH  16  17
ENDBRANCH  15  16
ENDBRANCH   1  15
TORSDOF 13
ENDMDL
MODEL 8
REMARK VINA RESULT:      -4.7      2.499      3.932
REMARK  Name = 
REMARK  13 active torsions:
REMARK  status: ('A' for Active; 'I' for Inactive)
REMARK    1  A    between atoms: O_1  and  C_2
REMARK    2  A    between atoms: C_2  and  C_4
REMARK    3  A    between atoms: C_2  and  C_10
REMARK    4  A    between atoms: C_4  and  O_5
REMARK    5  A    between atoms: O_5  and  P_6
REMARK    6  A    between atoms: P_6  and  O_7
REMARK    7  A    between atoms: P_6  and  O_8
REMARK    8  A    between atoms: C_10  and  O_12
REMARK    9  A    between atoms: C_10  and  C_13
REMARK   10  A    between atoms: C_13  and  O_15
REMARK   11  A    between atoms: C_13  and  C_16
REMARK   12  A    between atoms: C_16  and  O_18
REMARK   13  A    between atoms: C_16  and  C_19
REMARK                            x       y       z     vdW  Elec       q    Type
REMARK                         _______ _______ _______ _____ _____    ______ ____
ROOT
ATOM      1  C   UNL     1       9.614   1.957  22.744  0.00  0.00    +0.172 C 
ENDROOT
BRANCH   1   2
ATOM      2  O   UNL     1      10.519   2.459  21.725  0.00  0.00    -0.387 OA
ATOM      3  H   UNL     1      11.288   1.855  21.724  0.00  0.00    +0.210 HD
ENDBRANCH   1   2
BRANCH   1   4
ATOM      4  C   UNL     1       8.262   1.757  22.028  0.00  0.00    +0.176 C 
BRANCH   4   5
ATOM      5  O   UNL     1       8.550   1.201  20.720  0.00  0.00    -0.386 OA
ATOM      6  H   UNL     1       9.323   1.702  20.383  0.00  0.00    +0.210 HD
ENDBRANCH   4   5
BRANCH   4   7
ATOM      7  C   UNL     1       7.369   2.995  21.814  0.00  0.00    +0.181 C 
BRANCH   7   8
ATOM      8  O   UNL     1       8.102   4.184  22.167  0.00  0.00    -0.386 OA
ATOM      9  H   UNL     1       9.046   3.960  22.052  0.00  0.00    +0.210 HD
ENDBRANCH   7   8
BRANCH   7  10
ATOM     10  C   UNL     1       6.031   3.025  22.569  0.00  0.00    +0.208 C 
BRANCH  10  11
ATOM     11  C   UNL     1       6.114   3.841  23.852  0.00  0.00    +0.257 C 
ATOM     12  O   UNL     1       6.943   3.679  24.741  0.00  0.00    -0.298 OA
ENDBRANCH  10  11
BRANCH  10  13
ATOM     13  O   UNL     1       5.686   1.672  22.887  0.00  0.00    -0.382 OA
ATOM     14  H   UNL     1       6.528   1.180  22.935  0.00  0.00    +0.210 HD
ENDBRANCH  10  13
ENDBRANCH   7  10
ENDBRANCH   4   7
ENDBRANCH   1   4
BRANCH   1  15
ATOM     15  C   UNL     1      10.249   0.701  23.333  0.00  0.00    +0.206 C 
BRANCH  15  16
ATOM     16  O   UNL     1       9.226  -0.279  23.391  0.00  0.00    -0.284 OA
BRANCH  16  17
ATOM     17  P   UNL     1       9.535  -1.729  22.789  0.00  0.00    +0.472 P 
ATOM     18  O   UNL     1      10.291  -2.683  23.636  0.00  0.00    -0.228 OA
BRANCH  17  19
ATOM     19  O   UNL     1      10.162  -1.404  21.361  0.00  0.00    -0.303 OA
ATOM     20  H   UNL     1      10.753  -0.634  21.412  0.00  0.00    +0.222 HD
ENDBRANCH  17  19
BRANCH  17  21
ATOM     21  O   UNL     1       8.076  -2.229  22.365  0.00  0.00    -0.303 OA
ATOM     22  H   UNL     1       7.549  -1.438  22.106  0.00  0.00    +0.222 HD
ENDBRANCH  17  21
ENDBRANCH  16  17
ENDBRANCH  15  16
ENDBRANCH   1  15
TORSDOF 13
ENDMDL
MODEL 9
REMARK VINA RESULT:      -4.6      2.517      5.843
REMARK  Name = 
REMARK  13 active torsions:
REMARK  status: ('A' for Active; 'I' for Inactive)
REMARK    1  A    between atoms: O_1  and  C_2
REMARK    2  A    between atoms: C_2  and  C_4
REMARK    3  A    between atoms: C_2  and  C_10
REMARK    4  A    between atoms: C_4  and  O_5
REMARK    5  A    between atoms: O_5  and  P_6
REMARK    6  A    between atoms: P_6  and  O_7
REMARK    7  A    between atoms: P_6  and  O_8
REMARK    8  A    between atoms: C_10  and  O_12
REMARK    9  A    between atoms: C_10  and  C_13
REMARK   10  A    between atoms: C_13  and  O_15
REMARK   11  A    between atoms: C_13  and  C_16
REMARK   12  A    between atoms: C_16  and  O_18
REMARK   13  A    between atoms: C_16  and  C_19
REMARK                            x       y       z     vdW  Elec       q    Type
REMARK                         _______ _______ _______ _____ _____    ______ ____
ROOT
ATOM      1  C   UNL     1       9.250  -1.298  21.957  0.00  0.00    +0.172 C 
ENDROOT
BRANCH   1   2
ATOM      2  O   UNL     1      10.614  -1.791  21.898  0.00  0.00    -0.387 OA
ATOM      3  H   UNL     1      11.102  -1.172  21.318  0.00  0.00    +0.210 HD
ENDBRANCH   1   2
BRANCH   1   4
ATOM      4  C   UNL     1       8.793  -1.529  23.412  0.00  0.00    +0.176 C 
BRANCH   4   5
ATOM      5  O   UNL     1       9.894  -1.142  24.272  0.00  0.00    -0.386 OA
ATOM      6  H   UNL     1      10.708  -1.295  23.746  0.00  0.00    +0.210 HD
ENDBRANCH   4   5
BRANCH   4   7
ATOM      7  C   UNL     1       8.374  -2.957  23.818  0.00  0.00    +0.181 C 
BRANCH   7   8
ATOM      8  O   UNL     1       9.548  -3.734  24.122  0.00  0.00    -0.386 OA
ATOM      9  H   UNL     1       9.848  -4.109  23.272  0.00  0.00    +0.210 HD
ENDBRANCH   7   8
BRANCH   7  10
ATOM     10  C   UNL     1       7.534  -3.749  22.804  0.00  0.00    +0.208 C 
BRANCH  10  11
ATOM     11  C   UNL     1       6.112  -3.213  22.694  0.00  0.00    +0.257 C 
ATOM     12  O   UNL     1       5.242  -3.663  21.958  0.00  0.00    -0.298 OA
ENDBRANCH  10  11
BRANCH  10  13
ATOM     13  O   UNL     1       7.497  -5.110  23.248  0.00  0.00    -0.382 OA
ATOM     14  H   UNL     1       7.270  -5.646  22.464  0.00  0.00    +0.210 HD
ENDBRANCH  10  13
ENDBRANCH   7  10
ENDBRANCH   4   7
ENDBRANCH   1   4
BRANCH   1  15
ATOM     15  C   UNL     1       9.272   0.154  21.489  0.00  0.00    +0.206 C 
BRANCH  15  16
ATOM     16  O   UNL     1       8.747   0.929  22.553  0.00  0.00    -0.284 OA
BRANCH  16  17
ATOM     17  P   UNL     1       9.511   2.277  22.955  0.00  0.00    +0.472 P 
ATOM     18  O   UNL     1       8.691   3.437  23.380  0.00  0.00    -0.228 OA
BRANCH  17  19
ATOM     19  O   UNL     1      10.491   2.520  21.722  0.00  0.00    -0.303 OA
ATOM     20  H   UNL     1      10.737   1.676  21.306  0.00  0.00    +0.222 HD
ENDBRANCH  17  19
BRANCH  17  21
ATOM     21  O   UNL     1      10.545   1.754  24.056  0.00  0.00    -0.303 OA
ATOM     22  H   UNL     1      10.536   0.770  24.037  0.00  0.00    +0.222 HD
ENDBRANCH  17  21
ENDBRANCH  16  17
ENDBRANCH  15  16
ENDBRANCH   1  15
TORSDOF 13
ENDMDL
