MODEL 1
REMARK VINA RESULT:      -4.6      0.000      0.000
REMARK  Name = 
REMARK  5 active torsions:
REMARK  status: ('A' for Active; 'I' for Inactive)
REMARK    1  A    between atoms: N_1  and  CA_2
REMARK    2  A    between atoms: CA_2  and  C_4
REMARK    3  A    between atoms: CA_2  and  C_10
REMARK    4  A    between atoms: C_4  and  C_5
REMARK    5  A    between atoms: C_10  and  O_11
REMARK                            x       y       z     vdW  Elec       q    Type
REMARK                         _______ _______ _______ _____ _____    ______ ____
ROOT
ATOM      1  CA  UNL     1      12.295   5.583  24.042  0.00  0.00    +0.165 C 
ENDROOT
BRANCH   1   2
ATOM      2  N   UNL     1      12.797   6.769  24.817  0.00  0.00    -0.318 NA
ATOM      3  H1  UNL     1      12.007   7.414  24.946  0.00  0.00    +0.119 HD
ATOM      4  H2  UNL     1      12.970   6.440  25.775  0.00  0.00    +0.119 HD
ENDBRANCH   1   2
BRANCH   1   5
ATOM      5  C   UNL     1      13.216   5.384  22.829  0.00  0.00    +0.322 C 
ATOM      6  OXT UNL     1      12.884   5.510  21.662  0.00  0.00    -0.249 OA
BRANCH   5   7
ATOM      7  O   UNL     1      14.470   5.031  23.216  0.00  0.00    -0.480 OA
ATOM      8  H   UNL     1      14.443   4.046  23.333  0.00  0.00    +0.295 HD
ENDBRANCH   5   7
ENDBRANCH   1   5
BRANCH   1   9
ATOM      9  C   UNL     1      10.847   5.737  23.547  0.00  0.00    +0.072 C 
BRANCH   9  10
ATOM     10  C   UNL     1       9.966   4.592  23.961  0.00  0.00    -0.008 A 
ATOM     11  S   UNL     1       8.613   4.862  24.979  0.00  0.00    -0.102 S 
ATOM     12  C   UNL     1       8.194   3.207  24.970  0.00  0.00    +0.045 A 
ATOM     13  C   UNL     1       9.051   2.462  24.191  0.00  0.00    +0.008 A 
ATOM     14  C   UNL     1      10.073   3.262  23.605  0.00  0.00    +0.011 A 
ENDBRANCH   9  10
ENDBRANCH   1   9
TORSDOF 5
ENDMDL
MODEL 2
REMARK VINA RESULT:      -4.6      8.329      9.603
REMARK  Name = 
REMARK  5 active torsions:
REMARK  status: ('A' for Active; 'I' for Inactive)
REMARK    1  A    between atoms: N_1  and  CA_2
REMARK    2  A    between atoms: CA_2  and  C_4
REMARK    3  A    between atoms: CA_2  and  C_10
REMARK    4  A    between atoms: C_4  and  C_5
REMARK    5  A    between atoms: C_10  and  O_11
REMARK                            x       y       z     vdW  Elec       q    Type
REMARK                         _______ _______ _______ _____ _____    ______ ____
ROOT
ATOM      1  CA  UNL     1       9.148  -4.551  25.517  0.00  0.00    +0.165 C 
ENDROOT
BRANCH   1   2
ATOM      2  N   UNL     1      10.243  -5.567  25.354  0.00  0.00    -0.318 NA
ATOM      3  H1  UNL     1      10.489  -5.603  24.357  0.00  0.00    +0.119 HD
ATOM      4  H2  UNL     1      11.087  -5.157  25.773  0.00  0.00    +0.119 HD
ENDBRANCH   1   2
BRANCH   1   5
ATOM      5  C   UNL     1       7.886  -5.286  25.995  0.00  0.00    +0.322 C 
ATOM      6  OXT UNL     1       6.821  -5.319  25.400  0.00  0.00    -0.249 OA
BRANCH   5   7
ATOM      7  O   UNL     1       8.095  -5.900  27.189  0.00  0.00    -0.480 OA
ATOM      8  H   UNL     1       7.397  -6.602  27.251  0.00  0.00    +0.295 HD
ENDBRANCH   5   7
ENDBRANCH   1   5
BRANCH   1   9
ATOM      9  C   UNL     1       8.819  -3.785  24.226  0.00  0.00    +0.072 C 
BRANCH   9  10
ATOM     10  C   UNL     1       9.283  -2.356  24.262  0.00  0.00    -0.008 A 
ATOM     11  S   UNL     1      10.154  -1.692  22.942  0.00  0.00    -0.102 S 
ATOM     12  C   UNL     1      10.292  -0.175  23.713  0.00  0.00    +0.045 A 
ATOM     13  C   UNL     1       9.671  -0.161  24.941  0.00  0.00    +0.008 A 
ATOM     14  C   UNL     1       9.085  -1.420  25.258  0.00  0.00    +0.011 A 
ENDBRANCH   9  10
ENDBRANCH   1   9
TORSDOF 5
ENDMDL
MODEL 3
REMARK VINA RESULT:      -4.4      3.932      5.007
REMARK  Name = 
REMARK  5 active torsions:
REMARK  status: ('A' for Active; 'I' for Inactive)
REMARK    1  A    between atoms: N_1  and  CA_2
REMARK    2  A    between atoms: CA_2  and  C_4
REMARK    3  A    between atoms: CA_2  and  C_10
REMARK    4  A    between atoms: C_4  and  C_5
REMARK    5  A    between atoms: C_10  and  O_11
REMARK                            x       y       z     vdW  Elec       q    Type
REMARK                         _______ _______ _______ _____ _____    ______ ____
ROOT
ATOM      1  CA  UNL     1      10.179   1.429  22.238  0.00  0.00    +0.165 C 
ENDROOT
BRANCH   1   2
ATOM      2  N   UNL     1       9.121   2.027  21.355  0.00  0.00    -0.318 NA
ATOM      3  H1  UNL     1       9.571   2.303  20.472  0.00  0.00    +0.119 HD
ATOM      4  H2  UNL     1       8.516   1.252  21.058  0.00  0.00    +0.119 HD
ENDBRANCH   1   2
BRANCH   1   5
ATOM      5  C   UNL     1       9.893  -0.075  22.370  0.00  0.00    +0.322 C 
ATOM      6  OXT UNL     1       9.799  -0.686  23.422  0.00  0.00    -0.249 OA
BRANCH   5   7
ATOM      7  O   UNL     1       9.766  -0.661  21.151  0.00  0.00    -0.480 OA
ATOM      8  H   UNL     1       8.791  -0.798  21.025  0.00  0.00    +0.295 HD
ENDBRANCH   5   7
ENDBRANCH   1   5
BRANCH   1   9
ATOM      9  C   UNL     1      10.235   2.050  23.643  0.00  0.00    +0.072 C 
BRANCH   9  10
ATOM     10  C   UNL     1      10.557   3.518  23.618  0.00  0.00    -0.008 A 
ATOM     11  S   UNL     1       9.362   4.676  24.033  0.00  0.00    -0.102 S 
ATOM     12  C   UNL     1      10.438   5.976  23.771  0.00  0.00    +0.045 A 
ATOM     13  C   UNL     1      11.690   5.541  23.396  0.00  0.00    +0.008 A 
ATOM     14  C   UNL     1      11.760   4.122  23.311  0.00  0.00    +0.011 A 
ENDBRANCH   9  10
ENDBRANCH   1   9
TORSDOF 5
ENDMDL
MODEL 4
REMARK VINA RESULT:      -4.3      5.270      6.270
REMARK  Name = 
REMARK  5 active torsions:
REMARK  status: ('A' for Active; 'I' for Inactive)
REMARK    1  A    between atoms: N_1  and  CA_2
REMARK    2  A    between atoms: CA_2  and  C_4
REMARK    3  A    between atoms: CA_2  and  C_10
REMARK    4  A    between atoms: C_4  and  C_5
REMARK    5  A    between atoms: C_10  and  O_11
REMARK                            x       y       z     vdW  Elec       q    Type
REMARK                         _______ _______ _______ _____ _____    ______ ____
ROOT
ATOM      1  CA  UNL     1       9.130   0.722  22.209  0.00  0.00    +0.165 C 
ENDROOT
BRANCH   1   2
ATOM      2  N   UNL     1       8.548   1.507  21.067  0.00  0.00    -0.318 NA
ATOM      3  H1  UNL     1       8.057   0.846  20.452  0.00  0.00    +0.119 HD
ATOM      4  H2  UNL     1       7.774   2.059  21.457  0.00  0.00    +0.119 HD
ENDBRANCH   1   2
BRANCH   1   5
ATOM      5  C   UNL     1      10.219   1.581  22.870  0.00  0.00    +0.322 C 
ATOM      6  OXT UNL     1      10.744   1.349  23.946  0.00  0.00    -0.249 OA
BRANCH   5   7
ATOM      7  O   UNL     1      10.528   2.660  22.104  0.00  0.00    -0.480 OA
ATOM      8  H   UNL     1       9.736   2.808  21.525  0.00  0.00    +0.295 HD
ENDBRANCH   5   7
ENDBRANCH   1   5
BRANCH   1   9
ATOM      9  C   UNL     1       9.745  -0.621  21.783  0.00  0.00    +0.072 C 
BRANCH   9  10
ATOM     10  C   UNL     1       9.336  -1.758  22.677  0.00  0.00    -0.008 A 
ATOM     11  S   UNL     1       7.839  -2.559  22.431  0.00  0.00    -0.102 S 
ATOM     12  C   UNL     1       8.116  -3.616  23.744  0.00  0.00    +0.045 A 
ATOM     13  C   UNL     1       9.332  -3.383  24.346  0.00  0.00    +0.008 A 
ATOM     14  C   UNL     1      10.039  -2.312  23.729  0.00  0.00    +0.011 A 
ENDBRANCH   9  10
ENDBRANCH   1   9
TORSDOF 5
ENDMDL
MODEL 5
REMARK VINA RESULT:      -4.3      6.420      7.573
REMARK  Name = 
REMARK  5 active torsions:
REMARK  status: ('A' for Active; 'I' for Inactive)
REMARK    1  A    between atoms: N_1  and  CA_2
REMARK    2  A    between atoms: CA_2  and  C_4
REMARK    3  A    between atoms: CA_2  and  C_10
REMARK    4  A    between atoms: C_4  and  C_5
REMARK    5  A    between atoms: C_10  and  O_11
REMARK                            x       y       z     vdW  Elec       q    Type
REMARK                         _______ _______ _______ _____ _____    ______ ____
ROOT
ATOM      1  CA  UNL     1       9.321  -2.444  23.705  0.00  0.00    +0.165 C 
ENDROOT
BRANCH   1   2
ATOM      2  N   UNL     1       9.934  -3.653  24.352  0.00  0.00    -0.318 NA
ATOM      3  H1  UNL     1      10.764  -3.913  23.804  0.00  0.00    +0.119 HD
ATOM      4  H2  UNL     1      10.348  -3.333  25.237  0.00  0.00    +0.119 HD
ENDBRANCH   1   2
BRANCH   1   5
ATOM      5  C   UNL     1       8.068  -2.899  22.940  0.00  0.00    +0.322 C 
ATOM      6  OXT UNL     1       7.360  -2.179  22.254  0.00  0.00    -0.249 OA
BRANCH   5   7
ATOM      7  O   UNL     1       7.828  -4.222  23.130  0.00  0.00    -0.480 OA
ATOM      8  H   UNL     1       7.893  -4.364  24.110  0.00  0.00    +0.295 HD
ENDBRANCH   5   7
ENDBRANCH   1   5
BRANCH   1   9
ATOM      9  C   UNL     1      10.264  -1.721  22.729  0.00  0.00    +0.072 C 
BRANCH   9  10
ATOM     10  C   UNL     1      10.229  -0.227  22.886  0.00  0.00    -0.008 A 
ATOM     11  S   UNL     1      10.676   0.501  24.373  0.00  0.00    -0.102 S 
ATOM     12  C   UNL     1      10.383   2.071  23.767  0.00  0.00    +0.045 A 
ATOM     13  C   UNL     1       9.974   2.048  22.453  0.00  0.00    +0.008 A 
ATOM     14  C   UNL     1       9.887   0.722  21.942  0.00  0.00    +0.011 A 
ENDBRANCH   9  10
ENDBRANCH   1   9
TORSDOF 5
ENDMDL
MODEL 6
REMARK VINA RESULT:      -4.2      6.068      7.188
REMARK  Name = 
REMARK  5 active torsions:
REMARK  status: ('A' for Active; 'I' for Inactive)
REMARK    1  A    between atoms: N_1  and  CA_2
REMARK    2  A    between atoms: CA_2  and  C_4
REMARK    3  A    between atoms: CA_2  and  C_10
REMARK    4  A    between atoms: C_4  and  C_5
REMARK    5  A    between atoms: C_10  and  O_11
REMARK                            x       y       z     vdW  Elec       q    Type
REMARK                         _______ _______ _______ _____ _____    ______ ____
ROOT
ATOM      1  CA  UNL     1       9.132  -0.390  21.904  0.00  0.00    +0.165 C 
ENDROOT
BRANCH   1   2
ATOM      2  N   UNL     1      10.186  -1.377  21.488  0.00  0.00    -0.318 NA
ATOM      3  H1  UNL     1      10.995  -0.844  21.146  0.00  0.00    +0.119 HD
ATOM      4  H2  UNL     1      10.550  -1.797  22.353  0.00  0.00    +0.119 HD
ENDBRANCH   1   2
BRANCH   1   5
ATOM      5  C   UNL     1       9.830   0.937  22.240  0.00  0.00    +0.322 C 
ATOM      6  OXT UNL     1      10.499   1.150  23.238  0.00  0.00    -0.249 OA
BRANCH   5   7
ATOM      7  O   UNL     1       9.603   1.870  21.278  0.00  0.00    -0.480 OA
ATOM      8  H   UNL     1      10.127   1.570  20.491  0.00  0.00    +0.295 HD
ENDBRANCH   5   7
ENDBRANCH   1   5
BRANCH   1   9
ATOM      9  C   UNL     1       8.309  -0.841  23.121  0.00  0.00    +0.072 C 
BRANCH   9  10
ATOM     10  C   UNL     1       8.022  -2.316  23.116  0.00  0.00    -0.008 A 
ATOM     11  S   UNL     1       8.732  -3.343  24.293  0.00  0.00    -0.102 S 
ATOM     12  C   UNL     1       7.969  -4.725  23.641  0.00  0.00    +0.045 A 
ATOM     13  C   UNL     1       7.171  -4.413  22.563  0.00  0.00    +0.008 A 
ATOM     14  C   UNL     1       7.199  -3.022  22.261  0.00  0.00    +0.011 A 
ENDBRANCH   9  10
ENDBRANCH   1   9
TORSDOF 5
ENDMDL
MODEL 7
REMARK VINA RESULT:      -4.2     10.249     10.728
REMARK  Name = 
REMARK  5 active torsions:
REMARK  status: ('A' for Active; 'I' for Inactive)
REMARK    1  A    between atoms: N_1  and  CA_2
REMARK    2  A    between atoms: CA_2  and  C_4
REMARK    3  A    between atoms: CA_2  and  C_10
REMARK    4  A    between atoms: C_4  and  C_5
REMARK    5  A    between atoms: C_10  and  O_11
REMARK                            x       y       z     vdW  Elec       q    Type
REMARK                         _______ _______ _______ _____ _____    ______ ____
ROOT
ATOM      1  CA  UNL     1       7.825  -5.470  26.161  0.00  0.00    +0.165 C 
ENDROOT
BRANCH   1   2
ATOM      2  N   UNL     1       7.535  -5.940  27.558  0.00  0.00    -0.318 NA
ATOM      3  H1  UNL     1       6.538  -5.773  27.743  0.00  0.00    +0.119 HD
ATOM      4  H2  UNL     1       7.584  -6.966  27.537  0.00  0.00    +0.119 HD
ENDBRANCH   1   2
BRANCH   1   5
ATOM      5  C   UNL     1       9.103  -4.617  26.203  0.00  0.00    +0.322 C 
ATOM      6  OXT UNL     1       9.147  -3.426  26.465  0.00  0.00    -0.249 OA
BRANCH   5   7
ATOM      7  O   UNL     1      10.200  -5.357  25.896  0.00  0.00    -0.480 OA
ATOM      8  H   UNL     1      10.323  -5.253  24.917  0.00  0.00    +0.295 HD
ENDBRANCH   5   7
ENDBRANCH   1   5
BRANCH   1   9
ATOM      9  C   UNL     1       6.691  -4.638  25.541  0.00  0.00    +0.072 C 
BRANCH   9  10
ATOM     10  C   UNL     1       6.644  -4.742  24.043  0.00  0.00    -0.008 A 
ATOM     11  S   UNL     1       5.493  -3.841  23.146  0.00  0.00    -0.102 S 
ATOM     12  C   UNL     1       6.058  -4.473  21.663  0.00  0.00    +0.045 A 
ATOM     13  C   UNL     1       7.116  -5.336  21.840  0.00  0.00    +0.008 A 
ATOM     14  C   UNL     1       7.457  -5.490  23.214  0.00  0.00    +0.011 A 
ENDBRANCH   9  10
ENDBRANCH   1   9
TORSDOF 5
ENDMDL
MODEL 8
REMARK VINA RESULT:      -4.2      7.212      8.407
REMARK  Name = 
REMARK  5 active torsions:
REMARK  status: ('A' for Active; 'I' for Inactive)
REMARK    1  A    between atoms: N_1  and  CA_2
REMARK    2  A    between atoms: CA_2  and  C_4
REMARK    3  A    between atoms: CA_2  and  C_10
REMARK    4  A    between atoms: C_4  and  C_5
REMARK    5  A    between atoms: C_10  and  O_11
REMARK                            x       y       z     vdW  Elec       q    Type
REMARK                         _______ _______ _______ _____ _____    ______ ____
ROOT
ATOM      1  CA  UNL     1       8.742  -3.064  24.488  0.00  0.00    +0.165 C 
ENDROOT
BRANCH   1   2
ATOM      2  N   UNL     1       8.575  -2.603  25.908  0.00  0.00    -0.318 NA
ATOM      3  H1  UNL     1       8.992  -1.667  25.983  0.00  0.00    +0.119 HD
ATOM      4  H2  UNL     1       7.575  -2.408  26.036  0.00  0.00    +0.119 HD
ENDBRANCH   1   2
BRANCH   1   5
ATOM      5  C   UNL     1       8.705  -4.601  24.480  0.00  0.00    +0.322 C 
ATOM      6  OXT UNL     1       7.720  -5.281  24.243  0.00  0.00    -0.249 OA
BRANCH   5   7
ATOM      7  O   UNL     1       9.921  -5.124  24.784  0.00  0.00    -0.480 OA
ATOM      8  H   UNL     1      10.318  -5.391  23.914  0.00  0.00    +0.295 HD
ENDBRANCH   5   7
ENDBRANCH   1   5
BRANCH   1   9
ATOM      9  C   UNL     1      10.054  -2.595  23.837  0.00  0.00    +0.072 C 
BRANCH   9  10
ATOM     10  C   UNL     1       9.893  -1.322  23.056  0.00  0.00    -0.008 A 
ATOM     11  S   UNL     1      10.445   0.168  23.701  0.00  0.00    -0.102 S 
ATOM     12  C   UNL     1       9.928   1.032  22.321  0.00  0.00    +0.045 A 
ATOM     13  C   UNL     1       9.366   0.204  21.375  0.00  0.00    +0.008 A 
ATOM     14  C   UNL     1       9.348  -1.156  21.797  0.00  0.00    +0.011 A 
ENDBRANCH   9  10
ENDBRANCH   1   9
TORSDOF 5
ENDMDL
MODEL 9
REMARK VINA RESULT:      -4.1      4.026      4.858
REMARK  Name = 
REMARK  5 active torsions:
REMARK  status: ('A' for Active; 'I' for Inactive)
REMARK    1  A    between atoms: N_1  and  CA_2
REMARK    2  A    between atoms: CA_2  and  C_4
REMARK    3  A    between atoms: CA_2  and  C_10
REMARK    4  A    between atoms: C_4  and  C_5
REMARK    5  A    between atoms: C_10  and  O_11
REMARK                            x       y       z     vdW  Elec       q    Type
REMARK                         _______ _______ _______ _____ _____    ______ ____
ROOT
ATOM      1  CA  UNL     1       9.781   2.098  23.146  0.00  0.00    +0.165 C 
ENDROOT
BRANCH   1   2
ATOM      2  N   UNL     1      10.108   2.095  21.680  0.00  0.00    -0.318 NA
ATOM      3  H1  UNL     1      10.635   2.953  21.476  0.00  0.00    +0.119 HD
ATOM      4  H2  UNL     1      10.817   1.364  21.540  0.00  0.00    +0.119 HD
ENDBRANCH   1   2
BRANCH   1   5
ATOM      5  C   UNL     1       9.945   3.534  23.667  0.00  0.00    +0.322 C 
ATOM      6  OXT UNL     1       9.206   4.083  24.468  0.00  0.00    -0.249 OA
BRANCH   5   7
ATOM      7  O   UNL     1      11.028   4.139  23.111  0.00  0.00    -0.480 OA
ATOM      8  H   UNL     1      10.882   5.112  23.240  0.00  0.00    +0.295 HD
ENDBRANCH   5   7
ENDBRANCH   1   5
BRANCH   1   9
ATOM      9  C   UNL     1      10.673   1.162  23.979  0.00  0.00    +0.072 C 
BRANCH   9  10
ATOM     10  C   UNL     1      10.101  -0.222  24.112  0.00  0.00    -0.008 A 
ATOM     11  S   UNL     1       9.114  -0.628  25.454  0.00  0.00    -0.102 S 
ATOM     12  C   UNL     1       8.903  -2.228  24.897  0.00  0.00    +0.045 A 
ATOM     13  C   UNL     1       9.551  -2.448  23.702  0.00  0.00    +0.008 A 
ATOM     14  C   UNL     1      10.240  -1.289  23.246  0.00  0.00    +0.011 A 
ENDBRANCH   9  10
ENDBRANCH   1   9
TORSDOF 5
ENDMDL
