MODEL 1
REMARK VINA RESULT:      -6.6      0.000      0.000
REMARK  Name = 
REMARK  9 active torsions:
REMARK  status: ('A' for Active; 'I' for Inactive)
REMARK    1  A    between atoms: C_1  and  C_2
REMARK    2  A    between atoms: C_2  and  C_3
REMARK    3  A    between atoms: C_2  and  C_4
REMARK    4  A    between atoms: C_2  and  C_5
REMARK    5  A    between atoms: C_8  and  N_9
REMARK    6  A    between atoms: N_12  and  C_13
REMARK    7  A    between atoms: C_18  and  C_19
REMARK    8  A    between atoms: C_19  and  O_20
REMARK    9  A    between atoms: O_20  and  C_21
REMARK                            x       y       z     vdW  Elec       q    Type
REMARK                         _______ _______ _______ _____ _____    ______ ____
ROOT
ATOM      1  N   UNL     1       9.902   1.148  23.920  0.00  0.00    -0.254 N 
ATOM      2  H   UNL     1      10.867   1.026  23.651  0.00  0.00    +0.158 HD
ATOM      3  C   UNL     1       9.003   0.093  23.847  0.00  0.00    +0.309 C 
ATOM      4  N   UNL     1       9.604  -1.101  23.478  0.00  0.00    -0.269 N 
ATOM      5  H   UNL     1      10.610  -1.145  23.546  0.00  0.00    +0.156 HD
ATOM      6  O   UNL     1       7.809   0.226  24.106  0.00  0.00    -0.252 OA
ENDROOT
BRANCH   4   7
ATOM      7  C   UNL     1       8.919  -2.332  23.313  0.00  0.00    +0.035 A 
ATOM      8  C   UNL     1       9.126  -3.355  24.252  0.00  0.00    +0.031 A 
ATOM      9  C   UNL     1       8.376  -4.555  24.204  0.00  0.00    +0.010 A 
ATOM     10  C   UNL     1       7.472  -4.741  23.147  0.00  0.00    +0.047 A 
ATOM     11 CL   UNL     1       6.507  -6.167  22.998  0.00  0.00    -0.083 Cl
ATOM     12  C   UNL     1       7.305  -3.752  22.182  0.00  0.00    +0.022 A 
ATOM     13  C   UNL     1       8.023  -2.559  22.266  0.00  0.00    +0.025 A 
BRANCH   9  14
ATOM     14  C   UNL     1       8.523  -5.576  25.308  0.00  0.00    +0.266 C 
BRANCH  14  15
ATOM     15  O   UNL     1       8.103  -5.023  26.553  0.00  0.00    -0.486 OA
BRANCH  15  16
ATOM     16  C   UNL     1       6.751  -4.922  26.740  0.00  0.00    +0.139 A 
ATOM     17  C   UNL     1       6.268  -3.679  27.137  0.00  0.00    +0.156 A 
ATOM     18  N   UNL     1       4.957  -3.390  27.339  0.00  0.00    -0.260 NA
ATOM     19  C   UNL     1       4.082  -4.398  27.148  0.00  0.00    +0.111 A 
ATOM     20  C   UNL     1       4.459  -5.676  26.773  0.00  0.00    +0.023 A 
ATOM     21  C   UNL     1       5.813  -5.939  26.567  0.00  0.00    +0.049 A 
ENDBRANCH  15  16
ENDBRANCH  14  15
ENDBRANCH   9  14
ENDBRANCH   4   7
BRANCH   1  24
ATOM     22  C   UNL     1       9.032   4.587  24.545  0.00  0.00    +0.070 A 
ATOM     23  C   UNL     1       9.821   3.659  23.806  0.00  0.00    +0.069 A 
ATOM     24  C   UNL     1       9.475   2.417  24.286  0.00  0.00    +0.122 A 
ATOM     25  N   UNL     1       8.551   2.656  25.270  0.00  0.00    -0.264 N 
ATOM     26  H   UNL     1       8.079   1.954  25.837  0.00  0.00    +0.190 HD
ATOM     27  N   UNL     1       8.264   3.955  25.443  0.00  0.00    -0.177 NA
BRANCH  22  29
ATOM     28  C   UNL     1       8.489   6.509  23.011  0.00  0.00    +0.017 C 
ATOM     29  C   UNL     1       8.949   6.103  24.428  0.00  0.00    +0.006 C 
ATOM     30  C   UNL     1       7.954   6.703  25.440  0.00  0.00    +0.017 C 
ATOM     31  C   UNL     1      10.335   6.727  24.696  0.00  0.00    +0.017 C 
ENDBRANCH  22  29
ENDBRANCH   1  24
TORSDOF 6
ENDMDL
MODEL 2
REMARK VINA RESULT:      -6.6      3.110      9.019
REMARK  Name = 
REMARK  9 active torsions:
REMARK  status: ('A' for Active; 'I' for Inactive)
REMARK    1  A    between atoms: C_1  and  C_2
REMARK    2  A    between atoms: C_2  and  C_3
REMARK    3  A    between atoms: C_2  and  C_4
REMARK    4  A    between atoms: C_2  and  C_5
REMARK    5  A    between atoms: C_8  and  N_9
REMARK    6  A    between atoms: N_12  and  C_13
REMARK    7  A    between atoms: C_18  and  C_19
REMARK    8  A    between atoms: C_19  and  O_20
REMARK    9  A    between atoms: O_20  and  C_21
REMARK                            x       y       z     vdW  Elec       q    Type
REMARK                         _______ _______ _______ _____ _____    ______ ____
ROOT
ATOM      1  N   UNL     1       8.665  -4.136  24.872  0.00  0.00    -0.254 N 
ATOM      2  H   UNL     1       9.327  -4.682  24.342  0.00  0.00    +0.158 HD
ATOM      3  C   UNL     1       8.705  -2.747  24.848  0.00  0.00    +0.309 C 
ATOM      4  N   UNL     1       9.655  -2.252  23.968  0.00  0.00    -0.269 N 
ATOM      5  H   UNL     1      10.021  -2.897  23.283  0.00  0.00    +0.156 HD
ATOM      6  O   UNL     1       7.955  -2.055  25.532  0.00  0.00    -0.252 OA
ENDROOT
BRANCH   4   7
ATOM      7  C   UNL     1       9.919  -0.875  23.756  0.00  0.00    +0.035 A 
ATOM      8  C   UNL     1       9.272  -0.214  22.700  0.00  0.00    +0.031 A 
ATOM      9  C   UNL     1       9.405   1.183  22.521  0.00  0.00    +0.010 A 
ATOM     10  C   UNL     1      10.263   1.893  23.374  0.00  0.00    +0.047 A 
ATOM     11 CL   UNL     1      10.492   3.600  23.242  0.00  0.00    -0.083 Cl
ATOM     12  C   UNL     1      10.951   1.231  24.388  0.00  0.00    +0.022 A 
ATOM     13  C   UNL     1      10.779  -0.140  24.576  0.00  0.00    +0.025 A 
BRANCH   9  14
ATOM     14  C   UNL     1       8.587   1.885  21.461  0.00  0.00    +0.266 C 
BRANCH  14  15
ATOM     15  O   UNL     1       7.228   2.001  21.880  0.00  0.00    -0.486 OA
BRANCH  15  16
ATOM     16  C   UNL     1       6.947   3.043  22.722  0.00  0.00    +0.139 A 
ATOM     17  C   UNL     1       7.082   4.323  22.195  0.00  0.00    +0.156 A 
ATOM     18  N   UNL     1       6.819   5.468  22.874  0.00  0.00    -0.260 NA
ATOM     19  C   UNL     1       6.411   5.331  24.152  0.00  0.00    +0.111 A 
ATOM     20  C   UNL     1       6.264   4.105  24.778  0.00  0.00    +0.023 A 
ATOM     21  C   UNL     1       6.537   2.946  24.051  0.00  0.00    +0.049 A 
ENDBRANCH  15  16
ENDBRANCH  14  15
ENDBRANCH   9  14
ENDBRANCH   4   7
BRANCH   1  24
ATOM     22  C   UNL     1       6.024  -5.750  26.715  0.00  0.00    +0.070 A 
ATOM     23  C   UNL     1       6.394  -4.910  25.624  0.00  0.00    +0.069 A 
ATOM     24  C   UNL     1       7.764  -4.803  25.690  0.00  0.00    +0.122 A 
ATOM     25  N   UNL     1       8.129  -5.533  26.791  0.00  0.00    -0.264 N 
ATOM     26  H   UNL     1       9.078  -5.672  27.134  0.00  0.00    +0.190 HD
ATOM     27  N   UNL     1       7.101  -6.117  27.423  0.00  0.00    -0.177 NA
BRANCH  22  29
ATOM     28  C   UNL     1       3.692  -5.075  27.385  0.00  0.00    +0.017 C 
ATOM     29  C   UNL     1       4.650  -6.259  27.128  0.00  0.00    +0.006 C 
ATOM     30  C   UNL     1       4.020  -7.151  26.041  0.00  0.00    +0.017 C 
ATOM     31  C   UNL     1       4.765  -7.094  28.421  0.00  0.00    +0.017 C 
ENDBRANCH  22  29
ENDBRANCH   1  24
TORSDOF 6
ENDMDL
MODEL 3
REMARK VINA RESULT:      -6.5      3.447      9.997
REMARK  Name = 
REMARK  9 active torsions:
REMARK  status: ('A' for Active; 'I' for Inactive)
REMARK    1  A    between atoms: C_1  and  C_2
REMARK    2  A    between atoms: C_2  and  C_3
REMARK    3  A    between atoms: C_2  and  C_4
REMARK    4  A    between atoms: C_2  and  C_5
REMARK    5  A    between atoms: C_8  and  N_9
REMARK    6  A    between atoms: N_12  and  C_13
REMARK    7  A    between atoms: C_18  and  C_19
REMARK    8  A    between atoms: C_19  and  O_20
REMARK    9  A    between atoms: O_20  and  C_21
REMARK                            x       y       z     vdW  Elec       q    Type
REMARK                         _______ _______ _______ _____ _____    ______ ____
ROOT
ATOM      1  N   UNL     1       5.366  -4.748  22.369  0.00  0.00    -0.254 N 
ATOM      2  H   UNL     1       5.373  -4.730  21.360  0.00  0.00    +0.158 HD
ATOM      3  C   UNL     1       6.229  -3.942  23.102  0.00  0.00    +0.309 C 
ATOM      4  N   UNL     1       6.976  -3.089  22.304  0.00  0.00    -0.269 N 
ATOM      5  H   UNL     1       6.659  -2.958  21.355  0.00  0.00    +0.156 HD
ATOM      6  O   UNL     1       6.290  -3.988  24.328  0.00  0.00    -0.252 OA
ENDROOT
BRANCH   4   7
ATOM      7  C   UNL     1       7.942  -2.172  22.788  0.00  0.00    +0.035 A 
ATOM      8  C   UNL     1       7.565  -0.836  23.000  0.00  0.00    +0.031 A 
ATOM      9  C   UNL     1       8.453   0.090  23.597  0.00  0.00    +0.010 A 
ATOM     10  C   UNL     1       9.756  -0.330  23.903  0.00  0.00    +0.047 A 
ATOM     11 CL   UNL     1      10.917   0.720  24.636  0.00  0.00    -0.083 Cl
ATOM     12  C   UNL     1      10.153  -1.639  23.643  0.00  0.00    +0.022 A 
ATOM     13  C   UNL     1       9.253  -2.549  23.090  0.00  0.00    +0.025 A 
BRANCH   9  14
ATOM     14  C   UNL     1       7.970   1.480  23.938  0.00  0.00    +0.266 C 
BRANCH  14  15
ATOM     15  O   UNL     1       7.752   2.235  22.748  0.00  0.00    -0.486 OA
BRANCH  15  16
ATOM     16  C   UNL     1       7.957   3.585  22.848  0.00  0.00    +0.139 A 
ATOM     17  C   UNL     1       9.028   3.995  23.636  0.00  0.00    +0.156 A 
ATOM     18  N   UNL     1       9.396   5.288  23.824  0.00  0.00    -0.260 NA
ATOM     19  C   UNL     1       8.649   6.223  23.203  0.00  0.00    +0.111 A 
ATOM     20  C   UNL     1       7.552   5.924  22.414  0.00  0.00    +0.023 A 
ATOM     21  C   UNL     1       7.202   4.585  22.236  0.00  0.00    +0.049 A 
ENDBRANCH  15  16
ENDBRANCH  14  15
ENDBRANCH   9  14
ENDBRANCH   4   7
BRANCH   1  24
ATOM     22  C   UNL     1       2.877  -6.884  23.857  0.00  0.00    +0.070 A 
ATOM     23  C   UNL     1       3.163  -5.702  23.114  0.00  0.00    +0.069 A 
ATOM     24  C   UNL     1       4.533  -5.656  23.007  0.00  0.00    +0.122 A 
ATOM     25  N   UNL     1       4.984  -6.756  23.690  0.00  0.00    -0.264 N 
ATOM     26  H   UNL     1       5.957  -7.034  23.809  0.00  0.00    +0.190 HD
ATOM     27  N   UNL     1       4.007  -7.514  24.208  0.00  0.00    -0.177 NA
BRANCH  22  29
ATOM     28  C   UNL     1       1.132  -8.600  23.268  0.00  0.00    +0.017 C 
ATOM     29  C   UNL     1       1.535  -7.482  24.254  0.00  0.00    +0.006 C 
ATOM     30  C   UNL     1       1.574  -8.089  25.670  0.00  0.00    +0.017 C 
ATOM     31  C   UNL     1       0.445  -6.389  24.235  0.00  0.00    +0.017 C 
ENDBRANCH  22  29
ENDBRANCH   1  24
TORSDOF 6
ENDMDL
MODEL 4
REMARK VINA RESULT:      -6.5      1.510      1.838
REMARK  Name = 
REMARK  9 active torsions:
REMARK  status: ('A' for Active; 'I' for Inactive)
REMARK    1  A    between atoms: C_1  and  C_2
REMARK    2  A    between atoms: C_2  and  C_3
REMARK    3  A    between atoms: C_2  and  C_4
REMARK    4  A    between atoms: C_2  and  C_5
REMARK    5  A    between atoms: C_8  and  N_9
REMARK    6  A    between atoms: N_12  and  C_13
REMARK    7  A    between atoms: C_18  and  C_19
REMARK    8  A    between atoms: C_19  and  O_20
REMARK    9  A    between atoms: O_20  and  C_21
REMARK                            x       y       z     vdW  Elec       q    Type
REMARK                         _______ _______ _______ _____ _____    ______ ____
ROOT
ATOM      1  N   UNL     1       9.497   0.790  22.686  0.00  0.00    -0.254 N 
ATOM      2  H   UNL     1      10.328   0.543  22.170  0.00  0.00    +0.158 HD
ATOM      3  C   UNL     1       8.582  -0.181  23.072  0.00  0.00    +0.309 C 
ATOM      4  N   UNL     1       8.999  -1.467  22.760  0.00  0.00    -0.269 N 
ATOM      5  H   UNL     1       9.975  -1.586  22.534  0.00  0.00    +0.156 HD
ATOM      6  O   UNL     1       7.530   0.095  23.645  0.00  0.00    -0.252 OA
ENDROOT
BRANCH   4   7
ATOM      7  C   UNL     1       8.254  -2.643  23.028  0.00  0.00    +0.035 A 
ATOM      8  C   UNL     1       8.592  -3.421  24.146  0.00  0.00    +0.031 A 
ATOM      9  C   UNL     1       7.806  -4.535  24.527  0.00  0.00    +0.010 A 
ATOM     10  C   UNL     1       6.721  -4.901  23.718  0.00  0.00    +0.047 A 
ATOM     11 CL   UNL     1       5.697  -6.240  24.096  0.00  0.00    -0.083 Cl
ATOM     12  C   UNL     1       6.416  -4.165  22.576  0.00  0.00    +0.022 A 
ATOM     13  C   UNL     1       7.177  -3.047  22.236  0.00  0.00    +0.025 A 
BRANCH   9  14
ATOM     14  C   UNL     1       8.115  -5.266  25.813  0.00  0.00    +0.266 C 
BRANCH  14  15
ATOM     15  O   UNL     1       7.495  -4.610  26.918  0.00  0.00    -0.486 OA
BRANCH  15  16
ATOM     16  C   UNL     1       6.437  -5.265  27.487  0.00  0.00    +0.139 A 
ATOM     17  C   UNL     1       6.738  -6.390  28.248  0.00  0.00    +0.156 A 
ATOM     18  N   UNL     1       5.821  -7.143  28.908  0.00  0.00    -0.260 NA
ATOM     19  C   UNL     1       4.533  -6.761  28.792  0.00  0.00    +0.111 A 
ATOM     20  C   UNL     1       4.124  -5.670  28.044  0.00  0.00    +0.023 A 
ATOM     21  C   UNL     1       5.092  -4.914  27.382  0.00  0.00    +0.049 A 
ENDBRANCH  15  16
ENDBRANCH  14  15
ENDBRANCH   9  14
ENDBRANCH   4   7
BRANCH   1  24
ATOM     22  C   UNL     1       9.208   4.274  23.553  0.00  0.00    +0.070 A 
ATOM     23  C   UNL     1       9.897   3.040  23.734  0.00  0.00    +0.069 A 
ATOM     24  C   UNL     1       9.247   2.133  22.930  0.00  0.00    +0.122 A 
ATOM     25  N   UNL     1       8.223   2.836  22.350  0.00  0.00    -0.264 N 
ATOM     26  H   UNL     1       7.540   2.471  21.689  0.00  0.00    +0.190 HD
ATOM     27  N   UNL     1       8.180   4.129  22.706  0.00  0.00    -0.177 NA
BRANCH  22  29
ATOM     28  C   UNL     1       9.036   5.697  25.623  0.00  0.00    +0.017 C 
ATOM     29  C   UNL     1       9.495   5.645  24.150  0.00  0.00    +0.006 C 
ATOM     30  C   UNL     1      10.997   5.985  24.109  0.00  0.00    +0.017 C 
ATOM     31  C   UNL     1       8.739   6.733  23.357  0.00  0.00    +0.017 C 
ENDBRANCH  22  29
ENDBRANCH   1  24
TORSDOF 6
ENDMDL
MODEL 5
REMARK VINA RESULT:      -6.3      2.622      3.188
REMARK  Name = 
REMARK  9 active torsions:
REMARK  status: ('A' for Active; 'I' for Inactive)
REMARK    1  A    between atoms: C_1  and  C_2
REMARK    2  A    between atoms: C_2  and  C_3
REMARK    3  A    between atoms: C_2  and  C_4
REMARK    4  A    between atoms: C_2  and  C_5
REMARK    5  A    between atoms: C_8  and  N_9
REMARK    6  A    between atoms: N_12  and  C_13
REMARK    7  A    between atoms: C_18  and  C_19
REMARK    8  A    between atoms: C_19  and  O_20
REMARK    9  A    between atoms: O_20  and  C_21
REMARK                            x       y       z     vdW  Elec       q    Type
REMARK                         _______ _______ _______ _____ _____    ______ ____
ROOT
ATOM      1  N   UNL     1       9.204   0.340  23.491  0.00  0.00    -0.254 N 
ATOM      2  H   UNL     1      10.040  -0.045  23.080  0.00  0.00    +0.158 HD
ATOM      3  C   UNL     1       8.224  -0.489  24.023  0.00  0.00    +0.309 C 
ATOM      4  N   UNL     1       8.584  -1.827  24.005  0.00  0.00    -0.269 N 
ATOM      5  H   UNL     1       9.561  -2.034  23.858  0.00  0.00    +0.156 HD
ATOM      6  O   UNL     1       7.167  -0.053  24.473  0.00  0.00    -0.252 OA
ENDROOT
BRANCH   4   7
ATOM      7  C   UNL     1       7.768  -2.889  24.472  0.00  0.00    +0.035 A 
ATOM      8  C   UNL     1       6.906  -3.530  23.569  0.00  0.00    +0.031 A 
ATOM      9  C   UNL     1       6.162  -4.671  23.952  0.00  0.00    +0.010 A 
ATOM     10  C   UNL     1       6.239  -5.109  25.283  0.00  0.00    +0.047 A 
ATOM     11 CL   UNL     1       5.374  -6.493  25.852  0.00  0.00    -0.083 Cl
ATOM     12  C   UNL     1       7.050  -4.441  26.197  0.00  0.00    +0.022 A 
ATOM     13  C   UNL     1       7.807  -3.341  25.793  0.00  0.00    +0.025 A 
BRANCH   9  14
ATOM     14  C   UNL     1       5.352  -5.421  22.920  0.00  0.00    +0.266 C 
BRANCH  14  15
ATOM     15  O   UNL     1       4.124  -4.742  22.666  0.00  0.00    -0.486 OA
BRANCH  15  16
ATOM     16  C   UNL     1       3.050  -5.145  23.414  0.00  0.00    +0.139 A 
ATOM     17  C   UNL     1       2.466  -6.357  23.060  0.00  0.00    +0.156 A 
ATOM     18  N   UNL     1       1.415  -6.924  23.706  0.00  0.00    -0.260 NA
ATOM     19  C   UNL     1       0.912  -6.240  24.753  0.00  0.00    +0.111 A 
ATOM     20  C   UNL     1       1.406  -5.018  25.175  0.00  0.00    +0.023 A 
ATOM     21  C   UNL     1       2.489  -4.464  24.493  0.00  0.00    +0.049 A 
ENDBRANCH  15  16
ENDBRANCH  14  15
ENDBRANCH   9  14
ENDBRANCH   4   7
BRANCH   1  24
ATOM     22  C   UNL     1       9.053   3.937  23.621  0.00  0.00    +0.070 A 
ATOM     23  C   UNL     1       9.647   2.736  24.109  0.00  0.00    +0.069 A 
ATOM     24  C   UNL     1       9.016   1.714  23.440  0.00  0.00    +0.122 A 
ATOM     25  N   UNL     1       8.092   2.328  22.634  0.00  0.00    -0.264 N 
ATOM     26  H   UNL     1       7.449   1.866  21.994  0.00  0.00    +0.190 HD
ATOM     27  N   UNL     1       8.097   3.666  22.722  0.00  0.00    -0.177 NA
BRANCH  22  29
ATOM     28  C   UNL     1       8.553   6.341  23.063  0.00  0.00    +0.017 C 
ATOM     29  C   UNL     1       9.369   5.386  23.962  0.00  0.00    +0.006 C 
ATOM     30  C   UNL     1       9.036   5.716  25.430  0.00  0.00    +0.017 C 
ATOM     31  C   UNL     1      10.872   5.662  23.741  0.00  0.00    +0.017 C 
ENDBRANCH  22  29
ENDBRANCH   1  24
TORSDOF 6
ENDMDL
MODEL 6
REMARK VINA RESULT:      -6.3      3.243      9.514
REMARK  Name = 
REMARK  9 active torsions:
REMARK  status: ('A' for Active; 'I' for Inactive)
REMARK    1  A    between atoms: C_1  and  C_2
REMARK    2  A    between atoms: C_2  and  C_3
REMARK    3  A    between atoms: C_2  and  C_4
REMARK    4  A    between atoms: C_2  and  C_5
REMARK    5  A    between atoms: C_8  and  N_9
REMARK    6  A    between atoms: N_12  and  C_13
REMARK    7  A    between atoms: C_18  and  C_19
REMARK    8  A    between atoms: C_19  and  O_20
REMARK    9  A    between atoms: O_20  and  C_21
REMARK                            x       y       z     vdW  Elec       q    Type
REMARK                         _______ _______ _______ _____ _____    ______ ____
ROOT
ATOM      1  N   UNL     1       6.606  -5.124  23.900  0.00  0.00    -0.254 N 
ATOM      2  H   UNL     1       7.375  -5.656  24.279  0.00  0.00    +0.158 HD
ATOM      3  C   UNL     1       6.791  -3.823  23.451  0.00  0.00    +0.309 C 
ATOM      4  N   UNL     1       8.118  -3.423  23.496  0.00  0.00    -0.269 N 
ATOM      5  H   UNL     1       8.810  -4.151  23.598  0.00  0.00    +0.156 HD
ATOM      6  O   UNL     1       5.863  -3.128  23.044  0.00  0.00    -0.252 OA
ENDROOT
BRANCH   4   7
ATOM      7  C   UNL     1       8.588  -2.142  23.111  0.00  0.00    +0.035 A 
ATOM      8  C   UNL     1       8.616  -1.114  24.066  0.00  0.00    +0.031 A 
ATOM      9  C   UNL     1       9.188   0.146  23.769  0.00  0.00    +0.010 A 
ATOM     10  C   UNL     1       9.659   0.381  22.469  0.00  0.00    +0.047 A 
ATOM     11 CL   UNL     1      10.378   1.883  22.004  0.00  0.00    -0.083 Cl
ATOM     12  C   UNL     1       9.581  -0.617  21.502  0.00  0.00    +0.022 A 
ATOM     13  C   UNL     1       9.050  -1.866  21.822  0.00  0.00    +0.025 A 
BRANCH   9  14
ATOM     14  C   UNL     1       9.329   1.183  24.860  0.00  0.00    +0.266 C 
BRANCH  14  15
ATOM     15  O   UNL     1       8.104   1.894  25.028  0.00  0.00    -0.486 OA
BRANCH  15  16
ATOM     16  C   UNL     1       7.969   3.038  24.288  0.00  0.00    +0.139 A 
ATOM     17  C   UNL     1       8.695   4.145  24.716  0.00  0.00    +0.156 A 
ATOM     18  N   UNL     1       8.705   5.349  24.089  0.00  0.00    -0.260 NA
ATOM     19  C   UNL     1       7.940   5.460  22.984  0.00  0.00    +0.111 A 
ATOM     20  C   UNL     1       7.164   4.427  22.486  0.00  0.00    +0.023 A 
ATOM     21  C   UNL     1       7.180   3.200  23.150  0.00  0.00    +0.049 A 
ENDBRANCH  15  16
ENDBRANCH  14  15
ENDBRANCH   9  14
ENDBRANCH   4   7
BRANCH   1  24
ATOM     22  C   UNL     1       3.357  -6.609  24.364  0.00  0.00    +0.070 A 
ATOM     23  C   UNL     1       4.584  -6.186  24.952  0.00  0.00    +0.069 A 
ATOM     24  C   UNL     1       5.340  -5.694  23.914  0.00  0.00    +0.122 A 
ATOM     25  N   UNL     1       4.568  -5.865  22.794  0.00  0.00    -0.264 N 
ATOM     26  H   UNL     1       4.821  -5.604  21.843  0.00  0.00    +0.190 HD
ATOM     27  N   UNL     1       3.368  -6.411  23.038  0.00  0.00    -0.177 NA
BRANCH  22  29
ATOM     28  C   UNL     1       1.943  -8.678  24.613  0.00  0.00    +0.017 C 
ATOM     29  C   UNL     1       2.116  -7.199  25.020  0.00  0.00    +0.006 C 
ATOM     30  C   UNL     1       2.197  -7.136  26.558  0.00  0.00    +0.017 C 
ATOM     31  C   UNL     1       0.863  -6.414  24.577  0.00  0.00    +0.017 C 
ENDBRANCH  22  29
ENDBRANCH   1  24
TORSDOF 6
ENDMDL
MODEL 7
REMARK VINA RESULT:      -6.3      2.143      2.503
REMARK  Name = 
REMARK  9 active torsions:
REMARK  status: ('A' for Active; 'I' for Inactive)
REMARK    1  A    between atoms: C_1  and  C_2
REMARK    2  A    between atoms: C_2  and  C_3
REMARK    3  A    between atoms: C_2  and  C_4
REMARK    4  A    between atoms: C_2  and  C_5
REMARK    5  A    between atoms: C_8  and  N_9
REMARK    6  A    between atoms: N_12  and  C_13
REMARK    7  A    between atoms: C_18  and  C_19
REMARK    8  A    between atoms: C_19  and  O_20
REMARK    9  A    between atoms: O_20  and  C_21
REMARK                            x       y       z     vdW  Elec       q    Type
REMARK                         _______ _______ _______ _____ _____    ______ ____
ROOT
ATOM      1  N   UNL     1       9.163   0.830  25.109  0.00  0.00    -0.254 N 
ATOM      2  H   UNL     1       9.985   0.532  25.612  0.00  0.00    +0.158 HD
ATOM      3  C   UNL     1       8.365  -0.089  24.439  0.00  0.00    +0.309 C 
ATOM      4  N   UNL     1       8.775  -1.399  24.635  0.00  0.00    -0.269 N 
ATOM      5  H   UNL     1       9.409  -1.569  25.401  0.00  0.00    +0.156 HD
ATOM      6  O   UNL     1       7.394   0.249  23.766  0.00  0.00    -0.252 OA
ENDROOT
BRANCH   4   7
ATOM      7  C   UNL     1       8.151  -2.534  24.057  0.00  0.00    +0.035 A 
ATOM      8  C   UNL     1       7.476  -3.437  24.893  0.00  0.00    +0.031 A 
ATOM      9  C   UNL     1       6.734  -4.517  24.357  0.00  0.00    +0.010 A 
ATOM     10  C   UNL     1       6.749  -4.719  22.969  0.00  0.00    +0.047 A 
ATOM     11 CL   UNL     1       5.874  -6.004  22.213  0.00  0.00    -0.083 Cl
ATOM     12  C   UNL     1       7.464  -3.858  22.140  0.00  0.00    +0.022 A 
ATOM     13  C   UNL     1       8.157  -2.777  22.681  0.00  0.00    +0.025 A 
BRANCH   9  14
ATOM     14  C   UNL     1       5.906  -5.387  25.273  0.00  0.00    +0.266 C 
BRANCH  14  15
ATOM     15  O   UNL     1       4.543  -4.969  25.256  0.00  0.00    -0.486 OA
BRANCH  15  16
ATOM     16  C   UNL     1       3.643  -5.879  24.771  0.00  0.00    +0.139 A 
ATOM     17  C   UNL     1       3.896  -7.217  25.055  0.00  0.00    +0.156 A 
ATOM     18  N   UNL     1       3.098  -8.249  24.680  0.00  0.00    -0.260 NA
ATOM     19  C   UNL     1       1.995  -7.932  23.972  0.00  0.00    +0.111 A 
ATOM     20  C   UNL     1       1.662  -6.635  23.619  0.00  0.00    +0.023 A 
ATOM     21  C   UNL     1       2.500  -5.596  24.024  0.00  0.00    +0.049 A 
ENDBRANCH  15  16
ENDBRANCH  14  15
ENDBRANCH   9  14
ENDBRANCH   4   7
BRANCH   1  24
ATOM     22  C   UNL     1       8.734   4.368  24.586  0.00  0.00    +0.070 A 
ATOM     23  C   UNL     1       9.434   3.175  24.243  0.00  0.00    +0.069 A 
ATOM     24  C   UNL     1       8.891   2.189  25.034  0.00  0.00    +0.122 A 
ATOM     25  N   UNL     1       7.947   2.822  25.801  0.00  0.00    -0.264 N 
ATOM     26  H   UNL     1       7.347   2.386  26.500  0.00  0.00    +0.190 HD
ATOM     27  N   UNL     1       7.830   4.133  25.548  0.00  0.00    -0.177 NA
BRANCH  22  29
ATOM     28  C   UNL     1       7.941   5.946  22.791  0.00  0.00    +0.017 C 
ATOM     29  C   UNL     1       8.867   5.772  24.014  0.00  0.00    +0.006 C 
ATOM     30  C   UNL     1       8.494   6.851  25.049  0.00  0.00    +0.017 C 
ATOM     31  C   UNL     1      10.325   6.023  23.571  0.00  0.00    +0.017 C 
ENDBRANCH  22  29
ENDBRANCH   1  24
TORSDOF 6
ENDMDL
MODEL 8
REMARK VINA RESULT:      -6.2      3.535      9.475
REMARK  Name = 
REMARK  9 active torsions:
REMARK  status: ('A' for Active; 'I' for Inactive)
REMARK    1  A    between atoms: C_1  and  C_2
REMARK    2  A    between atoms: C_2  and  C_3
REMARK    3  A    between atoms: C_2  and  C_4
REMARK    4  A    between atoms: C_2  and  C_5
REMARK    5  A    between atoms: C_8  and  N_9
REMARK    6  A    between atoms: N_12  and  C_13
REMARK    7  A    between atoms: C_18  and  C_19
REMARK    8  A    between atoms: C_19  and  O_20
REMARK    9  A    between atoms: O_20  and  C_21
REMARK                            x       y       z     vdW  Elec       q    Type
REMARK                         _______ _______ _______ _____ _____    ______ ____
ROOT
ATOM      1  N   UNL     1       6.885  -4.628  22.914  0.00  0.00    -0.254 N 
ATOM      2  H   UNL     1       7.437  -5.156  22.255  0.00  0.00    +0.158 HD
ATOM      3  C   UNL     1       7.267  -3.350  23.301  0.00  0.00    +0.309 C 
ATOM      4  N   UNL     1       8.383  -2.892  22.617  0.00  0.00    -0.269 N 
ATOM      5  H   UNL     1       8.638  -3.390  21.777  0.00  0.00    +0.156 HD
ATOM      6  O   UNL     1       6.652  -2.708  24.150  0.00  0.00    -0.252 OA
ENDROOT
BRANCH   4   7
ATOM      7  C   UNL     1       8.993  -1.629  22.824  0.00  0.00    +0.035 A 
ATOM      8  C   UNL     1       8.540  -0.526  22.084  0.00  0.00    +0.031 A 
ATOM      9  C   UNL     1       9.029   0.777  22.339  0.00  0.00    +0.010 A 
ATOM     10  C   UNL     1      10.041   0.941  23.297  0.00  0.00    +0.047 A 
ATOM     11 CL   UNL     1      10.704   2.489  23.685  0.00  0.00    -0.083 Cl
ATOM     12  C   UNL     1      10.534  -0.160  23.994  0.00  0.00    +0.022 A 
ATOM     13  C   UNL     1      10.014  -1.432  23.758  0.00  0.00    +0.025 A 
BRANCH   9  14
ATOM     14  C   UNL     1       8.421   1.961  21.623  0.00  0.00    +0.266 C 
BRANCH  14  15
ATOM     15  O   UNL     1       7.022   2.037  21.891  0.00  0.00    -0.486 OA
BRANCH  15  16
ATOM     16  C   UNL     1       6.546   3.272  22.241  0.00  0.00    +0.139 A 
ATOM     17  C   UNL     1       5.183   3.361  22.505  0.00  0.00    +0.156 A 
ATOM     18  N   UNL     1       4.545   4.495  22.892  0.00  0.00    -0.260 NA
ATOM     19  C   UNL     1       5.304   5.603  23.009  0.00  0.00    +0.111 A 
ATOM     20  C   UNL     1       6.664   5.627  22.751  0.00  0.00    +0.023 A 
ATOM     21  C   UNL     1       7.291   4.444  22.360  0.00  0.00    +0.049 A 
ENDBRANCH  15  16
ENDBRANCH  14  15
ENDBRANCH   9  14
ENDBRANCH   4   7
BRANCH   1  24
ATOM     22  C   UNL     1       3.818  -6.153  24.030  0.00  0.00    +0.070 A 
ATOM     23  C   UNL     1       4.506  -5.434  23.009  0.00  0.00    +0.069 A 
ATOM     24  C   UNL     1       5.780  -5.241  23.488  0.00  0.00    +0.122 A 
ATOM     25  N   UNL     1       5.785  -5.808  24.736  0.00  0.00    -0.264 N 
ATOM     26  H   UNL     1       6.576  -5.849  25.377  0.00  0.00    +0.190 HD
ATOM     27  N   UNL     1       4.617  -6.368  25.084  0.00  0.00    -0.177 NA
BRANCH  22  29
ATOM     28  C   UNL     1       1.473  -5.730  24.843  0.00  0.00    +0.017 C 
ATOM     29  C   UNL     1       2.392  -6.686  24.053  0.00  0.00    +0.006 C 
ATOM     30  C   UNL     1       1.814  -6.834  22.632  0.00  0.00    +0.017 C 
ATOM     31  C   UNL     1       2.360  -8.074  24.727  0.00  0.00    +0.017 C 
ENDBRANCH  22  29
ENDBRANCH   1  24
TORSDOF 6
ENDMDL
MODEL 9
REMARK VINA RESULT:      -6.2      3.405      9.642
REMARK  Name = 
REMARK  9 active torsions:
REMARK  status: ('A' for Active; 'I' for Inactive)
REMARK    1  A    between atoms: C_1  and  C_2
REMARK    2  A    between atoms: C_2  and  C_3
REMARK    3  A    between atoms: C_2  and  C_4
REMARK    4  A    between atoms: C_2  and  C_5
REMARK    5  A    between atoms: C_8  and  N_9
REMARK    6  A    between atoms: N_12  and  C_13
REMARK    7  A    between atoms: C_18  and  C_19
REMARK    8  A    between atoms: C_19  and  O_20
REMARK    9  A    between atoms: O_20  and  C_21
REMARK                            x       y       z     vdW  Elec       q    Type
REMARK                         _______ _______ _______ _____ _____    ______ ____
ROOT
ATOM      1  N   UNL     1       5.766  -1.947  22.985  0.00  0.00    -0.254 N 
ATOM      2  H   UNL     1       5.104  -1.635  22.291  0.00  0.00    +0.158 HD
ATOM      3  C   UNL     1       6.895  -1.195  23.282  0.00  0.00    +0.309 C 
ATOM      4  N   UNL     1       6.926   0.018  22.609  0.00  0.00    -0.269 N 
ATOM      5  H   UNL     1       6.060   0.332  22.197  0.00  0.00    +0.156 HD
ATOM      6  O   UNL     1       7.752  -1.578  24.075  0.00  0.00    -0.252 OA
ENDROOT
BRANCH   4   7
ATOM      7  C   UNL     1       7.969   0.972  22.715  0.00  0.00    +0.035 A 
ATOM      8  C   UNL     1       7.814   2.052  23.599  0.00  0.00    +0.031 A 
ATOM      9  C   UNL     1       8.871   2.963  23.834  0.00  0.00    +0.010 A 
ATOM     10  C   UNL     1      10.059   2.817  23.103  0.00  0.00    +0.047 A 
ATOM     11 CL   UNL     1      11.410   3.873  23.316  0.00  0.00    -0.083 Cl
ATOM     12  C   UNL     1      10.197   1.781  22.183  0.00  0.00    +0.022 A 
ATOM     13  C   UNL     1       9.159   0.868  21.992  0.00  0.00    +0.025 A 
BRANCH   9  14
ATOM     14  C   UNL     1       8.721   4.030  24.893  0.00  0.00    +0.266 C 
BRANCH  14  15
ATOM     15  O   UNL     1       8.821   5.327  24.308  0.00  0.00    -0.486 OA
BRANCH  15  16
ATOM     16  C   UNL     1       7.679   5.812  23.728  0.00  0.00    +0.139 A 
ATOM     17  C   UNL     1       7.825   6.432  22.491  0.00  0.00    +0.156 A 
ATOM     18  N   UNL     1       6.802   6.944  21.760  0.00  0.00    -0.260 NA
ATOM     19  C   UNL     1       5.569   6.844  22.297  0.00  0.00    +0.111 A 
ATOM     20  C   UNL     1       5.318   6.265  23.529  0.00  0.00    +0.023 A 
ATOM     21  C   UNL     1       6.390   5.743  24.253  0.00  0.00    +0.049 A 
ENDBRANCH  15  16
ENDBRANCH  14  15
ENDBRANCH   9  14
ENDBRANCH   4   7
BRANCH   1  24
ATOM     22  C   UNL     1       4.857  -5.017  24.635  0.00  0.00    +0.070 A 
ATOM     23  C   UNL     1       4.519  -3.666  24.331  0.00  0.00    +0.069 A 
ATOM     24  C   UNL     1       5.565  -3.185  23.579  0.00  0.00    +0.122 A 
ATOM     25  N   UNL     1       6.456  -4.224  23.496  0.00  0.00    -0.264 N 
ATOM     26  H   UNL     1       7.348  -4.215  23.004  0.00  0.00    +0.190 HD
ATOM     27  N   UNL     1       6.052  -5.339  24.120  0.00  0.00    -0.177 NA
BRANCH  22  29
ATOM     28  C   UNL     1       3.607  -7.196  24.455  0.00  0.00    +0.017 C 
ATOM     29  C   UNL     1       4.067  -6.067  25.404  0.00  0.00    +0.006 C 
ATOM     30  C   UNL     1       4.905  -6.705  26.529  0.00  0.00    +0.017 C 
ATOM     31  C   UNL     1       2.821  -5.422  26.046  0.00  0.00    +0.017 C 
ENDBRANCH  22  29
ENDBRANCH   1  24
TORSDOF 6
ENDMDL
