MODEL 1
REMARK VINA RESULT:      -7.2      0.000      0.000
REMARK  Name = 
REMARK  8 active torsions:
REMARK  status: ('A' for Active; 'I' for Inactive)
REMARK    1  A    between atoms: CA_6  and  C_27
REMARK    2  A    between atoms: CA_10  and  N_12
REMARK    3  A    between atoms: C_13  and  C_15
REMARK    4  A    between atoms: C_15  and  C_21
REMARK    5  A    between atoms: C_16  and  C_17
REMARK    6  A    between atoms: C_17  and  C_18
REMARK    7  A    between atoms: C_18  and  O_19
REMARK    8  A    between atoms: C_27  and  O_28
REMARK                            x       y       z     vdW  Elec       q    Type
REMARK                         _______ _______ _______ _____ _____    ______ ____
ROOT
ATOM      1  N   UNK A   2       7.994  -3.031  24.876  0.00  0.00    -0.298 N 
ATOM      2  H   ACE A   1       7.209  -2.377  24.947  0.00  0.00    +0.150 HD
ATOM      3  C   UNK A   0       7.657  -4.337  24.611  0.00  0.00    +0.247 C 
ATOM      4  O   UNK A   0       8.516  -5.189  24.381  0.00  0.00    -0.270 OA
ENDROOT
BRANCH   1   6
ATOM      5  C   UNK A   2       9.831  -1.854  23.421  0.00  0.00    +0.169 C 
ATOM      6  C   UNK A   2       9.374  -2.488  24.778  0.00  0.00    +0.191 C 
ATOM      7  C   UNK A   2       9.526  -1.008  25.316  0.00  0.00    +0.244 C 
ATOM      8  O   UNK A   2       9.443  -0.388  26.357  0.00  0.00    -0.273 OA
ATOM      9  N   UNK A   2       9.704  -0.553  24.063  0.00  0.00    -0.249 N 
ATOM     10  C   UNK A   2       9.773   0.632  23.400  0.00  0.00    +0.119 C 
ATOM     11  C   UNK A   2       9.673   0.649  22.053  0.00  0.00    +0.014 C 
ATOM     12  C   UNK A   2       9.422  -0.524  21.152  0.00  0.00    +0.100 C 
ATOM     13  S   UNK A   2       8.682  -1.931  22.022  0.00  0.00    -0.131 S 
BRANCH  10  14
ATOM     14  C   UNK A   2       9.900   1.972  24.071  0.00  0.00    +0.351 C 
ATOM     15  O   UNK A   2      10.760   2.785  23.759  0.00  0.00    -0.244 OA
BRANCH  14  16
ATOM     16  O   UNK A   2       9.039   2.233  25.072  0.00  0.00    -0.476 OA
ATOM     17  H   UNK A   2       8.100   2.389  24.830  0.00  0.00    +0.295 HD
ENDBRANCH  14  16
ENDBRANCH  10  14
ENDBRANCH   1   6
BRANCH   3  18
ATOM     18  C   UNK A   0       6.170  -4.654  24.536  0.00  0.00    +0.059 C 
ATOM     19  C   UNK A   0       5.514  -4.534  23.355  0.00  0.00    -0.001 C 
BRANCH  18  20
ATOM     20  C   UNK A   0       5.477  -5.085  25.733  0.00  0.00    +0.085 A 
ATOM     21  N   UNK A   0       5.933  -6.196  26.427  0.00  0.00    -0.225 NA
ATOM     22  C   UNK A   0       5.137  -6.467  27.432  0.00  0.00    +0.156 A 
ATOM     23  N   UNK A   0       5.317  -7.517  28.241  0.00  0.00    -0.338 N 
ATOM     24  H   UNK A   0       6.221  -7.977  28.227  0.00  0.00    +0.144 HD
ATOM     25  H   UNK A   0       4.850  -7.533  29.139  0.00  0.00    +0.144 HD
ATOM     26  S   UNK A   0       3.822  -5.386  27.639  0.00  0.00    -0.060 S 
ATOM     27  C   UNK A   0       4.333  -4.511  26.256  0.00  0.00    +0.077 A 
ENDBRANCH  18  20
BRANCH  19  28
ATOM     28  C   UNK A   0       6.003  -4.250  21.957  0.00  0.00    +0.148 C 
BRANCH  28  29
ATOM     29  C   UNK A   0       6.446  -5.445  21.131  0.00  0.00    +0.309 C 
ATOM     30  O   UNK A   0       6.068  -5.650  19.985  0.00  0.00    -0.251 OA
BRANCH  29  31
ATOM     31  O   UNK A   0       7.274  -6.293  21.774  0.00  0.00    -0.480 OA
ATOM     32  H   UNK A   0       6.967  -7.233  21.737  0.00  0.00    +0.295 HD
ENDBRANCH  29  31
ENDBRANCH  28  29
ENDBRANCH  19  28
ENDBRANCH   3  18
TORSDOF 8
ENDMDL
MODEL 2
REMARK VINA RESULT:      -6.8      3.181      7.429
REMARK  Name = 
REMARK  8 active torsions:
REMARK  status: ('A' for Active; 'I' for Inactive)
REMARK    1  A    between atoms: CA_6  and  C_27
REMARK    2  A    between atoms: CA_10  and  N_12
REMARK    3  A    between atoms: C_13  and  C_15
REMARK    4  A    between atoms: C_15  and  C_21
REMARK    5  A    between atoms: C_16  and  C_17
REMARK    6  A    between atoms: C_17  and  C_18
REMARK    7  A    between atoms: C_18  and  O_19
REMARK    8  A    between atoms: C_27  and  O_28
REMARK                            x       y       z     vdW  Elec       q    Type
REMARK                         _______ _______ _______ _____ _____    ______ ____
ROOT
ATOM      1  N   UNK A   2       7.267  -0.436  23.924  0.00  0.00    -0.298 N 
ATOM      2  H   ACE A   1       7.294  -0.461  22.901  0.00  0.00    +0.150 HD
ATOM      3  C   UNK A   0       7.743   0.717  24.502  0.00  0.00    +0.247 C 
ATOM      4  O   UNK A   0       7.649   0.914  25.714  0.00  0.00    -0.270 OA
ENDROOT
BRANCH   1   6
ATOM      5  C   UNK A   2       6.182  -2.823  23.912  0.00  0.00    +0.169 C 
ATOM      6  C   UNK A   2       6.487  -1.473  24.647  0.00  0.00    +0.191 C 
ATOM      7  C   UNK A   2       7.357  -2.392  25.596  0.00  0.00    +0.244 C 
ATOM      8  O   UNK A   2       8.026  -2.310  26.606  0.00  0.00    -0.273 OA
ATOM      9  N   UNK A   2       7.189  -3.437  24.767  0.00  0.00    -0.249 N 
ATOM     10  C   UNK A   2       7.670  -4.697  24.589  0.00  0.00    +0.119 C 
ATOM     11  C   UNK A   2       7.441  -5.340  23.424  0.00  0.00    +0.014 C 
ATOM     12  C   UNK A   2       6.742  -4.794  22.214  0.00  0.00    +0.100 C 
ATOM     13  S   UNK A   2       6.703  -2.982  22.185  0.00  0.00    -0.131 S 
BRANCH  10  14
ATOM     14  C   UNK A   2       8.509  -5.432  25.598  0.00  0.00    +0.351 C 
ATOM     15  O   UNK A   2       8.099  -5.710  26.718  0.00  0.00    -0.244 OA
BRANCH  14  16
ATOM     16  O   UNK A   2       9.764  -5.748  25.228  0.00  0.00    -0.476 OA
ATOM     17  H   UNK A   2      10.481  -5.576  25.875  0.00  0.00    +0.295 HD
ENDBRANCH  14  16
ENDBRANCH  10  14
ENDBRANCH   1   6
BRANCH   3  18
ATOM     18  C   UNK A   0       8.314   1.766  23.559  0.00  0.00    +0.059 C 
ATOM     19  C   UNK A   0       9.575   1.625  23.079  0.00  0.00    -0.001 C 
BRANCH  18  20
ATOM     20  C   UNK A   0       7.496   2.900  23.182  0.00  0.00    +0.085 A 
ATOM     21  N   UNK A   0       8.041   3.912  22.406  0.00  0.00    -0.225 NA
ATOM     22  C   UNK A   0       7.172   4.877  22.234  0.00  0.00    +0.156 A 
ATOM     23  N   UNK A   0       7.453   5.999  21.562  0.00  0.00    -0.338 N 
ATOM     24  H   UNK A   0       8.275   6.003  20.969  0.00  0.00    +0.144 HD
ATOM     25  H   UNK A   0       6.692   6.580  21.231  0.00  0.00    +0.144 HD
ATOM     26  S   UNK A   0       5.635   4.615  22.947  0.00  0.00    -0.060 S 
ATOM     27  C   UNK A   0       6.186   3.115  23.567  0.00  0.00    +0.077 A 
ENDBRANCH  18  20
BRANCH  19  28
ATOM     28  C   UNK A   0      10.573   0.499  23.189  0.00  0.00    +0.148 C 
BRANCH  28  29
ATOM     29  C   UNK A   0      10.175  -0.831  22.573  0.00  0.00    +0.309 C 
ATOM     30  O   UNK A   0      10.108  -1.875  23.208  0.00  0.00    -0.251 OA
BRANCH  29  31
ATOM     31  O   UNK A   0       9.927  -0.782  21.249  0.00  0.00    -0.480 OA
ATOM     32  H   UNK A   0       9.436   0.033  20.980  0.00  0.00    +0.295 HD
ENDBRANCH  29  31
ENDBRANCH  28  29
ENDBRANCH  19  28
ENDBRANCH   3  18
TORSDOF 8
ENDMDL
MODEL 3
REMARK VINA RESULT:      -6.7      2.452      3.449
REMARK  Name = 
REMARK  8 active torsions:
REMARK  status: ('A' for Active; 'I' for Inactive)
REMARK    1  A    between atoms: CA_6  and  C_27
REMARK    2  A    between atoms: CA_10  and  N_12
REMARK    3  A    between atoms: C_13  and  C_15
REMARK    4  A    between atoms: C_15  and  C_21
REMARK    5  A    between atoms: C_16  and  C_17
REMARK    6  A    between atoms: C_17  and  C_18
REMARK    7  A    between atoms: C_18  and  O_19
REMARK    8  A    between atoms: C_27  and  O_28
REMARK                            x       y       z     vdW  Elec       q    Type
REMARK                         _______ _______ _______ _____ _____    ______ ____
ROOT
ATOM      1  N   UNK A   2       6.776  -2.578  23.847  0.00  0.00    -0.298 N 
ATOM      2  H   ACE A   1       6.348  -2.383  24.756  0.00  0.00    +0.150 HD
ATOM      3  C   UNK A   0       6.798  -3.900  23.472  0.00  0.00    +0.247 C 
ATOM      4  O   UNK A   0       7.174  -4.245  22.351  0.00  0.00    -0.270 OA
ENDROOT
BRANCH   1   6
ATOM      5  C   UNK A   2       6.816   0.014  23.449  0.00  0.00    +0.169 C 
ATOM      6  C   UNK A   2       7.059  -1.444  22.929  0.00  0.00    +0.191 C 
ATOM      7  C   UNK A   2       8.574  -0.993  22.905  0.00  0.00    +0.244 C 
ATOM      8  O   UNK A   2       9.663  -1.420  22.579  0.00  0.00    -0.273 OA
ATOM      9  N   UNK A   2       8.263   0.147  23.548  0.00  0.00    -0.249 N 
ATOM     10  C   UNK A   2       8.890   1.190  24.154  0.00  0.00    +0.119 C 
ATOM     11  C   UNK A   2       8.185   2.018  24.956  0.00  0.00    +0.014 C 
ATOM     12  C   UNK A   2       6.738   1.892  25.332  0.00  0.00    +0.100 C 
ATOM     13  S   UNK A   2       6.095   0.214  25.099  0.00  0.00    -0.131 S 
BRANCH  10  14
ATOM     14  C   UNK A   2      10.363   1.472  24.043  0.00  0.00    +0.351 C 
ATOM     15  O   UNK A   2      11.210   0.764  24.571  0.00  0.00    -0.244 OA
BRANCH  14  16
ATOM     16  O   UNK A   2      10.719   2.575  23.357  0.00  0.00    -0.476 OA
ATOM     17  H   UNK A   2      11.653   2.639  23.060  0.00  0.00    +0.295 HD
ENDBRANCH  14  16
ENDBRANCH  10  14
ENDBRANCH   1   6
BRANCH   3  18
ATOM     18  C   UNK A   0       6.257  -4.902  24.482  0.00  0.00    +0.059 C 
ATOM     19  C   UNK A   0       6.974  -5.188  25.598  0.00  0.00    -0.001 C 
BRANCH  18  20
ATOM     20  C   UNK A   0       4.977  -5.534  24.237  0.00  0.00    +0.085 A 
ATOM     21  N   UNK A   0       4.585  -6.615  25.013  0.00  0.00    -0.225 NA
ATOM     22  C   UNK A   0       3.438  -7.089  24.593  0.00  0.00    +0.156 A 
ATOM     23  N   UNK A   0       2.852  -8.163  25.134  0.00  0.00    -0.338 N 
ATOM     24  H   UNK A   0       3.179  -8.475  26.042  0.00  0.00    +0.144 HD
ATOM     25  H   UNK A   0       1.867  -8.326  24.963  0.00  0.00    +0.144 HD
ATOM     26  S   UNK A   0       2.733  -6.245  23.277  0.00  0.00    -0.060 S 
ATOM     27  C   UNK A   0       4.083  -5.190  23.240  0.00  0.00    +0.077 A 
ENDBRANCH  18  20
BRANCH  19  28
ATOM     28  C   UNK A   0       8.238  -4.588  26.162  0.00  0.00    +0.148 C 
BRANCH  28  29
ATOM     29  C   UNK A   0       9.522  -4.848  25.393  0.00  0.00    +0.309 C 
ATOM     30  O   UNK A   0       9.985  -4.069  24.572  0.00  0.00    -0.251 OA
BRANCH  29  31
ATOM     31  O   UNK A   0      10.104  -6.034  25.663  0.00  0.00    -0.480 OA
ATOM     32  H   UNK A   0      10.154  -6.627  24.873  0.00  0.00    +0.295 HD
ENDBRANCH  29  31
ENDBRANCH  28  29
ENDBRANCH  19  28
ENDBRANCH   3  18
TORSDOF 8
ENDMDL
MODEL 4
REMARK VINA RESULT:      -6.6      3.385      8.423
REMARK  Name = 
REMARK  8 active torsions:
REMARK  status: ('A' for Active; 'I' for Inactive)
REMARK    1  A    between atoms: CA_6  and  C_27
REMARK    2  A    between atoms: CA_10  and  N_12
REMARK    3  A    between atoms: C_13  and  C_15
REMARK    4  A    between atoms: C_15  and  C_21
REMARK    5  A    between atoms: C_16  and  C_17
REMARK    6  A    between atoms: C_17  and  C_18
REMARK    7  A    between atoms: C_18  and  O_19
REMARK    8  A    between atoms: C_27  and  O_28
REMARK                            x       y       z     vdW  Elec       q    Type
REMARK                         _______ _______ _______ _____ _____    ______ ____
ROOT
ATOM      1  N   UNK A   2       9.346   0.886  23.852  0.00  0.00    -0.298 N 
ATOM      2  H   ACE A   1       8.993   1.270  24.732  0.00  0.00    +0.150 HD
ATOM      3  C   UNK A   0       9.629   1.808  22.872  0.00  0.00    +0.247 C 
ATOM      4  O   UNK A   0      10.173   1.479  21.818  0.00  0.00    -0.270 OA
ENDROOT
BRANCH   1   6
ATOM      5  C   UNK A   2       9.209  -1.518  24.891  0.00  0.00    +0.169 C 
ATOM      6  C   UNK A   2       9.779  -0.535  23.812  0.00  0.00    +0.191 C 
ATOM      7  C   UNK A   2       8.949  -1.436  22.810  0.00  0.00    +0.244 C 
ATOM      8  O   UNK A   2       8.746  -1.551  21.619  0.00  0.00    -0.273 OA
ATOM      9  N   UNK A   2       8.367  -2.075  23.841  0.00  0.00    -0.249 N 
ATOM     10  C   UNK A   2       7.355  -2.955  24.065  0.00  0.00    +0.119 C 
ATOM     11  C   UNK A   2       6.893  -3.133  25.322  0.00  0.00    +0.014 C 
ATOM     12  C   UNK A   2       7.332  -2.404  26.557  0.00  0.00    +0.100 C 
ATOM     13  S   UNK A   2       8.149  -0.828  26.187  0.00  0.00    -0.131 S 
BRANCH  10  14
ATOM     14  C   UNK A   2       6.651  -3.729  22.985  0.00  0.00    +0.351 C 
ATOM     15  O   UNK A   2       5.431  -3.752  22.881  0.00  0.00    -0.244 OA
BRANCH  14  16
ATOM     16  O   UNK A   2       7.426  -4.437  22.143  0.00  0.00    -0.476 OA
ATOM     17  H   UNK A   2       8.359  -4.588  22.408  0.00  0.00    +0.295 HD
ENDBRANCH  14  16
ENDBRANCH  10  14
ENDBRANCH   1   6
BRANCH   3  18
ATOM     18  C   UNK A   0       9.308   3.260  23.193  0.00  0.00    +0.059 C 
ATOM     19  C   UNK A   0      10.311   4.119  23.506  0.00  0.00    -0.001 C 
BRANCH  18  20
ATOM     20  C   UNK A   0       7.930   3.707  23.154  0.00  0.00    +0.085 A 
ATOM     21  N   UNK A   0       6.910   2.775  23.030  0.00  0.00    -0.225 NA
ATOM     22  C   UNK A   0       5.749   3.376  22.941  0.00  0.00    +0.156 A 
ATOM     23  N   UNK A   0       4.600   2.714  22.767  0.00  0.00    -0.338 N 
ATOM     24  H   UNK A   0       4.594   1.717  22.947  0.00  0.00    +0.144 HD
ATOM     25  H   UNK A   0       3.725   3.184  22.969  0.00  0.00    +0.144 HD
ATOM     26  S   UNK A   0       5.798   5.086  23.047  0.00  0.00    -0.060 S 
ATOM     27  C   UNK A   0       7.505   5.022  23.183  0.00  0.00    +0.077 A 
ENDBRANCH  18  20
BRANCH  19  28
ATOM     28  C   UNK A   0      11.811   3.964  23.483  0.00  0.00    +0.148 C 
BRANCH  28  29
ATOM     29  C   UNK A   0      12.623   5.205  23.156  0.00  0.00    +0.309 C 
ATOM     30  O   UNK A   0      12.986   5.495  22.024  0.00  0.00    -0.251 OA
BRANCH  29  31
ATOM     31  O   UNK A   0      12.946   5.959  24.226  0.00  0.00    -0.480 OA
ATOM     32  H   UNK A   0      12.161   6.205  24.775  0.00  0.00    +0.295 HD
ENDBRANCH  29  31
ENDBRANCH  28  29
ENDBRANCH  19  28
ENDBRANCH   3  18
TORSDOF 8
ENDMDL
MODEL 5
REMARK VINA RESULT:      -6.6      3.312      7.391
REMARK  Name = 
REMARK  8 active torsions:
REMARK  status: ('A' for Active; 'I' for Inactive)
REMARK    1  A    between atoms: CA_6  and  C_27
REMARK    2  A    between atoms: CA_10  and  N_12
REMARK    3  A    between atoms: C_13  and  C_15
REMARK    4  A    between atoms: C_15  and  C_21
REMARK    5  A    between atoms: C_16  and  C_17
REMARK    6  A    between atoms: C_17  and  C_18
REMARK    7  A    between atoms: C_18  and  O_19
REMARK    8  A    between atoms: C_27  and  O_28
REMARK                            x       y       z     vdW  Elec       q    Type
REMARK                         _______ _______ _______ _____ _____    ______ ____
ROOT
ATOM      1  N   UNK A   2       8.482   0.318  25.193  0.00  0.00    -0.298 N 
ATOM      2  H   ACE A   1       7.474   0.429  25.329  0.00  0.00    +0.150 HD
ATOM      3  C   UNK A   0       9.137   1.416  24.688  0.00  0.00    +0.247 C 
ATOM      4  O   UNK A   0      10.365   1.447  24.597  0.00  0.00    -0.270 OA
ENDROOT
BRANCH   1   6
ATOM      5  C   UNK A   2       8.284  -1.943  26.505  0.00  0.00    +0.169 C 
ATOM      6  C   UNK A   2       9.162  -0.857  25.795  0.00  0.00    +0.191 C 
ATOM      7  C   UNK A   2       9.464  -2.025  24.772  0.00  0.00    +0.244 C 
ATOM      8  O   UNK A   2      10.141  -2.243  23.788  0.00  0.00    -0.273 OA
ATOM      9  N   UNK A   2       8.525  -2.796  25.349  0.00  0.00    -0.249 N 
ATOM     10  C   UNK A   2       7.877  -3.970  25.124  0.00  0.00    +0.119 C 
ATOM     11  C   UNK A   2       6.760  -4.261  25.825  0.00  0.00    +0.014 C 
ATOM     12  C   UNK A   2       6.070  -3.383  26.827  0.00  0.00    +0.100 C 
ATOM     13  S   UNK A   2       6.505  -1.633  26.645  0.00  0.00    -0.131 S 
BRANCH  10  14
ATOM     14  C   UNK A   2       8.289  -4.978  24.086  0.00  0.00    +0.351 C 
ATOM     15  O   UNK A   2       7.658  -5.152  23.051  0.00  0.00    -0.244 OA
BRANCH  14  16
ATOM     16  O   UNK A   2       9.377  -5.720  24.359  0.00  0.00    -0.476 OA
ATOM     17  H   UNK A   2       9.687  -6.340  23.663  0.00  0.00    +0.295 HD
ENDBRANCH  14  16
ENDBRANCH  10  14
ENDBRANCH   1   6
BRANCH   3  18
ATOM     18  C   UNK A   0       8.274   2.617  24.327  0.00  0.00    +0.059 C 
ATOM     19  C   UNK A   0       7.817   2.761  23.057  0.00  0.00    -0.001 C 
BRANCH  18  20
ATOM     20  C   UNK A   0       7.949   3.588  25.351  0.00  0.00    +0.085 A 
ATOM     21  N   UNK A   0       7.312   3.175  26.512  0.00  0.00    -0.225 NA
ATOM     22  C   UNK A   0       7.040   4.203  27.276  0.00  0.00    +0.156 A 
ATOM     23  N   UNK A   0       6.384   4.093  28.437  0.00  0.00    -0.338 N 
ATOM     24  H   UNK A   0       6.306   3.172  28.853  0.00  0.00    +0.144 HD
ATOM     25  H   UNK A   0       6.433   4.854  29.105  0.00  0.00    +0.144 HD
ATOM     26  S   UNK A   0       7.569   5.721  26.681  0.00  0.00    -0.060 S 
ATOM     27  C   UNK A   0       8.173   4.950  25.274  0.00  0.00    +0.077 A 
ENDBRANCH  18  20
BRANCH  19  28
ATOM     28  C   UNK A   0       7.882   1.851  21.856  0.00  0.00    +0.148 C 
BRANCH  28  29
ATOM     29  C   UNK A   0       9.245   1.279  21.504  0.00  0.00    +0.309 C 
ATOM     30  O   UNK A   0       9.439   0.093  21.274  0.00  0.00    -0.251 OA
BRANCH  29  31
ATOM     31  O   UNK A   0      10.245   2.183  21.495  0.00  0.00    -0.480 OA
ATOM     32  H   UNK A   0      10.168   2.849  22.222  0.00  0.00    +0.295 HD
ENDBRANCH  29  31
ENDBRANCH  28  29
ENDBRANCH  19  28
ENDBRANCH   3  18
TORSDOF 8
ENDMDL
MODEL 6
REMARK VINA RESULT:      -6.3      2.846      4.202
REMARK  Name = 
REMARK  8 active torsions:
REMARK  status: ('A' for Active; 'I' for Inactive)
REMARK    1  A    between atoms: CA_6  and  C_27
REMARK    2  A    between atoms: CA_10  and  N_12
REMARK    3  A    between atoms: C_13  and  C_15
REMARK    4  A    between atoms: C_15  and  C_21
REMARK    5  A    between atoms: C_16  and  C_17
REMARK    6  A    between atoms: C_17  and  C_18
REMARK    7  A    between atoms: C_18  and  O_19
REMARK    8  A    between atoms: C_27  and  O_28
REMARK                            x       y       z     vdW  Elec       q    Type
REMARK                         _______ _______ _______ _____ _____    ______ ____
ROOT
ATOM      1  N   UNK A   2       7.571  -2.381  25.951  0.00  0.00    -0.298 N 
ATOM      2  H   ACE A   1       6.783  -2.123  25.350  0.00  0.00    +0.150 HD
ATOM      3  C   UNK A   0       7.595  -3.690  26.370  0.00  0.00    +0.247 C 
ATOM      4  O   UNK A   0       8.554  -4.148  26.992  0.00  0.00    -0.270 OA
ENDROOT
BRANCH   1   6
ATOM      5  C   UNK A   2       9.656  -1.251  24.832  0.00  0.00    +0.169 C 
ATOM      6  C   UNK A   2       8.718  -1.444  26.071  0.00  0.00    +0.191 C 
ATOM      7  C   UNK A   2       8.347   0.070  25.802  0.00  0.00    +0.244 C 
ATOM      8  O   UNK A   2       7.675   0.959  26.284  0.00  0.00    -0.273 OA
ATOM      9  N   UNK A   2       9.024   0.047  24.640  0.00  0.00    -0.249 N 
ATOM     10  C   UNK A   2       9.205   0.825  23.540  0.00  0.00    +0.119 C 
ATOM     11  C   UNK A   2       9.761   0.291  22.430  0.00  0.00    +0.014 C 
ATOM     12  C   UNK A   2      10.169  -1.137  22.223  0.00  0.00    +0.100 C 
ATOM     13  S   UNK A   2       9.347  -2.275  23.370  0.00  0.00    -0.131 S 
BRANCH  10  14
ATOM     14  C   UNK A   2       8.772   2.261  23.438  0.00  0.00    +0.351 C 
ATOM     15  O   UNK A   2       8.243   2.720  22.434  0.00  0.00    -0.244 OA
BRANCH  14  16
ATOM     16  O   UNK A   2       9.026   3.048  24.500  0.00  0.00    -0.476 OA
ATOM     17  H   UNK A   2       9.801   3.647  24.443  0.00  0.00    +0.295 HD
ENDBRANCH  14  16
ENDBRANCH  10  14
ENDBRANCH   1   6
BRANCH   3  18
ATOM     18  C   UNK A   0       6.416  -4.559  25.955  0.00  0.00    +0.059 C 
ATOM     19  C   UNK A   0       5.647  -5.150  26.904  0.00  0.00    -0.001 C 
BRANCH  18  20
ATOM     20  C   UNK A   0       6.130  -4.737  24.546  0.00  0.00    +0.085 A 
ATOM     21  N   UNK A   0       6.121  -3.636  23.702  0.00  0.00    -0.225 NA
ATOM     22  C   UNK A   0       5.773  -3.990  22.490  0.00  0.00    +0.156 A 
ATOM     23  N   UNK A   0       5.638  -3.115  21.487  0.00  0.00    -0.338 N 
ATOM     24  H   UNK A   0       6.045  -2.194  21.603  0.00  0.00    +0.144 HD
ATOM     25  H   UNK A   0       5.632  -3.457  20.533  0.00  0.00    +0.144 HD
ATOM     26  S   UNK A   0       5.479  -5.665  22.270  0.00  0.00    -0.060 S 
ATOM     27  C   UNK A   0       5.805  -5.932  23.932  0.00  0.00    +0.077 A 
ENDBRANCH  18  20
BRANCH  19  28
ATOM     28  C   UNK A   0       5.631  -5.024  28.406  0.00  0.00    +0.148 C 
BRANCH  28  29
ATOM     29  C   UNK A   0       5.960  -6.275  29.202  0.00  0.00    +0.309 C 
ATOM     30  O   UNK A   0       5.802  -7.409  28.770  0.00  0.00    -0.251 OA
BRANCH  29  31
ATOM     31  O   UNK A   0       6.416  -6.041  30.449  0.00  0.00    -0.480 OA
ATOM     32  H   UNK A   0       6.989  -6.771  30.792  0.00  0.00    +0.295 HD
ENDBRANCH  29  31
ENDBRANCH  28  29
ENDBRANCH  19  28
ENDBRANCH   3  18
TORSDOF 8
ENDMDL
MODEL 7
REMARK VINA RESULT:      -6.3      3.163      5.017
REMARK  Name = 
REMARK  8 active torsions:
REMARK  status: ('A' for Active; 'I' for Inactive)
REMARK    1  A    between atoms: CA_6  and  C_27
REMARK    2  A    between atoms: CA_10  and  N_12
REMARK    3  A    between atoms: C_13  and  C_15
REMARK    4  A    between atoms: C_15  and  C_21
REMARK    5  A    between atoms: C_16  and  C_17
REMARK    6  A    between atoms: C_17  and  C_18
REMARK    7  A    between atoms: C_18  and  O_19
REMARK    8  A    between atoms: C_27  and  O_28
REMARK                            x       y       z     vdW  Elec       q    Type
REMARK                         _______ _______ _______ _____ _____    ______ ____
ROOT
ATOM      1  N   UNK A   2       8.322  -0.157  23.478  0.00  0.00    -0.298 N 
ATOM      2  H   ACE A   1       7.356   0.003  23.776  0.00  0.00    +0.150 HD
ATOM      3  C   UNK A   0       8.841  -1.393  23.785  0.00  0.00    +0.247 C 
ATOM      4  O   UNK A   0       9.946  -1.746  23.372  0.00  0.00    -0.270 OA
ENDROOT
BRANCH   1   6
ATOM      5  C   UNK A   2       8.121   2.053  22.081  0.00  0.00    +0.169 C 
ATOM      6  C   UNK A   2       8.948   0.800  22.530  0.00  0.00    +0.191 C 
ATOM      7  C   UNK A   2       9.875   1.881  23.220  0.00  0.00    +0.244 C 
ATOM      8  O   UNK A   2      10.913   1.948  23.845  0.00  0.00    -0.273 OA
ATOM      9  N   UNK A   2       8.977   2.846  22.952  0.00  0.00    -0.249 N 
ATOM     10  C   UNK A   2       8.742   4.148  23.265  0.00  0.00    +0.119 C 
ATOM     11  C   UNK A   2       7.532   4.689  23.008  0.00  0.00    +0.014 C 
ATOM     12  C   UNK A   2       6.330   3.986  22.449  0.00  0.00    +0.100 C 
ATOM     13  S   UNK A   2       6.410   2.187  22.658  0.00  0.00    -0.131 S 
BRANCH  10  14
ATOM     14  C   UNK A   2       9.737   5.047  23.947  0.00  0.00    +0.351 C 
ATOM     15  O   UNK A   2       9.460   5.700  24.944  0.00  0.00    -0.244 OA
BRANCH  14  16
ATOM     16  O   UNK A   2      10.958   5.135  23.387  0.00  0.00    -0.476 OA
ATOM     17  H   UNK A   2      11.562   5.829  23.729  0.00  0.00    +0.295 HD
ENDBRANCH  14  16
ENDBRANCH  10  14
ENDBRANCH   1   6
BRANCH   3  18
ATOM     18  C   UNK A   0       7.947  -2.324  24.590  0.00  0.00    +0.059 C 
ATOM     19  C   UNK A   0       7.911  -2.222  25.943  0.00  0.00    -0.001 C 
BRANCH  18  20
ATOM     20  C   UNK A   0       7.141  -3.307  23.896  0.00  0.00    +0.085 A 
ATOM     21  N   UNK A   0       7.757  -4.379  23.267  0.00  0.00    -0.225 NA
ATOM     22  C   UNK A   0       6.871  -5.112  22.639  0.00  0.00    +0.156 A 
ATOM     23  N   UNK A   0       7.200  -6.184  21.909  0.00  0.00    -0.338 N 
ATOM     24  H   UNK A   0       8.123  -6.581  22.038  0.00  0.00    +0.144 HD
ATOM     25  H   UNK A   0       6.481  -6.858  21.671  0.00  0.00    +0.144 HD
ATOM     26  S   UNK A   0       5.244  -4.595  22.798  0.00  0.00    -0.060 S 
ATOM     27  C   UNK A   0       5.767  -3.267  23.748  0.00  0.00    +0.077 A 
ENDBRANCH  18  20
BRANCH  19  28
ATOM     28  C   UNK A   0       8.522  -1.221  26.892  0.00  0.00    +0.148 C 
BRANCH  28  29
ATOM     29  C   UNK A   0       7.773   0.087  27.082  0.00  0.00    +0.309 C 
ATOM     30  O   UNK A   0       6.837   0.221  27.858  0.00  0.00    -0.251 OA
BRANCH  29  31
ATOM     31  O   UNK A   0       8.203   1.096  26.297  0.00  0.00    -0.480 OA
ATOM     32  H   UNK A   0       9.064   0.898  25.854  0.00  0.00    +0.295 HD
ENDBRANCH  29  31
ENDBRANCH  28  29
ENDBRANCH  19  28
ENDBRANCH   3  18
TORSDOF 8
ENDMDL
MODEL 8
REMARK VINA RESULT:      -6.2      2.999      7.277
REMARK  Name = 
REMARK  8 active torsions:
REMARK  status: ('A' for Active; 'I' for Inactive)
REMARK    1  A    between atoms: CA_6  and  C_27
REMARK    2  A    between atoms: CA_10  and  N_12
REMARK    3  A    between atoms: C_13  and  C_15
REMARK    4  A    between atoms: C_15  and  C_21
REMARK    5  A    between atoms: C_16  and  C_17
REMARK    6  A    between atoms: C_17  and  C_18
REMARK    7  A    between atoms: C_18  and  O_19
REMARK    8  A    between atoms: C_27  and  O_28
REMARK                            x       y       z     vdW  Elec       q    Type
REMARK                         _______ _______ _______ _____ _____    ______ ____
ROOT
ATOM      1  N   UNK A   2       6.689  -3.877  25.766  0.00  0.00    -0.298 N 
ATOM      2  H   ACE A   1       6.192  -3.104  25.315  0.00  0.00    +0.150 HD
ATOM      3  C   UNK A   0       7.788  -4.351  25.090  0.00  0.00    +0.247 C 
ATOM      4  O   UNK A   0       8.536  -5.193  25.589  0.00  0.00    -0.270 OA
ENDROOT
BRANCH   1   6
ATOM      5  C   UNK A   2       5.035  -3.662  27.790  0.00  0.00    +0.169 C 
ATOM      6  C   UNK A   2       6.371  -4.207  27.180  0.00  0.00    +0.191 C 
ATOM      7  C   UNK A   2       5.678  -5.615  27.375  0.00  0.00    +0.244 C 
ATOM      8  O   UNK A   2       5.925  -6.796  27.241  0.00  0.00    -0.273 OA
ATOM      9  N   UNK A   2       4.514  -5.018  27.688  0.00  0.00    -0.249 N 
ATOM     10  C   UNK A   2       3.210  -5.347  27.886  0.00  0.00    +0.119 C 
ATOM     11  C   UNK A   2       2.272  -4.375  27.904  0.00  0.00    +0.014 C 
ATOM     12  C   UNK A   2       2.486  -2.911  27.660  0.00  0.00    +0.100 C 
ATOM     13  S   UNK A   2       4.022  -2.566  26.763  0.00  0.00    -0.131 S 
BRANCH  10  14
ATOM     14  C   UNK A   2       2.706  -6.756  28.036  0.00  0.00    +0.351 C 
ATOM     15  O   UNK A   2       1.737  -7.178  27.419  0.00  0.00    -0.244 OA
BRANCH  14  16
ATOM     16  O   UNK A   2       3.352  -7.540  28.919  0.00  0.00    -0.476 OA
ATOM     17  H   UNK A   2       3.830  -7.095  29.652  0.00  0.00    +0.295 HD
ENDBRANCH  14  16
ENDBRANCH  10  14
ENDBRANCH   1   6
BRANCH   3  18
ATOM     18  C   UNK A   0       8.074  -3.724  23.733  0.00  0.00    +0.059 C 
ATOM     19  C   UNK A   0       7.622  -4.325  22.604  0.00  0.00    -0.001 C 
BRANCH  18  20
ATOM     20  C   UNK A   0       8.824  -2.486  23.669  0.00  0.00    +0.085 A 
ATOM     21  N   UNK A   0       9.098  -1.789  24.837  0.00  0.00    -0.225 NA
ATOM     22  C   UNK A   0       9.718  -0.667  24.565  0.00  0.00    +0.156 A 
ATOM     23  N   UNK A   0      10.059   0.221  25.506  0.00  0.00    -0.338 N 
ATOM     24  H   UNK A   0      10.055  -0.085  26.472  0.00  0.00    +0.144 HD
ATOM     25  H   UNK A   0      10.756   0.924  25.289  0.00  0.00    +0.144 HD
ATOM     26  S   UNK A   0      10.054  -0.397  22.906  0.00  0.00    -0.060 S 
ATOM     27  C   UNK A   0       9.277  -1.874  22.516  0.00  0.00    +0.077 A 
ENDBRANCH  18  20
BRANCH  19  28
ATOM     28  C   UNK A   0       6.718  -5.514  22.390  0.00  0.00    +0.148 C 
BRANCH  28  29
ATOM     29  C   UNK A   0       5.222  -5.258  22.471  0.00  0.00    +0.309 C 
ATOM     30  O   UNK A   0       4.730  -4.139  22.497  0.00  0.00    -0.251 OA
BRANCH  29  31
ATOM     31  O   UNK A   0       4.469  -6.374  22.544  0.00  0.00    -0.480 OA
ATOM     32  H   UNK A   0       4.653  -6.910  23.355  0.00  0.00    +0.295 HD
ENDBRANCH  29  31
ENDBRANCH  28  29
ENDBRANCH  19  28
ENDBRANCH   3  18
TORSDOF 8
ENDMDL
MODEL 9
REMARK VINA RESULT:      -6.2      3.330      7.568
REMARK  Name = 
REMARK  8 active torsions:
REMARK  status: ('A' for Active; 'I' for Inactive)
REMARK    1  A    between atoms: CA_6  and  C_27
REMARK    2  A    between atoms: CA_10  and  N_12
REMARK    3  A    between atoms: C_13  and  C_15
REMARK    4  A    between atoms: C_15  and  C_21
REMARK    5  A    between atoms: C_16  and  C_17
REMARK    6  A    between atoms: C_17  and  C_18
REMARK    7  A    between atoms: C_18  and  O_19
REMARK    8  A    between atoms: C_27  and  O_28
REMARK                            x       y       z     vdW  Elec       q    Type
REMARK                         _______ _______ _______ _____ _____    ______ ____
ROOT
ATOM      1  N   UNK A   2       7.791  -1.217  24.176  0.00  0.00    -0.298 N 
ATOM      2  H   ACE A   1       7.659  -1.112  25.185  0.00  0.00    +0.150 HD
ATOM      3  C   UNK A   0       7.880  -0.046  23.463  0.00  0.00    +0.247 C 
ATOM      4  O   UNK A   0       8.160  -0.043  22.263  0.00  0.00    -0.270 OA
ENDROOT
BRANCH   1   6
ATOM      5  C   UNK A   2       8.069  -3.792  24.593  0.00  0.00    +0.169 C 
ATOM      6  C   UNK A   2       8.151  -2.554  23.635  0.00  0.00    +0.191 C 
ATOM      7  C   UNK A   2       6.970  -3.286  22.879  0.00  0.00    +0.244 C 
ATOM      8  O   UNK A   2       6.288  -3.158  21.882  0.00  0.00    -0.273 OA
ATOM      9  N   UNK A   2       6.861  -4.179  23.878  0.00  0.00    -0.249 N 
ATOM     10  C   UNK A   2       6.024  -5.170  24.285  0.00  0.00    +0.119 C 
ATOM     11  C   UNK A   2       6.123  -5.654  25.542  0.00  0.00    +0.014 C 
ATOM     12  C   UNK A   2       7.045  -5.173  26.623  0.00  0.00    +0.100 C 
ATOM     13  S   UNK A   2       7.652  -3.491  26.329  0.00  0.00    -0.131 S 
BRANCH  10  14
ATOM     14  C   UNK A   2       4.925  -5.751  23.437  0.00  0.00    +0.351 C 
ATOM     15  O   UNK A   2       4.066  -5.057  22.907  0.00  0.00    -0.244 OA
BRANCH  14  16
ATOM     16  O   UNK A   2       4.900  -7.090  23.310  0.00  0.00    -0.476 OA
ATOM     17  H   UNK A   2       4.023  -7.530  23.337  0.00  0.00    +0.295 HD
ENDBRANCH  14  16
ENDBRANCH  10  14
ENDBRANCH   1   6
BRANCH   3  18
ATOM     18  C   UNK A   0       7.693   1.244  24.248  0.00  0.00    +0.059 C 
ATOM     19  C   UNK A   0       8.775   1.988  24.590  0.00  0.00    -0.001 C 
BRANCH  18  20
ATOM     20  C   UNK A   0       6.356   1.662  24.616  0.00  0.00    +0.085 A 
ATOM     21  N   UNK A   0       5.536   2.253  23.666  0.00  0.00    -0.225 NA
ATOM     22  C   UNK A   0       4.401   2.623  24.206  0.00  0.00    +0.156 A 
ATOM     23  N   UNK A   0       3.445   3.263  23.524  0.00  0.00    -0.338 N 
ATOM     24  H   UNK A   0       3.494   3.249  22.511  0.00  0.00    +0.144 HD
ATOM     25  H   UNK A   0       2.504   3.288  23.899  0.00  0.00    +0.144 HD
ATOM     26  S   UNK A   0       4.223   2.247  25.869  0.00  0.00    -0.060 S 
ATOM     27  C   UNK A   0       5.799   1.573  25.878  0.00  0.00    +0.077 A 
ENDBRANCH  18  20
BRANCH  19  28
ATOM     28  C   UNK A   0      10.234   1.868  24.225  0.00  0.00    +0.148 C 
BRANCH  28  29
ATOM     29  C   UNK A   0      10.717   2.705  23.053  0.00  0.00    +0.309 C 
ATOM     30  O   UNK A   0      11.429   3.692  23.178  0.00  0.00    -0.251 OA
BRANCH  29  31
ATOM     31  O   UNK A   0      10.270   2.292  21.850  0.00  0.00    -0.480 OA
ATOM     32  H   UNK A   0       9.319   2.514  21.696  0.00  0.00    +0.295 HD
ENDBRANCH  29  31
ENDBRANCH  28  29
ENDBRANCH  19  28
ENDBRANCH   3  18
TORSDOF 8
ENDMDL
