MODEL 1
REMARK VINA RESULT:      -7.0      0.000      0.000
REMARK  Name = 
REMARK  15 active torsions:
REMARK  status: ('A' for Active; 'I' for Inactive)
REMARK    1  A    between atoms: C_1  and  C_2
REMARK    2  A    between atoms: C_2  and  C_3
REMARK    3  A    between atoms: C_3  and  C_5
REMARK    4  A    between atoms: C_3  and  C_6
REMARK    5  A    between atoms: C_8  and  C_13
REMARK    6  A    between atoms: C_11  and  O_12
REMARK    7  A    between atoms: N_15  and  C_16
REMARK    8  A    between atoms: C_23  and  O_25
REMARK    9  A    between atoms: O_25  and  C_26
REMARK   10  A    between atoms: C_26  and  C_28
REMARK   11  A    between atoms: C_31  and  C_34
REMARK   12  A    between atoms: C_34  and  C_36
REMARK   13  A    between atoms: C_38  and  O_39
REMARK   14  A    between atoms: O_39  and  C_40
REMARK   15  A    between atoms: C_43  and  O_44
REMARK                            x       y       z     vdW  Elec       q    Type
REMARK                         _______ _______ _______ _____ _____    ______ ____
ROOT
ATOM      1  C   UNL     1       4.431  -6.769  27.279  0.00  0.00    +0.128 C 
ATOM      2  C   UNL     1       3.204  -5.845  26.890  0.00  0.00    +0.198 C 
ATOM      3  C   UNL     1       1.911  -6.658  27.115  0.00  0.00    +0.048 C 
ATOM      4  C   UNL     1       1.327  -6.622  28.524  0.00  0.00    +0.019 C 
ATOM      5  C   UNL     1       2.331  -6.572  29.675  0.00  0.00    +0.081 C 
ATOM      6  N   UNL     1       3.445  -7.517  29.539  0.00  0.00    -0.314 NA
ATOM      7  H   UNL     1       3.769  -7.726  30.486  0.00  0.00    +0.122 HD
ATOM      8  C   UNL     1       4.599  -6.928  28.817  0.00  0.00    +0.106 C 
ENDROOT
BRANCH   1  10
ATOM      9  C   UNL     1       6.558  -5.452  27.039  0.00  0.00    +0.244 C 
ATOM     10  N   UNL     1       5.692  -6.411  26.560  0.00  0.00    -0.304 N 
ATOM     11  H   UNL     1       5.832  -6.803  25.639  0.00  0.00    +0.149 HD
ATOM     12  O   UNL     1       6.522  -5.084  28.211  0.00  0.00    -0.270 OA
BRANCH   9  17
ATOM     13  C   UNL     1       8.015  -4.345  23.731  0.00  0.00    -0.002 A 
ATOM     14  C   UNL     1       9.118  -3.578  24.125  0.00  0.00    +0.120 A 
ATOM     15  C   UNL     1       9.411  -3.363  25.476  0.00  0.00    +0.046 A 
ATOM     16  C   UNL     1       8.595  -3.943  26.478  0.00  0.00    +0.016 A 
ATOM     17  C   UNL     1       7.513  -4.753  26.106  0.00  0.00    +0.037 A 
ATOM     18  C   UNL     1       7.240  -4.935  24.745  0.00  0.00    +0.020 A 
BRANCH  13  19
ATOM     19  C   UNL     1       7.582  -4.393  22.268  0.00  0.00    +0.019 C 
ATOM     20  C   UNL     1       6.407  -3.419  22.101  0.00  0.00    +0.012 C 
BRANCH  19  22
ATOM     21  C   UNL     1       6.068  -5.769  20.735  0.00  0.00    +0.004 C 
ATOM     22  C   UNL     1       7.236  -5.796  21.719  0.00  0.00    +0.004 C 
ENDBRANCH  19  22
ENDBRANCH  13  19
BRANCH  14  23
ATOM     23  O   UNL     1       9.888  -3.012  23.146  0.00  0.00    -0.506 OA
ATOM     24  H   UNL     1       9.523  -2.148  22.897  0.00  0.00    +0.292 HD
ENDBRANCH  14  23
ENDBRANCH   9  17
ENDBRANCH   1  10
BRANCH   2  25
ATOM     25  O   UNL     1       3.224  -4.595  27.670  0.00  0.00    -0.456 OA
BRANCH  25  26
ATOM     26  C   UNL     1       2.878  -3.364  27.191  0.00  0.00    +0.340 C 
ATOM     27  O   UNL     1       1.757  -2.883  27.211  0.00  0.00    -0.245 OA
BRANCH  26  28
ATOM     28  C   UNL     1       4.130  -2.637  26.666  0.00  0.00    +0.059 A 
ATOM     29  C   UNL     1       5.021  -2.037  27.557  0.00  0.00    +0.015 A 
ATOM     30  C   UNL     1       6.144  -1.309  27.107  0.00  0.00    +0.012 A 
ATOM     31  C   UNL     1       6.471  -1.147  25.744  0.00  0.00    +0.022 A 
ATOM     32  C   UNL     1       5.597  -1.770  24.835  0.00  0.00    +0.012 A 
ATOM     33  C   UNL     1       4.439  -2.504  25.291  0.00  0.00    +0.015 A 
BRANCH  31  34
ATOM     34  C   UNL     1       7.654  -0.211  25.461  0.00  0.00    +0.197 C 
ATOM     35  O   UNL     1       8.410  -0.017  26.423  0.00  0.00    -0.287 OA
BRANCH  34  36
ATOM     36  C   UNL     1       8.023   0.535  24.216  0.00  0.00    +0.067 A 
ATOM     37  C   UNL     1       9.265   0.432  23.593  0.00  0.00    +0.128 A 
ATOM     38  C   UNL     1       9.534   1.133  22.409  0.00  0.00    +0.050 A 
ATOM     39  C   UNL     1       8.577   1.985  21.861  0.00  0.00    +0.049 A 
ATOM     40  C   UNL     1       7.367   2.213  22.513  0.00  0.00    +0.121 A 
ATOM     41  C   UNL     1       7.103   1.512  23.699  0.00  0.00    +0.061 A 
BRANCH  37  42
ATOM     42  O   UNL     1      10.276  -0.289  24.157  0.00  0.00    -0.506 OA
ATOM     43  H   UNL     1      10.194  -1.210  23.851  0.00  0.00    +0.292 HD
ENDBRANCH  37  42
BRANCH  40  44
ATOM     44  O   UNL     1       6.597   3.134  21.861  0.00  0.00    -0.495 OA
ATOM     45  C   UNL     1       5.980   4.200  22.563  0.00  0.00    +0.277 C 
ENDBRANCH  40  44
ENDBRANCH  34  36
ENDBRANCH  31  34
ENDBRANCH  26  28
ENDBRANCH  25  26
ENDBRANCH   2  25
TORSDOF 12
ENDMDL
MODEL 2
REMARK VINA RESULT:      -6.9      3.165      6.229
REMARK  Name = 
REMARK  15 active torsions:
REMARK  status: ('A' for Active; 'I' for Inactive)
REMARK    1  A    between atoms: C_1  and  C_2
REMARK    2  A    between atoms: C_2  and  C_3
REMARK    3  A    between atoms: C_3  and  C_5
REMARK    4  A    between atoms: C_3  and  C_6
REMARK    5  A    between atoms: C_8  and  C_13
REMARK    6  A    between atoms: C_11  and  O_12
REMARK    7  A    between atoms: N_15  and  C_16
REMARK    8  A    between atoms: C_23  and  O_25
REMARK    9  A    between atoms: O_25  and  C_26
REMARK   10  A    between atoms: C_26  and  C_28
REMARK   11  A    between atoms: C_31  and  C_34
REMARK   12  A    between atoms: C_34  and  C_36
REMARK   13  A    between atoms: C_38  and  O_39
REMARK   14  A    between atoms: O_39  and  C_40
REMARK   15  A    between atoms: C_43  and  O_44
REMARK                            x       y       z     vdW  Elec       q    Type
REMARK                         _______ _______ _______ _____ _____    ______ ____
ROOT
ATOM      1  C   UNL     1       5.930  -3.278  24.287  0.00  0.00    +0.128 C 
ATOM      2  C   UNL     1       6.774  -4.610  24.438  0.00  0.00    +0.198 C 
ATOM      3  C   UNL     1       5.931  -5.771  23.866  0.00  0.00    +0.048 C 
ATOM      4  C   UNL     1       6.051  -6.016  22.364  0.00  0.00    +0.019 C 
ATOM      5  C   UNL     1       6.227  -4.780  21.485  0.00  0.00    +0.081 C 
ATOM      6  N   UNL     1       5.318  -3.676  21.815  0.00  0.00    -0.314 NA
ATOM      7  H   UNL     1       5.194  -3.133  20.959  0.00  0.00    +0.122 HD
ATOM      8  C   UNL     1       5.895  -2.753  22.823  0.00  0.00    +0.106 C 
ENDROOT
BRANCH   1  10
ATOM      9  C   UNL     1       5.360  -1.318  25.753  0.00  0.00    +0.244 C 
ATOM     10  N   UNL     1       6.281  -2.238  25.300  0.00  0.00    -0.304 N 
ATOM     11  H   UNL     1       7.255  -2.144  25.555  0.00  0.00    +0.149 HD
ATOM     12  O   UNL     1       4.153  -1.498  25.610  0.00  0.00    -0.270 OA
BRANCH   9  17
ATOM     13  C   UNL     1       5.335   2.400  26.437  0.00  0.00    -0.002 A 
ATOM     14  C   UNL     1       6.427   2.559  27.297  0.00  0.00    +0.120 A 
ATOM     15  C   UNL     1       7.193   1.464  27.714  0.00  0.00    +0.046 A 
ATOM     16  C   UNL     1       6.878   0.163  27.249  0.00  0.00    +0.016 A 
ATOM     17  C   UNL     1       5.817  -0.012  26.351  0.00  0.00    +0.037 A 
ATOM     18  C   UNL     1       5.063   1.104  25.966  0.00  0.00    +0.020 A 
BRANCH  13  19
ATOM     19  C   UNL     1       4.382   3.562  26.163  0.00  0.00    +0.019 C 
ATOM     20  C   UNL     1       3.262   3.499  27.212  0.00  0.00    +0.012 C 
BRANCH  19  22
ATOM     21  C   UNL     1       2.310   3.358  24.681  0.00  0.00    +0.004 C 
ATOM     22  C   UNL     1       3.811   3.634  24.729  0.00  0.00    +0.004 C 
ENDBRANCH  19  22
ENDBRANCH  13  19
BRANCH  14  23
ATOM     23  O   UNL     1       6.710   3.819  27.750  0.00  0.00    -0.506 OA
ATOM     24  H   UNL     1       5.886   4.307  27.906  0.00  0.00    +0.292 HD
ENDBRANCH  14  23
ENDBRANCH   9  17
ENDBRANCH   1  10
BRANCH   2  25
ATOM     25  O   UNL     1       8.079  -4.481  23.766  0.00  0.00    -0.456 OA
BRANCH  25  26
ATOM     26  C   UNL     1       9.247  -4.128  24.379  0.00  0.00    +0.340 C 
ATOM     27  O   UNL     1       9.974  -4.880  25.009  0.00  0.00    -0.245 OA
BRANCH  26  28
ATOM     28  C   UNL     1       9.550  -2.642  24.113  0.00  0.00    +0.059 A 
ATOM     29  C   UNL     1       9.474  -1.712  25.150  0.00  0.00    +0.015 A 
ATOM     30  C   UNL     1       9.685  -0.334  24.928  0.00  0.00    +0.012 A 
ATOM     31  C   UNL     1      10.006   0.211  23.666  0.00  0.00    +0.022 A 
ATOM     32  C   UNL     1      10.113  -0.718  22.616  0.00  0.00    +0.012 A 
ATOM     33  C   UNL     1       9.885  -2.129  22.837  0.00  0.00    +0.015 A 
BRANCH  31  34
ATOM     34  C   UNL     1      10.063   1.744  23.609  0.00  0.00    +0.197 C 
ATOM     35  O   UNL     1      11.195   2.230  23.735  0.00  0.00    -0.287 OA
BRANCH  34  36
ATOM     36  C   UNL     1       8.964   2.750  23.461  0.00  0.00    +0.067 A 
ATOM     37  C   UNL     1       8.222   2.919  22.293  0.00  0.00    +0.128 A 
ATOM     38  C   UNL     1       7.183   3.857  22.233  0.00  0.00    +0.050 A 
ATOM     39  C   UNL     1       6.905   4.674  23.327  0.00  0.00    +0.049 A 
ATOM     40  C   UNL     1       7.697   4.626  24.473  0.00  0.00    +0.121 A 
ATOM     41  C   UNL     1       8.738   3.687  24.528  0.00  0.00    +0.061 A 
BRANCH  37  42
ATOM     42  O   UNL     1       8.537   2.233  21.157  0.00  0.00    -0.506 OA
ATOM     43  H   UNL     1       9.172   2.770  20.650  0.00  0.00    +0.292 HD
ENDBRANCH  37  42
BRANCH  40  44
ATOM     44  O   UNL     1       7.315   5.552  25.401  0.00  0.00    -0.495 OA
ATOM     45  C   UNL     1       6.358   6.550  25.089  0.00  0.00    +0.277 C 
ENDBRANCH  40  44
ENDBRANCH  34  36
ENDBRANCH  31  34
ENDBRANCH  26  28
ENDBRANCH  25  26
ENDBRANCH   2  25
TORSDOF 12
ENDMDL
MODEL 3
REMARK VINA RESULT:      -6.9      2.454      7.829
REMARK  Name = 
REMARK  15 active torsions:
REMARK  status: ('A' for Active; 'I' for Inactive)
REMARK    1  A    between atoms: C_1  and  C_2
REMARK    2  A    between atoms: C_2  and  C_3
REMARK    3  A    between atoms: C_3  and  C_5
REMARK    4  A    between atoms: C_3  and  C_6
REMARK    5  A    between atoms: C_8  and  C_13
REMARK    6  A    between atoms: C_11  and  O_12
REMARK    7  A    between atoms: N_15  and  C_16
REMARK    8  A    between atoms: C_23  and  O_25
REMARK    9  A    between atoms: O_25  and  C_26
REMARK   10  A    between atoms: C_26  and  C_28
REMARK   11  A    between atoms: C_31  and  C_34
REMARK   12  A    between atoms: C_34  and  C_36
REMARK   13  A    between atoms: C_38  and  O_39
REMARK   14  A    between atoms: O_39  and  C_40
REMARK   15  A    between atoms: C_43  and  O_44
REMARK                            x       y       z     vdW  Elec       q    Type
REMARK                         _______ _______ _______ _____ _____    ______ ____
ROOT
ATOM      1  C   UNL     1       9.636  -0.624  24.023  0.00  0.00    +0.128 C 
ATOM      2  C   UNL     1       9.575   0.854  24.590  0.00  0.00    +0.198 C 
ATOM      3  C   UNL     1      10.715   1.660  23.930  0.00  0.00    +0.048 C 
ATOM      4  C   UNL     1      10.396   2.301  22.582  0.00  0.00    +0.019 C 
ATOM      5  C   UNL     1       9.469   1.513  21.657  0.00  0.00    +0.081 C 
ATOM      6  N   UNL     1       9.800   0.088  21.552  0.00  0.00    -0.314 NA
ATOM      7  H   UNL     1       9.460  -0.224  20.639  0.00  0.00    +0.122 HD
ATOM      8  C   UNL     1       9.095  -0.731  22.568  0.00  0.00    +0.106 C 
ENDROOT
BRANCH   1  10
ATOM      9  C   UNL     1       9.258  -2.993  24.772  0.00  0.00    +0.244 C 
ATOM     10  N   UNL     1       9.071  -1.641  24.961  0.00  0.00    -0.304 N 
ATOM     11  H   UNL     1       8.434  -1.314  25.675  0.00  0.00    +0.149 HD
ATOM     12  O   UNL     1      10.147  -3.421  24.039  0.00  0.00    -0.270 OA
BRANCH   9  17
ATOM     13  C   UNL     1       6.272  -5.304  24.955  0.00  0.00    -0.002 A 
ATOM     14  C   UNL     1       6.368  -5.825  26.250  0.00  0.00    +0.120 A 
ATOM     15  C   UNL     1       7.421  -5.473  27.102  0.00  0.00    +0.046 A 
ATOM     16  C   UNL     1       8.409  -4.557  26.662  0.00  0.00    +0.016 A 
ATOM     17  C   UNL     1       8.305  -3.988  25.386  0.00  0.00    +0.037 A 
ATOM     18  C   UNL     1       7.247  -4.374  24.555  0.00  0.00    +0.020 A 
BRANCH  13  19
ATOM     19  C   UNL     1       5.247  -5.857  23.967  0.00  0.00    +0.019 C 
ATOM     20  C   UNL     1       5.934  -5.963  22.598  0.00  0.00    +0.012 C 
BRANCH  19  22
ATOM     21  C   UNL     1       2.707  -5.927  24.245  0.00  0.00    +0.004 C 
ATOM     22  C   UNL     1       3.918  -5.074  23.873  0.00  0.00    +0.004 C 
ENDBRANCH  19  22
ENDBRANCH  13  19
BRANCH  14  23
ATOM     23  O   UNL     1       5.415  -6.720  26.655  0.00  0.00    -0.506 OA
ATOM     24  H   UNL     1       5.742  -7.626  26.537  0.00  0.00    +0.292 HD
ENDBRANCH  14  23
ENDBRANCH   9  17
ENDBRANCH   1  10
BRANCH   2  25
ATOM     25  O   UNL     1       8.251   1.452  24.347  0.00  0.00    -0.456 OA
BRANCH  25  26
ATOM     26  C   UNL     1       7.399   1.896  25.318  0.00  0.00    +0.340 C 
ATOM     27  O   UNL     1       7.335   3.039  25.738  0.00  0.00    -0.245 OA
BRANCH  26  28
ATOM     28  C   UNL     1       6.480   0.747  25.772  0.00  0.00    +0.059 A 
ATOM     29  C   UNL     1       6.152  -0.283  24.890  0.00  0.00    +0.015 A 
ATOM     30  C   UNL     1       5.263  -1.317  25.254  0.00  0.00    +0.012 A 
ATOM     31  C   UNL     1       4.657  -1.412  26.525  0.00  0.00    +0.022 A 
ATOM     32  C   UNL     1       5.000  -0.396  27.435  0.00  0.00    +0.012 A 
ATOM     33  C   UNL     1       5.899   0.673  27.061  0.00  0.00    +0.015 A 
BRANCH  31  34
ATOM     34  C   UNL     1       3.622  -2.535  26.675  0.00  0.00    +0.197 C 
ATOM     35  O   UNL     1       2.674  -2.483  25.880  0.00  0.00    -0.287 OA
BRANCH  34  36
ATOM     36  C   UNL     1       3.554  -3.666  27.655  0.00  0.00    +0.067 A 
ATOM     37  C   UNL     1       2.461  -4.521  27.774  0.00  0.00    +0.128 A 
ATOM     38  C   UNL     1       2.476  -5.582  28.689  0.00  0.00    +0.050 A 
ATOM     39  C   UNL     1       3.569  -5.770  29.534  0.00  0.00    +0.049 A 
ATOM     40  C   UNL     1       4.632  -4.870  29.536  0.00  0.00    +0.121 A 
ATOM     41  C   UNL     1       4.611  -3.807  28.620  0.00  0.00    +0.061 A 
BRANCH  37  42
ATOM     42  O   UNL     1       1.318  -4.304  27.061  0.00  0.00    -0.506 OA
ATOM     43  H   UNL     1       0.606  -4.827  27.470  0.00  0.00    +0.292 HD
ENDBRANCH  37  42
BRANCH  40  44
ATOM     44  O   UNL     1       5.567  -5.179  30.482  0.00  0.00    -0.495 OA
ATOM     45  C   UNL     1       6.216  -6.440  30.484  0.00  0.00    +0.277 C 
ENDBRANCH  40  44
ENDBRANCH  34  36
ENDBRANCH  31  34
ENDBRANCH  26  28
ENDBRANCH  25  26
ENDBRANCH   2  25
TORSDOF 12
ENDMDL
MODEL 4
REMARK VINA RESULT:      -6.8      2.431      4.644
REMARK  Name = 
REMARK  15 active torsions:
REMARK  status: ('A' for Active; 'I' for Inactive)
REMARK    1  A    between atoms: C_1  and  C_2
REMARK    2  A    between atoms: C_2  and  C_3
REMARK    3  A    between atoms: C_3  and  C_5
REMARK    4  A    between atoms: C_3  and  C_6
REMARK    5  A    between atoms: C_8  and  C_13
REMARK    6  A    between atoms: C_11  and  O_12
REMARK    7  A    between atoms: N_15  and  C_16
REMARK    8  A    between atoms: C_23  and  O_25
REMARK    9  A    between atoms: O_25  and  C_26
REMARK   10  A    between atoms: C_26  and  C_28
REMARK   11  A    between atoms: C_31  and  C_34
REMARK   12  A    between atoms: C_34  and  C_36
REMARK   13  A    between atoms: C_38  and  O_39
REMARK   14  A    between atoms: O_39  and  C_40
REMARK   15  A    between atoms: C_43  and  O_44
REMARK                            x       y       z     vdW  Elec       q    Type
REMARK                         _______ _______ _______ _____ _____    ______ ____
ROOT
ATOM      1  C   UNL     1       3.324  -5.187  25.328  0.00  0.00    +0.128 C 
ATOM      2  C   UNL     1       3.912  -6.165  24.229  0.00  0.00    +0.198 C 
ATOM      3  C   UNL     1       2.901  -7.316  24.032  0.00  0.00    +0.048 C 
ATOM      4  C   UNL     1       1.780  -7.066  23.027  0.00  0.00    +0.019 C 
ATOM      5  C   UNL     1       1.239  -5.639  22.953  0.00  0.00    +0.081 C 
ATOM      6  N   UNL     1       0.984  -5.027  24.262  0.00  0.00    -0.314 NA
ATOM      7  H   UNL     1       0.251  -4.328  24.121  0.00  0.00    +0.122 HD
ATOM      8  C   UNL     1       2.166  -4.301  24.785  0.00  0.00    +0.106 C 
ENDROOT
BRANCH   1  10
ATOM      9  C   UNL     1       4.633  -3.097  25.816  0.00  0.00    +0.244 C 
ATOM     10  N   UNL     1       4.378  -4.428  26.068  0.00  0.00    -0.304 N 
ATOM     11  H   UNL     1       4.991  -4.954  26.675  0.00  0.00    +0.149 HD
ATOM     12  O   UNL     1       3.819  -2.389  25.229  0.00  0.00    -0.270 OA
BRANCH   9  17
ATOM     13  C   UNL     1       7.132  -0.373  26.607  0.00  0.00    -0.002 A 
ATOM     14  C   UNL     1       8.314  -1.093  26.811  0.00  0.00    +0.120 A 
ATOM     15  C   UNL     1       8.340  -2.490  26.733  0.00  0.00    +0.046 A 
ATOM     16  C   UNL     1       7.155  -3.203  26.423  0.00  0.00    +0.016 A 
ATOM     17  C   UNL     1       5.971  -2.498  26.169  0.00  0.00    +0.037 A 
ATOM     18  C   UNL     1       5.978  -1.101  26.271  0.00  0.00    +0.020 A 
BRANCH  13  19
ATOM     19  C   UNL     1       7.069   1.123  26.906  0.00  0.00    +0.019 C 
ATOM     20  C   UNL     1       6.633   1.285  28.369  0.00  0.00    +0.012 C 
BRANCH  19  22
ATOM     21  C   UNL     1       5.940   3.375  26.472  0.00  0.00    +0.004 C 
ATOM     22  C   UNL     1       6.181   1.959  25.955  0.00  0.00    +0.004 C 
ENDBRANCH  19  22
ENDBRANCH  13  19
BRANCH  14  23
ATOM     23  O   UNL     1       9.447  -0.392  27.124  0.00  0.00    -0.506 OA
ATOM     24  H   UNL     1       9.349   0.022  27.996  0.00  0.00    +0.292 HD
ENDBRANCH  14  23
ENDBRANCH   9  17
ENDBRANCH   1  10
BRANCH   2  25
ATOM     25  O   UNL     1       4.186  -5.439  22.976  0.00  0.00    -0.456 OA
BRANCH  25  26
ATOM     26  C   UNL     1       5.329  -5.550  22.237  0.00  0.00    +0.340 C 
ATOM     27  O   UNL     1       5.609  -6.477  21.496  0.00  0.00    -0.245 OA
BRANCH  26  28
ATOM     28  C   UNL     1       6.200  -4.295  22.430  0.00  0.00    +0.059 A 
ATOM     29  C   UNL     1       7.562  -4.419  22.704  0.00  0.00    +0.015 A 
ATOM     30  C   UNL     1       8.376  -3.292  22.948  0.00  0.00    +0.012 A 
ATOM     31  C   UNL     1       7.898  -1.965  22.915  0.00  0.00    +0.022 A 
ATOM     32  C   UNL     1       6.532  -1.821  22.613  0.00  0.00    +0.012 A 
ATOM     33  C   UNL     1       5.693  -2.974  22.377  0.00  0.00    +0.015 A 
BRANCH  31  34
ATOM     34  C   UNL     1       8.911  -0.892  23.339  0.00  0.00    +0.197 C 
ATOM     35  O   UNL     1       9.988  -1.329  23.768  0.00  0.00    -0.287 OA
BRANCH  34  36
ATOM     36  C   UNL     1       8.795   0.601  23.350  0.00  0.00    +0.067 A 
ATOM     37  C   UNL     1       9.607   1.434  24.116  0.00  0.00    +0.128 A 
ATOM     38  C   UNL     1       9.468   2.827  24.054  0.00  0.00    +0.050 A 
ATOM     39  C   UNL     1       8.477   3.403  23.259  0.00  0.00    +0.049 A 
ATOM     40  C   UNL     1       7.563   2.607  22.570  0.00  0.00    +0.121 A 
ATOM     41  C   UNL     1       7.705   1.213  22.638  0.00  0.00    +0.061 A 
BRANCH  37  42
ATOM     42  O   UNL     1      10.506   0.917  25.003  0.00  0.00    -0.506 OA
ATOM     43  H   UNL     1      11.135   1.623  25.237  0.00  0.00    +0.292 HD
ENDBRANCH  37  42
BRANCH  40  44
ATOM     44  O   UNL     1       6.627   3.352  21.913  0.00  0.00    -0.495 OA
ATOM     45  C   UNL     1       5.567   3.980  22.614  0.00  0.00    +0.277 C 
ENDBRANCH  40  44
ENDBRANCH  34  36
ENDBRANCH  31  34
ENDBRANCH  26  28
ENDBRANCH  25  26
ENDBRANCH   2  25
TORSDOF 12
ENDMDL
MODEL 5
REMARK VINA RESULT:      -6.8      2.503      7.695
REMARK  Name = 
REMARK  15 active torsions:
REMARK  status: ('A' for Active; 'I' for Inactive)
REMARK    1  A    between atoms: C_1  and  C_2
REMARK    2  A    between atoms: C_2  and  C_3
REMARK    3  A    between atoms: C_3  and  C_5
REMARK    4  A    between atoms: C_3  and  C_6
REMARK    5  A    between atoms: C_8  and  C_13
REMARK    6  A    between atoms: C_11  and  O_12
REMARK    7  A    between atoms: N_15  and  C_16
REMARK    8  A    between atoms: C_23  and  O_25
REMARK    9  A    between atoms: O_25  and  C_26
REMARK   10  A    between atoms: C_26  and  C_28
REMARK   11  A    between atoms: C_31  and  C_34
REMARK   12  A    between atoms: C_34  and  C_36
REMARK   13  A    between atoms: C_38  and  O_39
REMARK   14  A    between atoms: O_39  and  C_40
REMARK   15  A    between atoms: C_43  and  O_44
REMARK                            x       y       z     vdW  Elec       q    Type
REMARK                         _______ _______ _______ _____ _____    ______ ____
ROOT
ATOM      1  C   UNL     1       9.595  -0.611  24.066  0.00  0.00    +0.128 C 
ATOM      2  C   UNL     1       9.589   0.848  24.686  0.00  0.00    +0.198 C 
ATOM      3  C   UNL     1      10.740   1.643  24.032  0.00  0.00    +0.048 C 
ATOM      4  C   UNL     1      10.415   2.341  22.714  0.00  0.00    +0.019 C 
ATOM      5  C   UNL     1       9.448   1.614  21.781  0.00  0.00    +0.081 C 
ATOM      6  N   UNL     1       9.733   0.185  21.619  0.00  0.00    -0.314 NA
ATOM      7  H   UNL     1       9.368  -0.085  20.703  0.00  0.00    +0.122 HD
ATOM      8  C   UNL     1       9.024  -0.650  22.620  0.00  0.00    +0.106 C 
ENDROOT
BRANCH   1  10
ATOM      9  C   UNL     1       9.220  -2.992  24.778  0.00  0.00    +0.244 C 
ATOM     10  N   UNL     1       9.017  -1.643  24.979  0.00  0.00    -0.304 N 
ATOM     11  H   UNL     1       8.362  -1.330  25.682  0.00  0.00    +0.149 HD
ATOM     12  O   UNL     1      10.129  -3.402  24.061  0.00  0.00    -0.270 OA
BRANCH   9  17
ATOM     13  C   UNL     1       6.185  -5.242  24.910  0.00  0.00    -0.002 A 
ATOM     14  C   UNL     1       6.308  -5.845  26.167  0.00  0.00    +0.120 A 
ATOM     15  C   UNL     1       7.394  -5.572  27.005  0.00  0.00    +0.046 A 
ATOM     16  C   UNL     1       8.390  -4.652  26.593  0.00  0.00    +0.016 A 
ATOM     17  C   UNL     1       8.263  -4.001  25.358  0.00  0.00    +0.037 A 
ATOM     18  C   UNL     1       7.170  -4.310  24.539  0.00  0.00    +0.020 A 
BRANCH  13  19
ATOM     19  C   UNL     1       5.118  -5.708  23.922  0.00  0.00    +0.019 C 
ATOM     20  C   UNL     1       5.836  -6.138  22.635  0.00  0.00    +0.012 C 
BRANCH  19  22
ATOM     21  C   UNL     1       2.651  -5.371  23.343  0.00  0.00    +0.004 C 
ATOM     22  C   UNL     1       3.990  -4.693  23.628  0.00  0.00    +0.004 C 
ENDBRANCH  19  22
ENDBRANCH  13  19
BRANCH  14  23
ATOM     23  O   UNL     1       5.346  -6.743  26.544  0.00  0.00    -0.506 OA
ATOM     24  H   UNL     1       4.532  -6.273  26.785  0.00  0.00    +0.292 HD
ENDBRANCH  14  23
ENDBRANCH   9  17
ENDBRANCH   1  10
BRANCH   2  25
ATOM     25  O   UNL     1       8.279   1.493  24.491  0.00  0.00    -0.456 OA
BRANCH  25  26
ATOM     26  C   UNL     1       7.422   1.850  25.492  0.00  0.00    +0.340 C 
ATOM     27  O   UNL     1       7.340   2.959  25.995  0.00  0.00    -0.245 OA
BRANCH  26  28
ATOM     28  C   UNL     1       6.523   0.656  25.862  0.00  0.00    +0.059 A 
ATOM     29  C   UNL     1       6.229   0.384  27.198  0.00  0.00    +0.015 A 
ATOM     30  C   UNL     1       5.461  -0.738  27.576  0.00  0.00    +0.012 A 
ATOM     31  C   UNL     1       4.913  -1.653  26.652  0.00  0.00    +0.022 A 
ATOM     32  C   UNL     1       5.177  -1.377  25.298  0.00  0.00    +0.012 A 
ATOM     33  C   UNL     1       5.976  -0.236  24.909  0.00  0.00    +0.015 A 
BRANCH  31  34
ATOM     34  C   UNL     1       4.223  -2.876  27.271  0.00  0.00    +0.197 C 
ATOM     35  O   UNL     1       4.854  -3.428  28.183  0.00  0.00    -0.287 OA
BRANCH  34  36
ATOM     36  C   UNL     1       2.922  -3.534  26.925  0.00  0.00    +0.067 A 
ATOM     37  C   UNL     1       1.811  -2.845  26.444  0.00  0.00    +0.128 A 
ATOM     38  C   UNL     1       0.634  -3.527  26.106  0.00  0.00    +0.050 A 
ATOM     39  C   UNL     1       0.539  -4.905  26.294  0.00  0.00    +0.049 A 
ATOM     40  C   UNL     1       1.580  -5.619  26.885  0.00  0.00    +0.121 A 
ATOM     41  C   UNL     1       2.755  -4.931  27.224  0.00  0.00    +0.061 A 
BRANCH  37  42
ATOM     42  O   UNL     1       1.811  -1.483  26.361  0.00  0.00    -0.506 OA
ATOM     43  H   UNL     1       2.642  -1.160  26.755  0.00  0.00    +0.292 HD
ENDBRANCH  37  42
BRANCH  40  44
ATOM     44  O   UNL     1       1.269  -6.938  27.053  0.00  0.00    -0.495 OA
ATOM     45  C   UNL     1       1.569  -7.894  26.050  0.00  0.00    +0.277 C 
ENDBRANCH  40  44
ENDBRANCH  34  36
ENDBRANCH  31  34
ENDBRANCH  26  28
ENDBRANCH  25  26
ENDBRANCH   2  25
TORSDOF 12
ENDMDL
MODEL 6
REMARK VINA RESULT:      -6.7      2.220      4.889
REMARK  Name = 
REMARK  15 active torsions:
REMARK  status: ('A' for Active; 'I' for Inactive)
REMARK    1  A    between atoms: C_1  and  C_2
REMARK    2  A    between atoms: C_2  and  C_3
REMARK    3  A    between atoms: C_3  and  C_5
REMARK    4  A    between atoms: C_3  and  C_6
REMARK    5  A    between atoms: C_8  and  C_13
REMARK    6  A    between atoms: C_11  and  O_12
REMARK    7  A    between atoms: N_15  and  C_16
REMARK    8  A    between atoms: C_23  and  O_25
REMARK    9  A    between atoms: O_25  and  C_26
REMARK   10  A    between atoms: C_26  and  C_28
REMARK   11  A    between atoms: C_31  and  C_34
REMARK   12  A    between atoms: C_34  and  C_36
REMARK   13  A    between atoms: C_38  and  O_39
REMARK   14  A    between atoms: O_39  and  C_40
REMARK   15  A    between atoms: C_43  and  O_44
REMARK                            x       y       z     vdW  Elec       q    Type
REMARK                         _______ _______ _______ _____ _____    ______ ____
ROOT
ATOM      1  C   UNL     1       3.841  -3.782  26.481  0.00  0.00    +0.128 C 
ATOM      2  C   UNL     1       4.173  -5.145  27.219  0.00  0.00    +0.198 C 
ATOM      3  C   UNL     1       2.949  -6.074  27.068  0.00  0.00    +0.048 C 
ATOM      4  C   UNL     1       2.896  -6.921  25.800  0.00  0.00    +0.019 C 
ATOM      5  C   UNL     1       3.447  -6.277  24.529  0.00  0.00    +0.081 C 
ATOM      6  N   UNL     1       2.999  -4.896  24.316  0.00  0.00    -0.314 NA
ATOM      7  H   UNL     1       3.028  -4.731  23.307  0.00  0.00    +0.122 HD
ATOM      8  C   UNL     1       3.914  -3.905  24.933  0.00  0.00    +0.106 C 
ENDROOT
BRANCH   1  10
ATOM      9  C   UNL     1       4.221  -1.313  26.757  0.00  0.00    +0.244 C 
ATOM     10  N   UNL     1       4.586  -2.612  27.037  0.00  0.00    -0.304 N 
ATOM     11  H   UNL     1       5.451  -2.800  27.527  0.00  0.00    +0.149 HD
ATOM     12  O   UNL     1       3.104  -1.041  26.324  0.00  0.00    -0.270 OA
BRANCH   9  17
ATOM     13  C   UNL     1       6.037   1.863  25.807  0.00  0.00    -0.002 A 
ATOM     14  C   UNL     1       6.975   1.999  26.837  0.00  0.00    +0.120 A 
ATOM     15  C   UNL     1       7.032   1.085  27.896  0.00  0.00    +0.046 A 
ATOM     16  C   UNL     1       6.141  -0.016  27.928  0.00  0.00    +0.016 A 
ATOM     17  C   UNL     1       5.226  -0.196  26.882  0.00  0.00    +0.037 A 
ATOM     18  C   UNL     1       5.185   0.746  25.847  0.00  0.00    +0.020 A 
BRANCH  13  19
ATOM     19  C   UNL     1       5.841   2.977  24.780  0.00  0.00    +0.019 C 
ATOM     20  C   UNL     1       4.589   3.766  25.186  0.00  0.00    +0.012 C 
BRANCH  19  22
ATOM     21  C   UNL     1       4.628   3.189  22.540  0.00  0.00    +0.004 C 
ATOM     22  C   UNL     1       5.768   2.520  23.305  0.00  0.00    +0.004 C 
ENDBRANCH  19  22
ENDBRANCH  13  19
BRANCH  14  23
ATOM     23  O   UNL     1       7.818   3.075  26.800  0.00  0.00    -0.506 OA
ATOM     24  H   UNL     1       8.704   2.812  27.096  0.00  0.00    +0.292 HD
ENDBRANCH  14  23
ENDBRANCH   9  17
ENDBRANCH   1  10
BRANCH   2  25
ATOM     25  O   UNL     1       5.404  -5.746  26.676  0.00  0.00    -0.456 OA
BRANCH  25  26
ATOM     26  C   UNL     1       6.663  -5.529  27.157  0.00  0.00    +0.340 C 
ATOM     27  O   UNL     1       7.174  -6.112  28.099  0.00  0.00    -0.245 OA
BRANCH  26  28
ATOM     28  C   UNL     1       7.377  -4.470  26.296  0.00  0.00    +0.059 A 
ATOM     29  C   UNL     1       7.570  -4.686  24.932  0.00  0.00    +0.015 A 
ATOM     30  C   UNL     1       8.274  -3.765  24.127  0.00  0.00    +0.012 A 
ATOM     31  C   UNL     1       8.815  -2.557  24.617  0.00  0.00    +0.022 A 
ATOM     32  C   UNL     1       8.604  -2.312  25.986  0.00  0.00    +0.012 A 
ATOM     33  C   UNL     1       7.895  -3.260  26.816  0.00  0.00    +0.015 A 
BRANCH  31  34
ATOM     34  C   UNL     1       9.658  -1.760  23.612  0.00  0.00    +0.197 C 
ATOM     35  O   UNL     1      10.622  -2.373  23.135  0.00  0.00    -0.287 OA
BRANCH  34  36
ATOM     36  C   UNL     1       9.522  -0.345  23.139  0.00  0.00    +0.067 A 
ATOM     37  C   UNL     1       9.418   0.016  21.798  0.00  0.00    +0.128 A 
ATOM     38  C   UNL     1       9.259   1.357  21.425  0.00  0.00    +0.050 A 
ATOM     39  C   UNL     1       9.252   2.362  22.392  0.00  0.00    +0.049 A 
ATOM     40  C   UNL     1       9.474   2.061  23.735  0.00  0.00    +0.121 A 
ATOM     41  C   UNL     1       9.636   0.717  24.102  0.00  0.00    +0.061 A 
BRANCH  37  42
ATOM     42  O   UNL     1       9.545  -0.916  20.808  0.00  0.00    -0.506 OA
ATOM     43  H   UNL     1       9.053  -0.595  20.031  0.00  0.00    +0.292 HD
ENDBRANCH  37  42
BRANCH  40  44
ATOM     44  O   UNL     1       9.507   3.182  24.514  0.00  0.00    -0.495 OA
ATOM     45  C   UNL     1       9.270   4.466  23.960  0.00  0.00    +0.277 C 
ENDBRANCH  40  44
ENDBRANCH  34  36
ENDBRANCH  31  34
ENDBRANCH  26  28
ENDBRANCH  25  26
ENDBRANCH   2  25
TORSDOF 12
ENDMDL
MODEL 7
REMARK VINA RESULT:      -6.7      2.711      8.434
REMARK  Name = 
REMARK  15 active torsions:
REMARK  status: ('A' for Active; 'I' for Inactive)
REMARK    1  A    between atoms: C_1  and  C_2
REMARK    2  A    between atoms: C_2  and  C_3
REMARK    3  A    between atoms: C_3  and  C_5
REMARK    4  A    between atoms: C_3  and  C_6
REMARK    5  A    between atoms: C_8  and  C_13
REMARK    6  A    between atoms: C_11  and  O_12
REMARK    7  A    between atoms: N_15  and  C_16
REMARK    8  A    between atoms: C_23  and  O_25
REMARK    9  A    between atoms: O_25  and  C_26
REMARK   10  A    between atoms: C_26  and  C_28
REMARK   11  A    between atoms: C_31  and  C_34
REMARK   12  A    between atoms: C_34  and  C_36
REMARK   13  A    between atoms: C_38  and  O_39
REMARK   14  A    between atoms: O_39  and  C_40
REMARK   15  A    between atoms: C_43  and  O_44
REMARK                            x       y       z     vdW  Elec       q    Type
REMARK                         _______ _______ _______ _____ _____    ______ ____
ROOT
ATOM      1  C   UNL     1       7.422   1.179  23.906  0.00  0.00    +0.128 C 
ATOM      2  C   UNL     1       8.231   0.204  22.955  0.00  0.00    +0.198 C 
ATOM      3  C   UNL     1       8.886   1.059  21.849  0.00  0.00    +0.048 C 
ATOM      4  C   UNL     1      10.249   1.662  22.179  0.00  0.00    +0.019 C 
ATOM      5  C   UNL     1      10.465   2.104  23.625  0.00  0.00    +0.081 C 
ATOM      6  N   UNL     1       9.347   2.869  24.189  0.00  0.00    -0.314 NA
ATOM      7  H   UNL     1       9.741   3.468  24.918  0.00  0.00    +0.122 HD
ATOM      8  C   UNL     1       8.346   1.998  24.853  0.00  0.00    +0.106 C 
ENDROOT
BRANCH   1  10
ATOM      9  C   UNL     1       5.933   0.814  25.897  0.00  0.00    +0.244 C 
ATOM     10  N   UNL     1       6.275   0.515  24.596  0.00  0.00    -0.304 N 
ATOM     11  H   UNL     1       5.831  -0.260  24.123  0.00  0.00    +0.149 HD
ATOM     12  O   UNL     1       6.320   1.846  26.440  0.00  0.00    -0.270 OA
BRANCH   9  17
ATOM     13  C   UNL     1       3.758  -2.198  26.598  0.00  0.00    -0.002 A 
ATOM     14  C   UNL     1       3.618  -2.155  27.990  0.00  0.00    +0.120 A 
ATOM     15  C   UNL     1       4.248  -1.169  28.757  0.00  0.00    +0.046 A 
ATOM     16  C   UNL     1       5.034  -0.176  28.123  0.00  0.00    +0.016 A 
ATOM     17  C   UNL     1       5.150  -0.172  26.726  0.00  0.00    +0.037 A 
ATOM     18  C   UNL     1       4.518  -1.183  25.991  0.00  0.00    +0.020 A 
BRANCH  13  19
ATOM     19  C   UNL     1       3.247  -3.395  25.799  0.00  0.00    +0.019 C 
ATOM     20  C   UNL     1       4.143  -3.541  24.561  0.00  0.00    +0.012 C 
BRANCH  19  22
ATOM     21  C   UNL     1       1.368  -4.453  24.427  0.00  0.00    +0.004 C 
ATOM     22  C   UNL     1       1.751  -3.352  25.414  0.00  0.00    +0.004 C 
ENDBRANCH  19  22
ENDBRANCH  13  19
BRANCH  14  23
ATOM     23  O   UNL     1       2.868  -3.131  28.589  0.00  0.00    -0.506 OA
ATOM     24  H   UNL     1       3.426  -3.897  28.795  0.00  0.00    +0.292 HD
ENDBRANCH  14  23
ENDBRANCH   9  17
ENDBRANCH   1  10
BRANCH   2  25
ATOM     25  O   UNL     1       9.220  -0.573  23.723  0.00  0.00    -0.456 OA
BRANCH  25  26
ATOM     26  C   UNL     1       9.531  -1.884  23.505  0.00  0.00    +0.340 C 
ATOM     27  O   UNL     1      10.285  -2.302  22.641  0.00  0.00    -0.245 OA
BRANCH  26  28
ATOM     28  C   UNL     1       8.831  -2.769  24.553  0.00  0.00    +0.059 A 
ATOM     29  C   UNL     1       8.791  -4.154  24.391  0.00  0.00    +0.015 A 
ATOM     30  C   UNL     1       8.104  -4.988  25.299  0.00  0.00    +0.012 A 
ATOM     31  C   UNL     1       7.429  -4.507  26.441  0.00  0.00    +0.022 A 
ATOM     32  C   UNL     1       7.484  -3.115  26.634  0.00  0.00    +0.012 A 
ATOM     33  C   UNL     1       8.175  -2.256  25.698  0.00  0.00    +0.015 A 
BRANCH  31  34
ATOM     34  C   UNL     1       6.634  -5.559  27.226  0.00  0.00    +0.197 C 
ATOM     35  O   UNL     1       7.238  -6.067  28.181  0.00  0.00    -0.287 OA
BRANCH  34  36
ATOM     36  C   UNL     1       5.255  -6.099  27.001  0.00  0.00    +0.067 A 
ATOM     37  C   UNL     1       4.251  -6.081  27.966  0.00  0.00    +0.128 A 
ATOM     38  C   UNL     1       2.970  -6.572  27.678  0.00  0.00    +0.050 A 
ATOM     39  C   UNL     1       2.694  -7.135  26.433  0.00  0.00    +0.049 A 
ATOM     40  C   UNL     1       3.698  -7.285  25.479  0.00  0.00    +0.121 A 
ATOM     41  C   UNL     1       4.979  -6.795  25.772  0.00  0.00    +0.061 A 
BRANCH  37  42
ATOM     42  O   UNL     1       4.506  -5.657  29.237  0.00  0.00    -0.506 OA
ATOM     43  H   UNL     1       3.671  -5.331  29.617  0.00  0.00    +0.292 HD
ENDBRANCH  37  42
BRANCH  40  44
ATOM     44  O   UNL     1       3.251  -7.925  24.358  0.00  0.00    -0.495 OA
ATOM     45  C   UNL     1       1.923  -8.415  24.276  0.00  0.00    +0.277 C 
ENDBRANCH  40  44
ENDBRANCH  34  36
ENDBRANCH  31  34
ENDBRANCH  26  28
ENDBRANCH  25  26
ENDBRANCH   2  25
TORSDOF 12
ENDMDL
MODEL 8
REMARK VINA RESULT:      -6.6      3.555      6.700
REMARK  Name = 
REMARK  15 active torsions:
REMARK  status: ('A' for Active; 'I' for Inactive)
REMARK    1  A    between atoms: C_1  and  C_2
REMARK    2  A    between atoms: C_2  and  C_3
REMARK    3  A    between atoms: C_3  and  C_5
REMARK    4  A    between atoms: C_3  and  C_6
REMARK    5  A    between atoms: C_8  and  C_13
REMARK    6  A    between atoms: C_11  and  O_12
REMARK    7  A    between atoms: N_15  and  C_16
REMARK    8  A    between atoms: C_23  and  O_25
REMARK    9  A    between atoms: O_25  and  C_26
REMARK   10  A    between atoms: C_26  and  C_28
REMARK   11  A    between atoms: C_31  and  C_34
REMARK   12  A    between atoms: C_34  and  C_36
REMARK   13  A    between atoms: C_38  and  O_39
REMARK   14  A    between atoms: O_39  and  C_40
REMARK   15  A    between atoms: C_43  and  O_44
REMARK                            x       y       z     vdW  Elec       q    Type
REMARK                         _______ _______ _______ _____ _____    ______ ____
ROOT
ATOM      1  C   UNL     1       5.962  -3.241  24.356  0.00  0.00    +0.128 C 
ATOM      2  C   UNL     1       7.409  -3.882  24.273  0.00  0.00    +0.198 C 
ATOM      3  C   UNL     1       7.253  -5.334  23.770  0.00  0.00    +0.048 C 
ATOM      4  C   UNL     1       7.221  -5.524  22.256  0.00  0.00    +0.019 C 
ATOM      5  C   UNL     1       6.533  -4.426  21.447  0.00  0.00    +0.081 C 
ATOM      6  N   UNL     1       5.244  -3.995  21.999  0.00  0.00    -0.314 NA
ATOM      7  H   UNL     1       4.694  -3.639  21.214  0.00  0.00    +0.122 HD
ATOM      8  C   UNL     1       5.388  -2.872  22.958  0.00  0.00    +0.106 C 
ENDROOT
BRANCH   1  10
ATOM      9  C   UNL     1       6.252  -0.854  25.087  0.00  0.00    +0.244 C 
ATOM     10  N   UNL     1       5.859  -2.145  25.366  0.00  0.00    -0.304 N 
ATOM     11  H   UNL     1       5.609  -2.403  26.311  0.00  0.00    +0.149 HD
ATOM     12  O   UNL     1       6.393  -0.463  23.930  0.00  0.00    -0.270 OA
BRANCH   9  17
ATOM     13  C   UNL     1       6.490   2.437  26.933  0.00  0.00    -0.002 A 
ATOM     14  C   UNL     1       7.167   2.081  28.105  0.00  0.00    +0.120 A 
ATOM     15  C   UNL     1       7.543   0.757  28.357  0.00  0.00    +0.046 A 
ATOM     16  C   UNL     1       7.254  -0.253  27.405  0.00  0.00    +0.016 A 
ATOM     17  C   UNL     1       6.619   0.090  26.204  0.00  0.00    +0.037 A 
ATOM     18  C   UNL     1       6.244   1.422  25.992  0.00  0.00    +0.020 A 
BRANCH  13  19
ATOM     19  C   UNL     1       5.898   3.835  26.769  0.00  0.00    +0.019 C 
ATOM     20  C   UNL     1       4.641   3.706  25.897  0.00  0.00    +0.012 C 
BRANCH  19  22
ATOM     21  C   UNL     1       6.278   6.318  26.291  0.00  0.00    +0.004 C 
ATOM     22  C   UNL     1       6.863   4.909  26.215  0.00  0.00    +0.004 C 
ENDBRANCH  19  22
ENDBRANCH  13  19
BRANCH  14  23
ATOM     23  O   UNL     1       7.425   3.064  29.021  0.00  0.00    -0.506 OA
ATOM     24  H   UNL     1       8.352   3.018  29.303  0.00  0.00    +0.292 HD
ENDBRANCH  14  23
ENDBRANCH   9  17
ENDBRANCH   1  10
BRANCH   2  25
ATOM     25  O   UNL     1       8.287  -3.079  23.405  0.00  0.00    -0.456 OA
BRANCH  25  26
ATOM     26  C   UNL     1       9.553  -2.677  23.723  0.00  0.00    +0.340 C 
ATOM     27  O   UNL     1      10.460  -3.409  24.084  0.00  0.00    -0.245 OA
BRANCH  26  28
ATOM     28  C   UNL     1       9.691  -1.159  23.504  0.00  0.00    +0.059 A 
ATOM     29  C   UNL     1       9.830  -0.301  24.595  0.00  0.00    +0.015 A 
ATOM     30  C   UNL     1       9.896   1.100  24.433  0.00  0.00    +0.012 A 
ATOM     31  C   UNL     1       9.852   1.742  23.177  0.00  0.00    +0.022 A 
ATOM     32  C   UNL     1       9.739   0.887  22.065  0.00  0.00    +0.012 A 
ATOM     33  C   UNL     1       9.657  -0.547  22.228  0.00  0.00    +0.015 A 
BRANCH  31  34
ATOM     34  C   UNL     1       9.803   3.275  23.226  0.00  0.00    +0.197 C 
ATOM     35  O   UNL     1      10.873   3.823  23.523  0.00  0.00    -0.287 OA
BRANCH  34  36
ATOM     36  C   UNL     1       8.660   4.216  23.005  0.00  0.00    +0.067 A 
ATOM     37  C   UNL     1       8.788   5.604  23.007  0.00  0.00    +0.128 A 
ATOM     38  C   UNL     1       7.682   6.428  22.759  0.00  0.00    +0.050 A 
ATOM     39  C   UNL     1       6.420   5.872  22.555  0.00  0.00    +0.049 A 
ATOM     40  C   UNL     1       6.220   4.497  22.664  0.00  0.00    +0.121 A 
ATOM     41  C   UNL     1       7.330   3.676  22.915  0.00  0.00    +0.061 A 
BRANCH  37  42
ATOM     42  O   UNL     1       9.975   6.198  23.325  0.00  0.00    -0.506 OA
ATOM     43  H   UNL     1      10.685   5.549  23.171  0.00  0.00    +0.292 HD
ENDBRANCH  37  42
BRANCH  40  44
ATOM     44  O   UNL     1       4.907   4.155  22.507  0.00  0.00    -0.495 OA
ATOM     45  C   UNL     1       3.885   5.136  22.551  0.00  0.00    +0.277 C 
ENDBRANCH  40  44
ENDBRANCH  34  36
ENDBRANCH  31  34
ENDBRANCH  26  28
ENDBRANCH  25  26
ENDBRANCH   2  25
TORSDOF 12
ENDMDL
MODEL 9
REMARK VINA RESULT:      -6.5      3.146      6.921
REMARK  Name = 
REMARK  15 active torsions:
REMARK  status: ('A' for Active; 'I' for Inactive)
REMARK    1  A    between atoms: C_1  and  C_2
REMARK    2  A    between atoms: C_2  and  C_3
REMARK    3  A    between atoms: C_3  and  C_5
REMARK    4  A    between atoms: C_3  and  C_6
REMARK    5  A    between atoms: C_8  and  C_13
REMARK    6  A    between atoms: C_11  and  O_12
REMARK    7  A    between atoms: N_15  and  C_16
REMARK    8  A    between atoms: C_23  and  O_25
REMARK    9  A    between atoms: O_25  and  C_26
REMARK   10  A    between atoms: C_26  and  C_28
REMARK   11  A    between atoms: C_31  and  C_34
REMARK   12  A    between atoms: C_34  and  C_36
REMARK   13  A    between atoms: C_38  and  O_39
REMARK   14  A    between atoms: O_39  and  C_40
REMARK   15  A    between atoms: C_43  and  O_44
REMARK                            x       y       z     vdW  Elec       q    Type
REMARK                         _______ _______ _______ _____ _____    ______ ____
ROOT
ATOM      1  C   UNL     1       5.944  -3.273  23.962  0.00  0.00    +0.128 C 
ATOM      2  C   UNL     1       7.473  -3.688  23.935  0.00  0.00    +0.198 C 
ATOM      3  C   UNL     1       7.543  -5.226  23.820  0.00  0.00    +0.048 C 
ATOM      4  C   UNL     1       7.493  -5.802  22.408  0.00  0.00    +0.019 C 
ATOM      5  C   UNL     1       6.607  -5.065  21.405  0.00  0.00    +0.081 C 
ATOM      6  N   UNL     1       5.283  -4.707  21.926  0.00  0.00    -0.314 NA
ATOM      7  H   UNL     1       4.656  -4.652  21.120  0.00  0.00    +0.122 HD
ATOM      8  C   UNL     1       5.271  -3.367  22.563  0.00  0.00    +0.106 C 
ENDROOT
BRANCH   1  10
ATOM      9  C   UNL     1       5.470  -1.930  26.033  0.00  0.00    +0.244 C 
ATOM     10  N   UNL     1       5.694  -1.983  24.674  0.00  0.00    -0.304 N 
ATOM     11  H   UNL     1       5.568  -1.155  24.109  0.00  0.00    +0.149 HD
ATOM     12  O   UNL     1       5.780  -2.863  26.770  0.00  0.00    -0.270 OA
BRANCH   9  17
ATOM     13  C   UNL     1       4.826   1.681  26.946  0.00  0.00    -0.002 A 
ATOM     14  C   UNL     1       3.624   1.606  27.659  0.00  0.00    +0.120 A 
ATOM     15  C   UNL     1       2.960   0.388  27.842  0.00  0.00    +0.046 A 
ATOM     16  C   UNL     1       3.514  -0.805  27.316  0.00  0.00    +0.016 A 
ATOM     17  C   UNL     1       4.740  -0.759  26.640  0.00  0.00    +0.037 A 
ATOM     18  C   UNL     1       5.370   0.479  26.461  0.00  0.00    +0.020 A 
BRANCH  13  19
ATOM     19  C   UNL     1       5.425   3.034  26.569  0.00  0.00    +0.019 C 
ATOM     20  C   UNL     1       4.969   3.360  25.139  0.00  0.00    +0.012 C 
BRANCH  19  22
ATOM     21  C   UNL     1       7.443   4.598  26.702  0.00  0.00    +0.004 C 
ATOM     22  C   UNL     1       6.960   3.149  26.713  0.00  0.00    +0.004 C 
ENDBRANCH  19  22
ENDBRANCH  13  19
BRANCH  14  23
ATOM     23  O   UNL     1       3.094   2.769  28.147  0.00  0.00    -0.506 OA
ATOM     24  H   UNL     1       3.051   3.435  27.443  0.00  0.00    +0.292 HD
ENDBRANCH  14  23
ENDBRANCH   9  17
ENDBRANCH   1  10
BRANCH   2  25
ATOM     25  O   UNL     1       8.178  -3.011  22.832  0.00  0.00    -0.456 OA
BRANCH  25  26
ATOM     26  C   UNL     1       9.305  -2.252  22.968  0.00  0.00    +0.340 C 
ATOM     27  O   UNL     1      10.432  -2.681  23.155  0.00  0.00    -0.245 OA
BRANCH  26  28
ATOM     28  C   UNL     1       8.957  -0.762  22.793  0.00  0.00    +0.059 A 
ATOM     29  C   UNL     1       8.337  -0.058  23.825  0.00  0.00    +0.015 A 
ATOM     30  C   UNL     1       7.948   1.290  23.675  0.00  0.00    +0.012 A 
ATOM     31  C   UNL     1       8.168   2.038  22.499  0.00  0.00    +0.022 A 
ATOM     32  C   UNL     1       8.817   1.349  21.458  0.00  0.00    +0.012 A 
ATOM     33  C   UNL     1       9.204  -0.036  21.603  0.00  0.00    +0.015 A 
BRANCH  31  34
ATOM     34  C   UNL     1       7.552   3.443  22.490  0.00  0.00    +0.197 C 
ATOM     35  O   UNL     1       6.491   3.546  21.861  0.00  0.00    -0.287 OA
BRANCH  34  36
ATOM     36  C   UNL     1       8.048   4.723  23.091  0.00  0.00    +0.067 A 
ATOM     37  C   UNL     1       7.259   5.860  23.248  0.00  0.00    +0.128 A 
ATOM     38  C   UNL     1       7.776   7.015  23.850  0.00  0.00    +0.050 A 
ATOM     39  C   UNL     1       9.108   7.061  24.259  0.00  0.00    +0.049 A 
ATOM     40  C   UNL     1       9.968   5.992  24.014  0.00  0.00    +0.121 A 
ATOM     41  C   UNL     1       9.446   4.839  23.408  0.00  0.00    +0.061 A 
BRANCH  37  42
ATOM     42  O   UNL     1       5.989   5.908  22.751  0.00  0.00    -0.506 OA
ATOM     43  H   UNL     1       5.723   4.999  22.524  0.00  0.00    +0.292 HD
ENDBRANCH  37  42
BRANCH  40  44
ATOM     44  O   UNL     1      11.245   6.256  24.418  0.00  0.00    -0.495 OA
ATOM     45  C   UNL     1      12.353   5.624  23.801  0.00  0.00    +0.277 C 
ENDBRANCH  40  44
ENDBRANCH  34  36
ENDBRANCH  31  34
ENDBRANCH  26  28
ENDBRANCH  25  26
ENDBRANCH   2  25
TORSDOF 12
ENDMDL
