MODEL 1
REMARK VINA RESULT:      -5.8      0.000      0.000
REMARK  Name = 
REMARK  8 active torsions:
REMARK  status: ('A' for Active; 'I' for Inactive)
REMARK    1  A    between atoms: C_1  and  C_2
REMARK    2  A    between atoms: C_2  and  C_3
REMARK    3  A    between atoms: C_3  and  C_4
REMARK    4  A    between atoms: C_4  and  C_5
REMARK    5  A    between atoms: C_5  and  C_6
REMARK    6  A    between atoms: C_6  and  C_7
REMARK    7  A    between atoms: C_7  and  C_8
REMARK    8  A    between atoms: C_17  and  O_18
REMARK                            x       y       z     vdW  Elec       q    Type
REMARK                         _______ _______ _______ _____ _____    ______ ____
ROOT
ATOM      1  C   UNL     1       8.132  -2.256  24.996  0.00  0.00    +0.199 A 
ATOM      2  C   UNL     1       8.910  -3.384  25.266  0.00  0.00    +0.120 A 
ATOM      3  C   UNL     1       8.780  -4.528  24.488  0.00  0.00    +0.136 A 
ATOM      4  C   UNL     1       7.865  -4.597  23.420  0.00  0.00    +0.089 A 
ATOM      5  C   UNL     1       7.083  -3.445  23.143  0.00  0.00    +0.230 A 
ATOM      6  C   UNL     1       6.160  -3.479  22.072  0.00  0.00    +0.080 A 
ATOM      7  C   UNL     1       5.988  -4.620  21.294  0.00  0.00    +0.007 A 
ATOM      8  C   UNL     1       6.738  -5.755  21.568  0.00  0.00    +0.001 A 
ATOM      9  C   UNL     1       7.664  -5.746  22.614  0.00  0.00    +0.018 A 
ATOM     10  N   UNL     1       7.218  -2.274  23.941  0.00  0.00    -0.167 N 
ATOM     11  O   UNL     1       6.496  -1.241  23.699  0.00  0.00    -0.619 OA
ENDROOT
BRANCH   3  12
ATOM     12  O   UNL     1       9.602  -5.559  24.856  0.00  0.00    -0.506 OA
ATOM     13  H   UNL     1       9.205  -6.409  24.618  0.00  0.00    +0.292 HD
ENDBRANCH   3  12
BRANCH   1  14
ATOM     14  C   UNL     1       8.210  -1.032  25.870  0.00  0.00    +0.108 C 
BRANCH  14  15
ATOM     15  C   UNL     1       9.534  -0.295  25.654  0.00  0.00    +0.011 C 
BRANCH  15  16
ATOM     16  C   UNL     1       9.380   0.910  24.723  0.00  0.00    +0.001 C 
BRANCH  16  17
ATOM     17  C   UNL     1      10.361   0.809  23.551  0.00  0.00    +0.000 C 
BRANCH  17  18
ATOM     18  C   UNL     1       9.666   0.995  22.201  0.00  0.00    -0.000 C 
BRANCH  18  20
ATOM     19  C   UNL     1      10.245  -1.461  22.176  0.00  0.00    +0.004 C 
ATOM     20  C   UNL     1       9.445  -0.353  21.513  0.00  0.00    -0.003 C 
ENDBRANCH  18  20
ENDBRANCH  17  18
ENDBRANCH  16  17
ENDBRANCH  15  16
ENDBRANCH  14  15
ENDBRANCH   1  14
TORSDOF 7
ENDMDL
MODEL 2
REMARK VINA RESULT:      -5.8      1.918      3.666
REMARK  Name = 
REMARK  8 active torsions:
REMARK  status: ('A' for Active; 'I' for Inactive)
REMARK    1  A    between atoms: C_1  and  C_2
REMARK    2  A    between atoms: C_2  and  C_3
REMARK    3  A    between atoms: C_3  and  C_4
REMARK    4  A    between atoms: C_4  and  C_5
REMARK    5  A    between atoms: C_5  and  C_6
REMARK    6  A    between atoms: C_6  and  C_7
REMARK    7  A    between atoms: C_7  and  C_8
REMARK    8  A    between atoms: C_17  and  O_18
REMARK                            x       y       z     vdW  Elec       q    Type
REMARK                         _______ _______ _______ _____ _____    ______ ____
ROOT
ATOM      1  C   UNL     1       8.603  -1.710  22.470  0.00  0.00    +0.199 A 
ATOM      2  C   UNL     1       7.209  -1.692  22.558  0.00  0.00    +0.120 A 
ATOM      3  C   UNL     1       6.551  -2.541  23.439  0.00  0.00    +0.136 A 
ATOM      4  C   UNL     1       7.252  -3.447  24.258  0.00  0.00    +0.089 A 
ATOM      5  C   UNL     1       8.669  -3.455  24.173  0.00  0.00    +0.230 A 
ATOM      6  C   UNL     1       9.404  -4.348  24.987  0.00  0.00    +0.080 A 
ATOM      7  C   UNL     1       8.771  -5.229  25.859  0.00  0.00    +0.007 A 
ATOM      8  C   UNL     1       7.385  -5.238  25.936  0.00  0.00    +0.001 A 
ATOM      9  C   UNL     1       6.635  -4.360  25.150  0.00  0.00    +0.018 A 
ATOM     10  N   UNL     1       9.342  -2.584  23.270  0.00  0.00    -0.167 N 
ATOM     11  O   UNL     1      10.622  -2.609  23.182  0.00  0.00    -0.619 OA
ENDROOT
BRANCH   3  12
ATOM     12  O   UNL     1       5.188  -2.420  23.429  0.00  0.00    -0.506 OA
ATOM     13  H   UNL     1       4.929  -1.529  23.153  0.00  0.00    +0.292 HD
ENDBRANCH   3  12
BRANCH   1  14
ATOM     14  C   UNL     1       9.329  -0.847  21.473  0.00  0.00    +0.108 C 
BRANCH  14  15
ATOM     15  C   UNL     1       8.878   0.612  21.588  0.00  0.00    +0.011 C 
BRANCH  15  16
ATOM     16  C   UNL     1      10.021   1.540  22.001  0.00  0.00    +0.001 C 
BRANCH  16  17
ATOM     17  C   UNL     1       9.898   1.915  23.481  0.00  0.00    +0.000 C 
BRANCH  17  18
ATOM     18  C   UNL     1      10.820   1.076  24.366  0.00  0.00    -0.000 C 
BRANCH  18  20
ATOM     19  C   UNL     1       8.564   0.573  25.379  0.00  0.00    +0.004 C 
ATOM     20  C   UNL     1      10.010   0.126  25.250  0.00  0.00    -0.003 C 
ENDBRANCH  18  20
ENDBRANCH  17  18
ENDBRANCH  16  17
ENDBRANCH  15  16
ENDBRANCH  14  15
ENDBRANCH   1  14
TORSDOF 7
ENDMDL
MODEL 3
REMARK VINA RESULT:      -5.7      2.276      2.683
REMARK  Name = 
REMARK  8 active torsions:
REMARK  status: ('A' for Active; 'I' for Inactive)
REMARK    1  A    between atoms: C_1  and  C_2
REMARK    2  A    between atoms: C_2  and  C_3
REMARK    3  A    between atoms: C_3  and  C_4
REMARK    4  A    between atoms: C_4  and  C_5
REMARK    5  A    between atoms: C_5  and  C_6
REMARK    6  A    between atoms: C_6  and  C_7
REMARK    7  A    between atoms: C_7  and  C_8
REMARK    8  A    between atoms: C_17  and  O_18
REMARK                            x       y       z     vdW  Elec       q    Type
REMARK                         _______ _______ _______ _____ _____    ______ ____
ROOT
ATOM      1  C   UNL     1       8.654  -3.923  24.619  0.00  0.00    +0.199 A 
ATOM      2  C   UNL     1       8.673  -4.487  25.897  0.00  0.00    +0.120 A 
ATOM      3  C   UNL     1       7.630  -5.301  26.320  0.00  0.00    +0.136 A 
ATOM      4  C   UNL     1       6.524  -5.579  25.493  0.00  0.00    +0.089 A 
ATOM      5  C   UNL     1       6.513  -5.012  24.192  0.00  0.00    +0.230 A 
ATOM      6  C   UNL     1       5.421  -5.276  23.334  0.00  0.00    +0.080 A 
ATOM      7  C   UNL     1       4.348  -6.066  23.740  0.00  0.00    +0.007 A 
ATOM      8  C   UNL     1       4.345  -6.610  25.016  0.00  0.00    +0.001 A 
ATOM      9  C   UNL     1       5.416  -6.373  25.881  0.00  0.00    +0.018 A 
ATOM     10  N   UNL     1       7.583  -4.177  23.759  0.00  0.00    -0.167 N 
ATOM     11  O   UNL     1       7.559  -3.652  22.589  0.00  0.00    -0.619 OA
ENDROOT
BRANCH   3  12
ATOM     12  O   UNL     1       7.774  -5.791  27.590  0.00  0.00    -0.506 OA
ATOM     13  H   UNL     1       7.245  -5.274  28.215  0.00  0.00    +0.292 HD
ENDBRANCH   3  12
BRANCH   1  14
ATOM     14  C   UNL     1       9.740  -2.983  24.169  0.00  0.00    +0.108 C 
BRANCH  14  15
ATOM     15  C   UNL     1       9.463  -1.560  24.658  0.00  0.00    +0.011 C 
BRANCH  15  16
ATOM     16  C   UNL     1      10.117  -0.503  23.766  0.00  0.00    +0.001 C 
BRANCH  16  17
ATOM     17  C   UNL     1      10.155  -0.980  22.311  0.00  0.00    +0.000 C 
BRANCH  17  18
ATOM     18  C   UNL     1       9.410  -0.028  21.374  0.00  0.00    -0.000 C 
BRANCH  18  20
ATOM     19  C   UNL     1       8.303   2.196  21.815  0.00  0.00    +0.004 C 
ATOM     20  C   UNL     1       9.613   1.427  21.801  0.00  0.00    -0.003 C 
ENDBRANCH  18  20
ENDBRANCH  17  18
ENDBRANCH  16  17
ENDBRANCH  15  16
ENDBRANCH  14  15
ENDBRANCH   1  14
TORSDOF 7
ENDMDL
MODEL 4
REMARK VINA RESULT:      -5.6      1.865      5.467
REMARK  Name = 
REMARK  8 active torsions:
REMARK  status: ('A' for Active; 'I' for Inactive)
REMARK    1  A    between atoms: C_1  and  C_2
REMARK    2  A    between atoms: C_2  and  C_3
REMARK    3  A    between atoms: C_3  and  C_4
REMARK    4  A    between atoms: C_4  and  C_5
REMARK    5  A    between atoms: C_5  and  C_6
REMARK    6  A    between atoms: C_6  and  C_7
REMARK    7  A    between atoms: C_7  and  C_8
REMARK    8  A    between atoms: C_17  and  O_18
REMARK                            x       y       z     vdW  Elec       q    Type
REMARK                         _______ _______ _______ _____ _____    ______ ____
ROOT
ATOM      1  C   UNL     1       9.058  -2.000  24.840  0.00  0.00    +0.199 A 
ATOM      2  C   UNL     1       9.480  -2.300  23.542  0.00  0.00    +0.120 A 
ATOM      3  C   UNL     1       9.825  -1.280  22.665  0.00  0.00    +0.136 A 
ATOM      4  C   UNL     1       9.755   0.076  23.039  0.00  0.00    +0.089 A 
ATOM      5  C   UNL     1       9.334   0.375  24.362  0.00  0.00    +0.230 A 
ATOM      6  C   UNL     1       9.258   1.726  24.772  0.00  0.00    +0.080 A 
ATOM      7  C   UNL     1       9.571   2.771  23.905  0.00  0.00    +0.007 A 
ATOM      8  C   UNL     1       9.968   2.486  22.607  0.00  0.00    +0.001 A 
ATOM      9  C   UNL     1      10.061   1.160  22.177  0.00  0.00    +0.018 A 
ATOM     10  N   UNL     1       8.980  -0.670  25.260  0.00  0.00    -0.167 N 
ATOM     11  O   UNL     1       8.582  -0.394  26.448  0.00  0.00    -0.619 OA
ENDROOT
BRANCH   3  12
ATOM     12  O   UNL     1      10.226  -1.709  21.428  0.00  0.00    -0.506 OA
ATOM     13  H   UNL     1      10.826  -2.464  21.510  0.00  0.00    +0.292 HD
ENDBRANCH   3  12
BRANCH   1  14
ATOM     14  C   UNL     1       8.614  -3.088  25.782  0.00  0.00    +0.108 C 
BRANCH  14  15
ATOM     15  C   UNL     1       8.566  -4.440  25.065  0.00  0.00    +0.011 C 
BRANCH  15  16
ATOM     16  C   UNL     1       7.260  -5.191  25.335  0.00  0.00    +0.001 C 
BRANCH  16  17
ATOM     17  C   UNL     1       6.299  -5.035  24.154  0.00  0.00    +0.000 C 
BRANCH  17  18
ATOM     18  C   UNL     1       7.034  -4.995  22.814  0.00  0.00    -0.000 C 
BRANCH  18  20
ATOM     19  C   UNL     1       5.879  -2.757  22.659  0.00  0.00    +0.004 C 
ATOM     20  C   UNL     1       6.416  -3.949  21.885  0.00  0.00    -0.003 C 
ENDBRANCH  18  20
ENDBRANCH  17  18
ENDBRANCH  16  17
ENDBRANCH  15  16
ENDBRANCH  14  15
ENDBRANCH   1  14
TORSDOF 7
ENDMDL
MODEL 5
REMARK VINA RESULT:      -5.5      1.824      5.717
REMARK  Name = 
REMARK  8 active torsions:
REMARK  status: ('A' for Active; 'I' for Inactive)
REMARK    1  A    between atoms: C_1  and  C_2
REMARK    2  A    between atoms: C_2  and  C_3
REMARK    3  A    between atoms: C_3  and  C_4
REMARK    4  A    between atoms: C_4  and  C_5
REMARK    5  A    between atoms: C_5  and  C_6
REMARK    6  A    between atoms: C_6  and  C_7
REMARK    7  A    between atoms: C_7  and  C_8
REMARK    8  A    between atoms: C_17  and  O_18
REMARK                            x       y       z     vdW  Elec       q    Type
REMARK                         _______ _______ _______ _____ _____    ______ ____
ROOT
ATOM      1  C   UNL     1       8.894  -2.445  24.151  0.00  0.00    +0.199 A 
ATOM      2  C   UNL     1       8.858  -1.832  25.406  0.00  0.00    +0.120 A 
ATOM      3  C   UNL     1       9.141  -0.477  25.533  0.00  0.00    +0.136 A 
ATOM      4  C   UNL     1       9.479   0.317  24.420  0.00  0.00    +0.089 A 
ATOM      5  C   UNL     1       9.506  -0.308  23.146  0.00  0.00    +0.230 A 
ATOM      6  C   UNL     1       9.836   0.462  22.007  0.00  0.00    +0.080 A 
ATOM      7  C   UNL     1      10.151   1.815  22.108  0.00  0.00    +0.007 A 
ATOM      8  C   UNL     1      10.142   2.428  23.352  0.00  0.00    +0.001 A 
ATOM      9  C   UNL     1       9.811   1.693  24.493  0.00  0.00    +0.018 A 
ATOM     10  N   UNL     1       9.216  -1.696  23.017  0.00  0.00    -0.167 N 
ATOM     11  O   UNL     1       9.259  -2.260  21.866  0.00  0.00    -0.619 OA
ENDROOT
BRANCH   3  12
ATOM     12  O   UNL     1       9.066  -0.002  26.814  0.00  0.00    -0.506 OA
ATOM     13  H   UNL     1       9.912   0.386  27.081  0.00  0.00    +0.292 HD
ENDBRANCH   3  12
BRANCH   1  14
ATOM     14  C   UNL     1       8.658  -3.924  24.003  0.00  0.00    +0.108 C 
BRANCH  14  15
ATOM     15  C   UNL     1       8.505  -4.589  25.373  0.00  0.00    +0.011 C 
BRANCH  15  16
ATOM     16  C   UNL     1       7.134  -5.247  25.547  0.00  0.00    +0.001 C 
BRANCH  16  17
ATOM     17  C   UNL     1       6.160  -4.745  24.478  0.00  0.00    +0.000 C 
BRANCH  17  18
ATOM     18  C   UNL     1       5.443  -5.894  23.767  0.00  0.00    -0.000 C 
BRANCH  18  20
ATOM     19  C   UNL     1       6.829  -6.048  21.664  0.00  0.00    +0.004 C 
ATOM     20  C   UNL     1       5.472  -5.699  22.250  0.00  0.00    -0.003 C 
ENDBRANCH  18  20
ENDBRANCH  17  18
ENDBRANCH  16  17
ENDBRANCH  15  16
ENDBRANCH  14  15
ENDBRANCH   1  14
TORSDOF 7
ENDMDL
MODEL 6
REMARK VINA RESULT:      -5.4      2.490      3.471
REMARK  Name = 
REMARK  8 active torsions:
REMARK  status: ('A' for Active; 'I' for Inactive)
REMARK    1  A    between atoms: C_1  and  C_2
REMARK    2  A    between atoms: C_2  and  C_3
REMARK    3  A    between atoms: C_3  and  C_4
REMARK    4  A    between atoms: C_4  and  C_5
REMARK    5  A    between atoms: C_5  and  C_6
REMARK    6  A    between atoms: C_6  and  C_7
REMARK    7  A    between atoms: C_7  and  C_8
REMARK    8  A    between atoms: C_17  and  O_18
REMARK                            x       y       z     vdW  Elec       q    Type
REMARK                         _______ _______ _______ _____ _____    ______ ____
ROOT
ATOM      1  C   UNL     1       7.752  -3.586  23.240  0.00  0.00    +0.199 A 
ATOM      2  C   UNL     1       7.074  -4.184  22.175  0.00  0.00    +0.120 A 
ATOM      3  C   UNL     1       6.106  -5.151  22.415  0.00  0.00    +0.136 A 
ATOM      4  C   UNL     1       5.781  -5.567  23.721  0.00  0.00    +0.089 A 
ATOM      5  C   UNL     1       6.466  -4.949  24.801  0.00  0.00    +0.230 A 
ATOM      6  C   UNL     1       6.159  -5.340  26.125  0.00  0.00    +0.080 A 
ATOM      7  C   UNL     1       5.213  -6.326  26.394  0.00  0.00    +0.007 A 
ATOM      8  C   UNL     1       4.552  -6.944  25.343  0.00  0.00    +0.001 A 
ATOM      9  C   UNL     1       4.828  -6.572  24.026  0.00  0.00    +0.018 A 
ATOM     10  N   UNL     1       7.458  -3.959  24.553  0.00  0.00    -0.167 N 
ATOM     11  O   UNL     1       8.087  -3.417  25.531  0.00  0.00    -0.619 OA
ENDROOT
BRANCH   3  12
ATOM     12  O   UNL     1       5.516  -5.653  21.287  0.00  0.00    -0.506 OA
ATOM     13  H   UNL     1       5.787  -6.572  21.143  0.00  0.00    +0.292 HD
ENDBRANCH   3  12
BRANCH   1  14
ATOM     14  C   UNL     1       8.852  -2.587  22.997  0.00  0.00    +0.108 C 
BRANCH  14  15
ATOM     15  C   UNL     1       8.286  -1.289  22.414  0.00  0.00    +0.011 C 
BRANCH  15  16
ATOM     16  C   UNL     1       9.301  -0.561  21.531  0.00  0.00    +0.001 C 
BRANCH  16  17
ATOM     17  C   UNL     1       9.040   0.948  21.547  0.00  0.00    +0.000 C 
BRANCH  17  18
ATOM     18  C   UNL     1      10.189   1.724  22.194  0.00  0.00    -0.000 C 
BRANCH  18  20
ATOM     19  C   UNL     1      10.930   0.854  24.444  0.00  0.00    +0.004 C 
ATOM     20  C   UNL     1      10.003   1.807  23.710  0.00  0.00    -0.003 C 
ENDBRANCH  18  20
ENDBRANCH  17  18
ENDBRANCH  16  17
ENDBRANCH  15  16
ENDBRANCH  14  15
ENDBRANCH   1  14
TORSDOF 7
ENDMDL
MODEL 7
REMARK VINA RESULT:      -5.3      1.904      5.584
REMARK  Name = 
REMARK  8 active torsions:
REMARK  status: ('A' for Active; 'I' for Inactive)
REMARK    1  A    between atoms: C_1  and  C_2
REMARK    2  A    between atoms: C_2  and  C_3
REMARK    3  A    between atoms: C_3  and  C_4
REMARK    4  A    between atoms: C_4  and  C_5
REMARK    5  A    between atoms: C_5  and  C_6
REMARK    6  A    between atoms: C_6  and  C_7
REMARK    7  A    between atoms: C_7  and  C_8
REMARK    8  A    between atoms: C_17  and  O_18
REMARK                            x       y       z     vdW  Elec       q    Type
REMARK                         _______ _______ _______ _____ _____    ______ ____
ROOT
ATOM      1  C   UNL     1       7.554  -2.143  22.782  0.00  0.00    +0.199 A 
ATOM      2  C   UNL     1       6.506  -1.441  23.382  0.00  0.00    +0.120 A 
ATOM      3  C   UNL     1       6.583  -0.062  23.535  0.00  0.00    +0.136 A 
ATOM      4  C   UNL     1       7.707   0.669  23.106  0.00  0.00    +0.089 A 
ATOM      5  C   UNL     1       8.766  -0.047  22.488  0.00  0.00    +0.230 A 
ATOM      6  C   UNL     1       9.906   0.658  22.040  0.00  0.00    +0.080 A 
ATOM      7  C   UNL     1      10.023   2.036  22.205  0.00  0.00    +0.007 A 
ATOM      8  C   UNL     1       9.000   2.740  22.822  0.00  0.00    +0.001 A 
ATOM      9  C   UNL     1       7.857   2.070  23.266  0.00  0.00    +0.018 A 
ATOM     10  N   UNL     1       8.686  -1.460  22.332  0.00  0.00    -0.167 N 
ATOM     11  O   UNL     1       9.653  -2.105  21.790  0.00  0.00    -0.619 OA
ENDROOT
BRANCH   3  12
ATOM     12  O   UNL     1       5.490   0.502  24.134  0.00  0.00    -0.506 OA
ATOM     13  H   UNL     1       5.657   1.434  24.336  0.00  0.00    +0.292 HD
ENDBRANCH   3  12
BRANCH   1  14
ATOM     14  C   UNL     1       7.519  -3.644  22.670  0.00  0.00    +0.108 C 
BRANCH  14  15
ATOM     15  C   UNL     1       8.122  -4.295  23.917  0.00  0.00    +0.011 C 
BRANCH  15  16
ATOM     16  C   UNL     1       7.050  -4.736  24.916  0.00  0.00    +0.001 C 
BRANCH  16  17
ATOM     17  C   UNL     1       7.272  -4.061  26.272  0.00  0.00    +0.000 C 
BRANCH  17  18
ATOM     18  C   UNL     1       8.482  -3.125  26.258  0.00  0.00    -0.000 C 
BRANCH  18  20
ATOM     19  C   UNL     1       9.114  -0.684  26.167  0.00  0.00    +0.004 C 
ATOM     20  C   UNL     1       8.066  -1.693  26.602  0.00  0.00    -0.003 C 
ENDBRANCH  18  20
ENDBRANCH  17  18
ENDBRANCH  16  17
ENDBRANCH  15  16
ENDBRANCH  14  15
ENDBRANCH   1  14
TORSDOF 7
ENDMDL
MODEL 8
REMARK VINA RESULT:      -5.3      2.084      3.011
REMARK  Name = 
REMARK  8 active torsions:
REMARK  status: ('A' for Active; 'I' for Inactive)
REMARK    1  A    between atoms: C_1  and  C_2
REMARK    2  A    between atoms: C_2  and  C_3
REMARK    3  A    between atoms: C_3  and  C_4
REMARK    4  A    between atoms: C_4  and  C_5
REMARK    5  A    between atoms: C_5  and  C_6
REMARK    6  A    between atoms: C_6  and  C_7
REMARK    7  A    between atoms: C_7  and  C_8
REMARK    8  A    between atoms: C_17  and  O_18
REMARK                            x       y       z     vdW  Elec       q    Type
REMARK                         _______ _______ _______ _____ _____    ______ ____
ROOT
ATOM      1  C   UNL     1       8.231  -3.009  23.775  0.00  0.00    +0.199 A 
ATOM      2  C   UNL     1       7.509  -2.938  22.581  0.00  0.00    +0.120 A 
ATOM      3  C   UNL     1       6.381  -3.727  22.396  0.00  0.00    +0.136 A 
ATOM      4  C   UNL     1       5.933  -4.623  23.386  0.00  0.00    +0.089 A 
ATOM      5  C   UNL     1       6.664  -4.685  24.601  0.00  0.00    +0.230 A 
ATOM      6  C   UNL     1       6.237  -5.570  25.618  0.00  0.00    +0.080 A 
ATOM      7  C   UNL     1       5.127  -6.394  25.449  0.00  0.00    +0.007 A 
ATOM      8  C   UNL     1       4.417  -6.349  24.258  0.00  0.00    +0.001 A 
ATOM      9  C   UNL     1       4.811  -5.477  23.240  0.00  0.00    +0.018 A 
ATOM     10  N   UNL     1       7.820  -3.876  24.789  0.00  0.00    -0.167 N 
ATOM     11  O   UNL     1       8.488  -3.950  25.882  0.00  0.00    -0.619 OA
ENDROOT
BRANCH   3  12
ATOM     12  O   UNL     1       5.765  -3.558  21.185  0.00  0.00    -0.506 OA
ATOM     13  H   UNL     1       5.851  -2.640  20.887  0.00  0.00    +0.292 HD
ENDBRANCH   3  12
BRANCH   1  14
ATOM     14  C   UNL     1       9.495  -2.212  23.967  0.00  0.00    +0.108 C 
BRANCH  14  15
ATOM     15  C   UNL     1       9.204  -0.905  24.710  0.00  0.00    +0.011 C 
BRANCH  15  16
ATOM     16  C   UNL     1      10.357   0.093  24.595  0.00  0.00    +0.001 C 
BRANCH  16  17
ATOM     17  C   UNL     1       9.818   1.519  24.452  0.00  0.00    +0.000 C 
BRANCH  17  18
ATOM     18  C   UNL     1      10.367   2.220  23.208  0.00  0.00    -0.000 C 
BRANCH  18  20
ATOM     19  C   UNL     1       8.453   1.598  21.686  0.00  0.00    +0.004 C 
ATOM     20  C   UNL     1       9.946   1.481  21.937  0.00  0.00    -0.003 C 
ENDBRANCH  18  20
ENDBRANCH  17  18
ENDBRANCH  16  17
ENDBRANCH  15  16
ENDBRANCH  14  15
ENDBRANCH   1  14
TORSDOF 7
ENDMDL
MODEL 9
REMARK VINA RESULT:      -5.3      2.345      4.976
REMARK  Name = 
REMARK  8 active torsions:
REMARK  status: ('A' for Active; 'I' for Inactive)
REMARK    1  A    between atoms: C_1  and  C_2
REMARK    2  A    between atoms: C_2  and  C_3
REMARK    3  A    between atoms: C_3  and  C_4
REMARK    4  A    between atoms: C_4  and  C_5
REMARK    5  A    between atoms: C_5  and  C_6
REMARK    6  A    between atoms: C_6  and  C_7
REMARK    7  A    between atoms: C_7  and  C_8
REMARK    8  A    between atoms: C_17  and  O_18
REMARK                            x       y       z     vdW  Elec       q    Type
REMARK                         _______ _______ _______ _____ _____    ______ ____
ROOT
ATOM      1  C   UNL     1       7.236  -4.448  26.534  0.00  0.00    +0.199 A 
ATOM      2  C   UNL     1       8.384  -5.131  26.123  0.00  0.00    +0.120 A 
ATOM      3  C   UNL     1       9.292  -4.523  25.265  0.00  0.00    +0.136 A 
ATOM      4  C   UNL     1       9.089  -3.219  24.773  0.00  0.00    +0.089 A 
ATOM      5  C   UNL     1       7.925  -2.526  25.200  0.00  0.00    +0.230 A 
ATOM      6  C   UNL     1       7.695  -1.213  24.730  0.00  0.00    +0.080 A 
ATOM      7  C   UNL     1       8.572  -0.589  23.847  0.00  0.00    +0.007 A 
ATOM      8  C   UNL     1       9.703  -1.267  23.413  0.00  0.00    +0.001 A 
ATOM      9  C   UNL     1       9.961  -2.562  23.869  0.00  0.00    +0.018 A 
ATOM     10  N   UNL     1       6.996  -3.149  26.080  0.00  0.00    -0.167 N 
ATOM     11  O   UNL     1       5.937  -2.526  26.447  0.00  0.00    -0.619 OA
ENDROOT
BRANCH   3  12
ATOM     12  O   UNL     1      10.374  -5.299  24.945  0.00  0.00    -0.506 OA
ATOM     13  H   UNL     1      11.082  -4.754  24.573  0.00  0.00    +0.292 HD
ENDBRANCH   3  12
BRANCH   1  14
ATOM     14  C   UNL     1       6.208  -5.115  27.408  0.00  0.00    +0.108 C 
BRANCH  14  15
ATOM     15  C   UNL     1       5.483  -6.225  26.643  0.00  0.00    +0.011 C 
BRANCH  15  16
ATOM     16  C   UNL     1       4.539  -5.670  25.575  0.00  0.00    +0.001 C 
BRANCH  16  17
ATOM     17  C   UNL     1       4.888  -6.246  24.200  0.00  0.00    +0.000 C 
BRANCH  17  18
ATOM     18  C   UNL     1       5.739  -5.283  23.370  0.00  0.00    -0.000 C 
BRANCH  18  20
ATOM     19  C   UNL     1       5.739  -3.059  22.179  0.00  0.00    +0.004 C 
ATOM     20  C   UNL     1       5.017  -3.949  23.176  0.00  0.00    -0.003 C 
ENDBRANCH  18  20
ENDBRANCH  17  18
ENDBRANCH  16  17
ENDBRANCH  15  16
ENDBRANCH  14  15
ENDBRANCH   1  14
TORSDOF 7
ENDMDL
