MODEL 1
REMARK VINA RESULT:      -8.4      0.000      0.000
REMARK  Name = 
REMARK  5 active torsions:
REMARK  status: ('A' for Active; 'I' for Inactive)
REMARK    1  A    between atoms: C_1  and  O_2
REMARK    2  A    between atoms: O_2  and  C_3
REMARK    3  A    between atoms: C_4  and  O_5
REMARK    4  A    between atoms: O_5  and  C_6
REMARK    5  A    between atoms: C_22  and  C_24
REMARK                            x       y       z     vdW  Elec       q    Type
REMARK                         _______ _______ _______ _____ _____    ______ ____
ROOT
ATOM      1  C   UNL     1      11.214   4.150  23.654  0.00  0.00    +0.164 A 
ATOM      2  C   UNL     1      10.976   2.760  23.687  0.00  0.00    +0.078 A 
ATOM      3  C   UNL     1       9.703   2.209  23.630  0.00  0.00    +0.082 A 
ATOM      4  C   UNL     1       8.621   3.077  23.630  0.00  0.00    +0.044 A 
ATOM      5  C   UNL     1       7.375   2.462  23.543  0.00  0.00    +0.129 A 
ATOM      6  N   UNL     1       7.218   1.137  23.459  0.00  0.00    -0.199 NA
ATOM      7  C   UNL     1       8.317   0.366  23.442  0.00  0.00    +0.220 A 
ATOM      8  N   UNL     1       8.166  -0.991  23.313  0.00  0.00    -0.297 N 
ATOM      9  C   UNL     1       6.840  -1.603  23.158  0.00  0.00    +0.127 C 
ATOM     10  C   UNL     1       6.666  -2.710  24.221  0.00  0.00    +0.127 C 
ATOM     11  N   UNL     1       7.775  -3.675  24.146  0.00  0.00    -0.295 N 
ATOM     12  C   UNL     1       7.688  -4.996  23.725  0.00  0.00    +0.260 C 
ATOM     13  O   UNL     1       8.712  -5.640  23.471  0.00  0.00    -0.271 OA
ATOM     14  C   UNL     1       9.101  -3.046  24.285  0.00  0.00    +0.127 C 
ATOM     15  C   UNL     1       9.309  -1.902  23.270  0.00  0.00    +0.127 C 
ATOM     16  N   UNL     1       6.189   3.206  23.549  0.00  0.00    -0.343 N 
ATOM     17  H   UNL     1       5.426   2.550  23.406  0.00  0.00    +0.144 HD
ATOM     18  H   UNL     1       6.200   3.932  22.841  0.00  0.00    +0.144 HD
ATOM     19  C   UNL     1       8.837   4.469  23.691  0.00  0.00    +0.062 A 
ATOM     20  N   UNL     1       9.553   0.877  23.546  0.00  0.00    -0.214 NA
ATOM     21  C   UNL     1      10.121   5.024  23.678  0.00  0.00    +0.162 A 
ENDROOT
BRANCH  12  22
ATOM     22  C   UNL     1       6.305  -5.681  23.674  0.00  0.00    +0.296 C 
ATOM     23  O   UNL     1       5.603  -5.582  24.917  0.00  0.00    -0.473 OA
ATOM     24  C   UNL     1       4.298  -5.986  24.793  0.00  0.00    +0.163 A 
ATOM     25  C   UNL     1       3.627  -6.041  23.568  0.00  0.00    +0.162 A 
ATOM     26  C   UNL     1       2.294  -6.442  23.516  0.00  0.00    +0.049 A 
ATOM     27  C   UNL     1       1.623  -6.787  24.690  0.00  0.00    +0.004 A 
ATOM     28  C   UNL     1       2.293  -6.739  25.915  0.00  0.00    +0.004 A 
ATOM     29  O   UNL     1       4.223  -5.730  22.374  0.00  0.00    -0.484 OA
ATOM     30  C   UNL     1       3.631  -6.334  25.966  0.00  0.00    +0.049 A 
ATOM     31  C   UNL     1       5.465  -5.039  22.566  0.00  0.00    +0.283 C 
ENDBRANCH  12  22
BRANCH   1  33
ATOM     32  C   UNL     1      12.881   5.224  22.338  0.00  0.00    +0.277 C 
ATOM     33  O   UNL     1      12.486   4.660  23.593  0.00  0.00    -0.491 OA
ENDBRANCH   1  33
BRANCH  21  34
ATOM     34  O   UNL     1      10.069   6.385  23.636  0.00  0.00    -0.491 OA
ATOM     35  C   UNL     1       8.977   7.107  24.174  0.00  0.00    +0.277 C 
ENDBRANCH  21  34
TORSDOF 3
ENDMDL
MODEL 2
REMARK VINA RESULT:      -7.9      1.383      1.550
REMARK  Name = 
REMARK  5 active torsions:
REMARK  status: ('A' for Active; 'I' for Inactive)
REMARK    1  A    between atoms: C_1  and  O_2
REMARK    2  A    between atoms: O_2  and  C_3
REMARK    3  A    between atoms: C_4  and  O_5
REMARK    4  A    between atoms: O_5  and  C_6
REMARK    5  A    between atoms: C_22  and  C_24
REMARK                            x       y       z     vdW  Elec       q    Type
REMARK                         _______ _______ _______ _____ _____    ______ ____
ROOT
ATOM      1  C   UNL     1       9.691   4.646  23.718  0.00  0.00    +0.164 A 
ATOM      2  C   UNL     1       9.672   3.292  24.110  0.00  0.00    +0.078 A 
ATOM      3  C   UNL     1       8.583   2.457  23.895  0.00  0.00    +0.082 A 
ATOM      4  C   UNL     1       7.437   3.016  23.352  0.00  0.00    +0.044 A 
ATOM      5  C   UNL     1       6.392   2.120  23.137  0.00  0.00    +0.129 A 
ATOM      6  N   UNL     1       6.477   0.817  23.422  0.00  0.00    -0.199 NA
ATOM      7  C   UNL     1       7.631   0.349  23.925  0.00  0.00    +0.220 A 
ATOM      8  N   UNL     1       7.741  -0.994  24.179  0.00  0.00    -0.297 N 
ATOM      9  C   UNL     1       6.643  -1.922  23.880  0.00  0.00    +0.127 C 
ATOM     10  C   UNL     1       6.316  -2.745  25.146  0.00  0.00    +0.127 C 
ATOM     11  N   UNL     1       7.527  -3.407  25.658  0.00  0.00    -0.295 N 
ATOM     12  C   UNL     1       7.783  -4.772  25.650  0.00  0.00    +0.260 C 
ATOM     13  O   UNL     1       8.921  -5.196  25.878  0.00  0.00    -0.271 OA
ATOM     14  C   UNL     1       8.628  -2.466  25.937  0.00  0.00    +0.127 C 
ATOM     15  C   UNL     1       8.965  -1.589  24.712  0.00  0.00    +0.127 C 
ATOM     16  N   UNL     1       5.165   2.539  22.610  0.00  0.00    -0.343 N 
ATOM     17  H   UNL     1       4.597   1.706  22.481  0.00  0.00    +0.144 HD
ATOM     18  H   UNL     1       5.286   3.051  21.743  0.00  0.00    +0.144 HD
ATOM     19  C   UNL     1       7.404   4.391  23.042  0.00  0.00    +0.062 A 
ATOM     20  N   UNL     1       8.676   1.148  24.185  0.00  0.00    -0.214 NA
ATOM     21  C   UNL     1       8.524   5.214  23.193  0.00  0.00    +0.162 A 
ENDROOT
BRANCH  12  22
ATOM     22  C   UNL     1       6.610  -5.758  25.454  0.00  0.00    +0.296 C 
ATOM     23  O   UNL     1       5.536  -5.512  26.367  0.00  0.00    -0.473 OA
ATOM     24  C   UNL     1       4.418  -6.235  26.036  0.00  0.00    +0.163 A 
ATOM     25  C   UNL     1       4.198  -6.762  24.760  0.00  0.00    +0.162 A 
ATOM     26  C   UNL     1       3.030  -7.470  24.486  0.00  0.00    +0.049 A 
ATOM     27  C   UNL     1       2.073  -7.651  25.486  0.00  0.00    +0.004 A 
ATOM     28  C   UNL     1       2.293  -7.131  26.763  0.00  0.00    +0.004 A 
ATOM     29  O   UNL     1       5.096  -6.635  23.733  0.00  0.00    -0.484 OA
ATOM     30  C   UNL     1       3.466  -6.419  27.036  0.00  0.00    +0.049 A 
ATOM     31  C   UNL     1       6.090  -5.642  24.018  0.00  0.00    +0.283 C 
ENDBRANCH  12  22
BRANCH   1  33
ATOM     32  C   UNL     1      12.036   4.826  23.360  0.00  0.00    +0.277 C 
ATOM     33  O   UNL     1      10.822   5.414  23.837  0.00  0.00    -0.491 OA
ENDBRANCH   1  33
BRANCH  21  34
ATOM     34  O   UNL     1       8.278   6.471  22.727  0.00  0.00    -0.491 OA
ATOM     35  C   UNL     1       7.193   6.746  21.861  0.00  0.00    +0.277 C 
ENDBRANCH  21  34
TORSDOF 3
ENDMDL
MODEL 3
REMARK VINA RESULT:      -7.7      2.410     10.863
REMARK  Name = 
REMARK  5 active torsions:
REMARK  status: ('A' for Active; 'I' for Inactive)
REMARK    1  A    between atoms: C_1  and  O_2
REMARK    2  A    between atoms: O_2  and  C_3
REMARK    3  A    between atoms: C_4  and  O_5
REMARK    4  A    between atoms: O_5  and  C_6
REMARK    5  A    between atoms: C_22  and  C_24
REMARK                            x       y       z     vdW  Elec       q    Type
REMARK                         _______ _______ _______ _____ _____    ______ ____
ROOT
ATOM      1  C   UNL     1       3.392  -7.059  25.342  0.00  0.00    +0.164 A 
ATOM      2  C   UNL     1       4.191  -6.063  24.742  0.00  0.00    +0.078 A 
ATOM      3  C   UNL     1       4.582  -4.906  25.403  0.00  0.00    +0.082 A 
ATOM      4  C   UNL     1       4.084  -4.690  26.679  0.00  0.00    +0.044 A 
ATOM      5  C   UNL     1       4.536  -3.527  27.296  0.00  0.00    +0.129 A 
ATOM      6  N   UNL     1       5.389  -2.677  26.717  0.00  0.00    -0.199 NA
ATOM      7  C   UNL     1       5.844  -2.969  25.488  0.00  0.00    +0.220 A 
ATOM      8  N   UNL     1       6.752  -2.125  24.904  0.00  0.00    -0.297 N 
ATOM      9  C   UNL     1       7.259  -0.939  25.608  0.00  0.00    +0.127 C 
ATOM     10  C   UNL     1       7.059   0.305  24.714  0.00  0.00    +0.127 C 
ATOM     11  N   UNL     1       7.674   0.094  23.394  0.00  0.00    -0.295 N 
ATOM     12  C   UNL     1       8.796   0.745  22.896  0.00  0.00    +0.260 C 
ATOM     13  O   UNL     1       9.366   0.322  21.884  0.00  0.00    -0.271 OA
ATOM     14  C   UNL     1       7.171  -1.108  22.704  0.00  0.00    +0.127 C 
ATOM     15  C   UNL     1       7.309  -2.375  23.575  0.00  0.00    +0.127 C 
ATOM     16  N   UNL     1       4.108  -3.164  28.579  0.00  0.00    -0.343 N 
ATOM     17  H   UNL     1       4.623  -2.327  28.838  0.00  0.00    +0.144 HD
ATOM     18  H   UNL     1       4.250  -3.915  29.246  0.00  0.00    +0.144 HD
ATOM     19  C   UNL     1       3.208  -5.630  27.260  0.00  0.00    +0.062 A 
ATOM     20  N   UNL     1       5.439  -4.056  24.814  0.00  0.00    -0.214 NA
ATOM     21  C   UNL     1       2.871  -6.828  26.621  0.00  0.00    +0.162 A 
ENDROOT
BRANCH  12  22
ATOM     22  C   UNL     1       9.263   2.058  23.562  0.00  0.00    +0.296 C 
ATOM     23  O   UNL     1      10.491   2.541  23.009  0.00  0.00    -0.473 OA
ATOM     24  C   UNL     1      10.773   3.813  23.441  0.00  0.00    +0.163 A 
ATOM     25  C   UNL     1       9.803   4.678  23.956  0.00  0.00    +0.162 A 
ATOM     26  C   UNL     1      10.155   5.964  24.358  0.00  0.00    +0.049 A 
ATOM     27  C   UNL     1      11.478   6.394  24.243  0.00  0.00    +0.004 A 
ATOM     28  C   UNL     1      12.449   5.529  23.734  0.00  0.00    +0.004 A 
ATOM     29  O   UNL     1       8.490   4.322  24.111  0.00  0.00    -0.484 OA
ATOM     30  C   UNL     1      12.095   4.238  23.329  0.00  0.00    +0.049 A 
ATOM     31  C   UNL     1       8.176   3.124  23.388  0.00  0.00    +0.283 C 
ENDBRANCH  12  22
BRANCH   1  33
ATOM     32  C   UNL     1       1.951  -8.264  23.882  0.00  0.00    +0.277 C 
ATOM     33  O   UNL     1       3.121  -8.243  24.706  0.00  0.00    -0.491 OA
ENDBRANCH   1  33
BRANCH  21  34
ATOM     34  O   UNL     1       2.102  -7.615  27.424  0.00  0.00    -0.491 OA
ATOM     35  C   UNL     1       0.687  -7.572  27.375  0.00  0.00    +0.277 C 
ENDBRANCH  21  34
TORSDOF 3
ENDMDL
MODEL 4
REMARK VINA RESULT:      -7.5      2.666     10.471
REMARK  Name = 
REMARK  5 active torsions:
REMARK  status: ('A' for Active; 'I' for Inactive)
REMARK    1  A    between atoms: C_1  and  O_2
REMARK    2  A    between atoms: O_2  and  C_3
REMARK    3  A    between atoms: C_4  and  O_5
REMARK    4  A    between atoms: O_5  and  C_6
REMARK    5  A    between atoms: C_22  and  C_24
REMARK                            x       y       z     vdW  Elec       q    Type
REMARK                         _______ _______ _______ _____ _____    ______ ____
ROOT
ATOM      1  C   UNL     1       2.607  -7.453  25.077  0.00  0.00    +0.164 A 
ATOM      2  C   UNL     1       3.679  -6.711  24.539  0.00  0.00    +0.078 A 
ATOM      3  C   UNL     1       3.844  -5.350  24.762  0.00  0.00    +0.082 A 
ATOM      4  C   UNL     1       2.856  -4.686  25.472  0.00  0.00    +0.044 A 
ATOM      5  C   UNL     1       3.095  -3.331  25.685  0.00  0.00    +0.129 A 
ATOM      6  N   UNL     1       4.193  -2.706  25.248  0.00  0.00    -0.199 NA
ATOM      7  C   UNL     1       5.115  -3.424  24.588  0.00  0.00    +0.220 A 
ATOM      8  N   UNL     1       6.263  -2.801  24.174  0.00  0.00    -0.297 N 
ATOM      9  C   UNL     1       6.515  -1.384  24.471  0.00  0.00    +0.127 C 
ATOM     10  C   UNL     1       6.851  -0.644  23.158  0.00  0.00    +0.127 C 
ATOM     11  N   UNL     1       7.964  -1.308  22.461  0.00  0.00    -0.295 N 
ATOM     12  C   UNL     1       9.246  -0.802  22.291  0.00  0.00    +0.260 C 
ATOM     13  O   UNL     1      10.163  -1.538  21.908  0.00  0.00    -0.271 OA
ATOM     14  C   UNL     1       7.707  -2.734  22.185  0.00  0.00    +0.127 C 
ATOM     15  C   UNL     1       7.325  -3.511  23.463  0.00  0.00    +0.127 C 
ATOM     16  N   UNL     1       2.180  -2.523  26.371  0.00  0.00    -0.343 N 
ATOM     17  H   UNL     1       2.603  -1.603  26.460  0.00  0.00    +0.144 HD
ATOM     18  H   UNL     1       1.940  -2.916  27.275  0.00  0.00    +0.144 HD
ATOM     19  C   UNL     1       1.728  -5.393  25.937  0.00  0.00    +0.062 A 
ATOM     20  N   UNL     1       4.950  -4.728  24.320  0.00  0.00    -0.214 NA
ATOM     21  C   UNL     1       1.598  -6.776  25.773  0.00  0.00    +0.162 A 
ENDROOT
BRANCH  12  22
ATOM     22  C   UNL     1       9.492   0.710  22.486  0.00  0.00    +0.296 C 
ATOM     23  O   UNL     1       8.295   1.479  22.334  0.00  0.00    -0.473 OA
ATOM     24  C   UNL     1       8.477   2.779  22.734  0.00  0.00    +0.163 A 
ATOM     25  C   UNL     1       9.510   3.180  23.585  0.00  0.00    +0.162 A 
ATOM     26  C   UNL     1       9.625   4.515  23.967  0.00  0.00    +0.049 A 
ATOM     27  C   UNL     1       8.704   5.456  23.502  0.00  0.00    +0.004 A 
ATOM     28  C   UNL     1       7.674   5.058  22.647  0.00  0.00    +0.004 A 
ATOM     29  O   UNL     1      10.457   2.318  24.069  0.00  0.00    -0.484 OA
ATOM     30  C   UNL     1       7.559   3.717  22.265  0.00  0.00    +0.049 A 
ATOM     31  C   UNL     1      10.073   0.949  23.883  0.00  0.00    +0.283 C 
ENDBRANCH  12  22
BRANCH   1  33
ATOM     32  C   UNL     1       1.442  -9.313  24.158  0.00  0.00    +0.277 C 
ATOM     33  O   UNL     1       2.534  -8.815  24.938  0.00  0.00    -0.491 OA
ENDBRANCH   1  33
BRANCH  21  34
ATOM     34  O   UNL     1       0.482  -7.244  26.398  0.00  0.00    -0.491 OA
ATOM     35  C   UNL     1       0.548  -7.899  27.652  0.00  0.00    +0.277 C 
ENDBRANCH  21  34
TORSDOF 3
ENDMDL
MODEL 5
REMARK VINA RESULT:      -7.1      2.572     11.080
REMARK  Name = 
REMARK  5 active torsions:
REMARK  status: ('A' for Active; 'I' for Inactive)
REMARK    1  A    between atoms: C_1  and  O_2
REMARK    2  A    between atoms: O_2  and  C_3
REMARK    3  A    between atoms: C_4  and  O_5
REMARK    4  A    between atoms: O_5  and  C_6
REMARK    5  A    between atoms: C_22  and  C_24
REMARK                            x       y       z     vdW  Elec       q    Type
REMARK                         _______ _______ _______ _____ _____    ______ ____
ROOT
ATOM      1  C   UNL     1       2.437  -7.060  26.157  0.00  0.00    +0.164 A 
ATOM      2  C   UNL     1       3.049  -5.807  26.364  0.00  0.00    +0.078 A 
ATOM      3  C   UNL     1       3.889  -5.212  25.432  0.00  0.00    +0.082 A 
ATOM      4  C   UNL     1       4.202  -5.933  24.290  0.00  0.00    +0.044 A 
ATOM      5  C   UNL     1       5.025  -5.270  23.384  0.00  0.00    +0.129 A 
ATOM      6  N   UNL     1       5.482  -4.030  23.584  0.00  0.00    -0.199 NA
ATOM      7  C   UNL     1       5.115  -3.389  24.705  0.00  0.00    +0.220 A 
ATOM      8  N   UNL     1       5.544  -2.102  24.898  0.00  0.00    -0.297 N 
ATOM      9  C   UNL     1       6.358  -1.407  23.892  0.00  0.00    +0.127 C 
ATOM     10  C   UNL     1       7.632  -0.852  24.566  0.00  0.00    +0.127 C 
ATOM     11  N   UNL     1       7.278  -0.013  25.723  0.00  0.00    -0.295 N 
ATOM     12  C   UNL     1       7.436   1.364  25.818  0.00  0.00    +0.260 C 
ATOM     13  O   UNL     1       6.888   1.995  26.728  0.00  0.00    -0.271 OA
ATOM     14  C   UNL     1       6.446  -0.715  26.717  0.00  0.00    +0.127 C 
ATOM     15  C   UNL     1       5.178  -1.326  26.082  0.00  0.00    +0.127 C 
ATOM     16  N   UNL     1       5.442  -5.876  22.192  0.00  0.00    -0.343 N 
ATOM     17  H   UNL     1       5.968  -5.179  21.673  0.00  0.00    +0.144 HD
ATOM     18  H   UNL     1       4.655  -6.229  21.658  0.00  0.00    +0.144 HD
ATOM     19  C   UNL     1       3.674  -7.228  24.110  0.00  0.00    +0.062 A 
ATOM     20  N   UNL     1       4.345  -3.966  25.640  0.00  0.00    -0.214 NA
ATOM     21  C   UNL     1       2.773  -7.797  25.016  0.00  0.00    +0.162 A 
ENDROOT
BRANCH  12  22
ATOM     22  C   UNL     1       8.387   2.083  24.835  0.00  0.00    +0.296 C 
ATOM     23  O   UNL     1       8.529   3.475  25.138  0.00  0.00    -0.473 OA
ATOM     24  C   UNL     1       9.542   4.047  24.410  0.00  0.00    +0.163 A 
ATOM     25  C   UNL     1      10.572   3.309  23.821  0.00  0.00    +0.162 A 
ATOM     26  C   UNL     1      11.581   3.957  23.111  0.00  0.00    +0.049 A 
ATOM     27  C   UNL     1      11.567   5.347  22.991  0.00  0.00    +0.004 A 
ATOM     28  C   UNL     1      10.536   6.086  23.574  0.00  0.00    +0.004 A 
ATOM     29  O   UNL     1      10.645   1.943  23.885  0.00  0.00    -0.484 OA
ATOM     30  C   UNL     1       9.524   5.435  24.287  0.00  0.00    +0.049 A 
ATOM     31  C   UNL     1       9.763   1.411  24.882  0.00  0.00    +0.283 C 
ENDBRANCH  12  22
BRANCH   1  33
ATOM     32  C   UNL     1       1.664  -7.154  28.406  0.00  0.00    +0.277 C 
ATOM     33  O   UNL     1       1.520  -7.567  27.043  0.00  0.00    -0.491 OA
ENDBRANCH   1  33
BRANCH  21  34
ATOM     34  O   UNL     1       2.323  -9.004  24.571  0.00  0.00    -0.491 OA
ATOM     35  C   UNL     1       1.054  -9.148  23.960  0.00  0.00    +0.277 C 
ENDBRANCH  21  34
TORSDOF 3
ENDMDL
MODEL 6
REMARK VINA RESULT:      -6.7      2.085     10.973
REMARK  Name = 
REMARK  5 active torsions:
REMARK  status: ('A' for Active; 'I' for Inactive)
REMARK    1  A    between atoms: C_1  and  O_2
REMARK    2  A    between atoms: O_2  and  C_3
REMARK    3  A    between atoms: C_4  and  O_5
REMARK    4  A    between atoms: O_5  and  C_6
REMARK    5  A    between atoms: C_22  and  C_24
REMARK                            x       y       z     vdW  Elec       q    Type
REMARK                         _______ _______ _______ _____ _____    ______ ____
ROOT
ATOM      1  C   UNL     1       3.124  -5.203  24.484  0.00  0.00    +0.164 A 
ATOM      2  C   UNL     1       3.447  -3.835  24.600  0.00  0.00    +0.078 A 
ATOM      3  C   UNL     1       4.753  -3.364  24.612  0.00  0.00    +0.082 A 
ATOM      4  C   UNL     1       5.778  -4.298  24.600  0.00  0.00    +0.044 A 
ATOM      5  C   UNL     1       7.062  -3.761  24.585  0.00  0.00    +0.129 A 
ATOM      6  N   UNL     1       7.304  -2.447  24.577  0.00  0.00    -0.199 NA
ATOM      7  C   UNL     1       6.257  -1.606  24.567  0.00  0.00    +0.220 A 
ATOM      8  N   UNL     1       6.495  -0.258  24.515  0.00  0.00    -0.297 N 
ATOM      9  C   UNL     1       7.862   0.276  24.435  0.00  0.00    +0.127 C 
ATOM     10  C   UNL     1       8.067   1.313  25.560  0.00  0.00    +0.127 C 
ATOM     11  N   UNL     1       7.024   2.350  25.503  0.00  0.00    -0.295 N 
ATOM     12  C   UNL     1       7.207   3.682  25.156  0.00  0.00    +0.260 C 
ATOM     13  O   UNL     1       6.235   4.402  24.905  0.00  0.00    -0.271 OA
ATOM     14  C   UNL     1       5.657   1.801  25.566  0.00  0.00    +0.127 C 
ATOM     15  C   UNL     1       5.414   0.726  24.485  0.00  0.00    +0.127 C 
ATOM     16  N   UNL     1       8.199  -4.578  24.589  0.00  0.00    -0.343 N 
ATOM     17  H   UNL     1       9.006  -3.966  24.505  0.00  0.00    +0.144 HD
ATOM     18  H   UNL     1       8.167  -5.265  23.842  0.00  0.00    +0.144 HD
ATOM     19  C   UNL     1       5.473  -5.675  24.580  0.00  0.00    +0.062 A 
ATOM     20  N   UNL     1       4.988  -2.042  24.604  0.00  0.00    -0.214 NA
ATOM     21  C   UNL     1       4.159  -6.146  24.496  0.00  0.00    +0.162 A 
ENDROOT
BRANCH  12  22
ATOM     22  C   UNL     1       8.632   4.280  25.186  0.00  0.00    +0.296 C 
ATOM     23  O   UNL     1       9.384   3.948  24.015  0.00  0.00    -0.473 OA
ATOM     24  C   UNL     1      10.551   4.667  23.946  0.00  0.00    +0.163 A 
ATOM     25  C   UNL     1      10.757   5.860  24.644  0.00  0.00    +0.162 A 
ATOM     26  C   UNL     1      11.960   6.550  24.513  0.00  0.00    +0.049 A 
ATOM     27  C   UNL     1      12.963   6.052  23.678  0.00  0.00    +0.004 A 
ATOM     28  C   UNL     1      12.761   4.857  22.985  0.00  0.00    +0.004 A 
ATOM     29  O   UNL     1       9.826   6.402  25.489  0.00  0.00    -0.484 OA
ATOM     30  C   UNL     1      11.552   4.166  23.116  0.00  0.00    +0.049 A 
ATOM     31  C   UNL     1       8.536   5.804  25.311  0.00  0.00    +0.283 C 
ENDBRANCH  12  22
BRANCH   1  33
ATOM     32  C   UNL     1       1.255  -5.528  23.048  0.00  0.00    +0.277 C 
ATOM     33  O   UNL     1       1.826  -5.627  24.356  0.00  0.00    -0.491 OA
ENDBRANCH   1  33
BRANCH  21  34
ATOM     34  O   UNL     1       4.128  -7.503  24.383  0.00  0.00    -0.491 OA
ATOM     35  C   UNL     1       3.036  -8.267  24.861  0.00  0.00    +0.277 C 
ENDBRANCH  21  34
TORSDOF 3
ENDMDL
MODEL 7
REMARK VINA RESULT:      -6.5      2.507      3.783
REMARK  Name = 
REMARK  5 active torsions:
REMARK  status: ('A' for Active; 'I' for Inactive)
REMARK    1  A    between atoms: C_1  and  O_2
REMARK    2  A    between atoms: O_2  and  C_3
REMARK    3  A    between atoms: C_4  and  O_5
REMARK    4  A    between atoms: O_5  and  C_6
REMARK    5  A    between atoms: C_22  and  C_24
REMARK                            x       y       z     vdW  Elec       q    Type
REMARK                         _______ _______ _______ _____ _____    ______ ____
ROOT
ATOM      1  C   UNL     1       9.679   5.565  24.711  0.00  0.00    +0.164 A 
ATOM      2  C   UNL     1       8.692   4.704  25.234  0.00  0.00    +0.078 A 
ATOM      3  C   UNL     1       8.616   3.355  24.911  0.00  0.00    +0.082 A 
ATOM      4  C   UNL     1       9.499   2.867  23.960  0.00  0.00    +0.044 A 
ATOM      5  C   UNL     1       9.389   1.504  23.701  0.00  0.00    +0.129 A 
ATOM      6  N   UNL     1       8.507   0.712  24.319  0.00  0.00    -0.199 NA
ATOM      7  C   UNL     1       7.701   1.257  25.245  0.00  0.00    +0.220 A 
ATOM      8  N   UNL     1       6.823   0.444  25.914  0.00  0.00    -0.297 N 
ATOM      9  C   UNL     1       6.776  -1.003  25.664  0.00  0.00    +0.127 C 
ATOM     10  C   UNL     1       5.324  -1.414  25.337  0.00  0.00    +0.127 C 
ATOM     11  N   UNL     1       4.410  -0.968  26.402  0.00  0.00    -0.295 N 
ATOM     12  C   UNL     1       3.731  -1.784  27.298  0.00  0.00    +0.260 C 
ATOM     13  O   UNL     1       3.187  -1.300  28.296  0.00  0.00    -0.271 OA
ATOM     14  C   UNL     1       4.479   0.483  26.656  0.00  0.00    +0.127 C 
ATOM     15  C   UNL     1       5.922   0.952  26.947  0.00  0.00    +0.127 C 
ATOM     16  N   UNL     1      10.201   0.869  22.754  0.00  0.00    -0.343 N 
ATOM     17  H   UNL     1       9.986  -0.123  22.795  0.00  0.00    +0.144 HD
ATOM     18  H   UNL     1      11.185   1.049  22.925  0.00  0.00    +0.144 HD
ATOM     19  C   UNL     1      10.431   3.735  23.355  0.00  0.00    +0.062 A 
ATOM     20  N   UNL     1       7.727   2.566  25.535  0.00  0.00    -0.214 NA
ATOM     21  C   UNL     1      10.554   5.076  23.733  0.00  0.00    +0.162 A 
ENDROOT
BRANCH  12  22
ATOM     22  C   UNL     1       3.577  -3.288  26.979  0.00  0.00    +0.296 C 
ATOM     23  O   UNL     1       3.224  -3.520  25.611  0.00  0.00    -0.473 OA
ATOM     24  C   UNL     1       3.316  -4.850  25.287  0.00  0.00    +0.163 A 
ATOM     25  C   UNL     1       4.074  -5.766  26.021  0.00  0.00    +0.162 A 
ATOM     26  C   UNL     1       4.139  -7.100  25.622  0.00  0.00    +0.049 A 
ATOM     27  C   UNL     1       3.449  -7.523  24.485  0.00  0.00    +0.004 A 
ATOM     28  C   UNL     1       2.686  -6.610  23.754  0.00  0.00    +0.004 A 
ATOM     29  O   UNL     1       4.766  -5.428  27.153  0.00  0.00    -0.484 OA
ATOM     30  C   UNL     1       2.623  -5.272  24.153  0.00  0.00    +0.049 A 
ATOM     31  C   UNL     1       4.894  -4.007  27.291  0.00  0.00    +0.283 C 
ENDBRANCH  12  22
BRANCH   1  33
ATOM     32  C   UNL     1      10.801   7.107  26.134  0.00  0.00    +0.277 C 
ATOM     33  O   UNL     1       9.801   6.863  25.139  0.00  0.00    -0.491 OA
ENDBRANCH   1  33
BRANCH  21  34
ATOM     34  O   UNL     1      11.591   5.678  23.087  0.00  0.00    -0.491 OA
ATOM     35  C   UNL     1      12.905   5.154  23.135  0.00  0.00    +0.277 C 
ENDBRANCH  21  34
TORSDOF 3
ENDMDL
MODEL 8
REMARK VINA RESULT:      -6.4      2.596     10.424
REMARK  Name = 
REMARK  5 active torsions:
REMARK  status: ('A' for Active; 'I' for Inactive)
REMARK    1  A    between atoms: C_1  and  O_2
REMARK    2  A    between atoms: O_2  and  C_3
REMARK    3  A    between atoms: C_4  and  O_5
REMARK    4  A    between atoms: O_5  and  C_6
REMARK    5  A    between atoms: C_22  and  C_24
REMARK                            x       y       z     vdW  Elec       q    Type
REMARK                         _______ _______ _______ _____ _____    ______ ____
ROOT
ATOM      1  C   UNL     1       3.339  -6.082  25.654  0.00  0.00    +0.164 A 
ATOM      2  C   UNL     1       4.310  -5.238  25.077  0.00  0.00    +0.078 A 
ATOM      3  C   UNL     1       4.405  -3.883  25.369  0.00  0.00    +0.082 A 
ATOM      4  C   UNL     1       3.441  -3.331  26.198  0.00  0.00    +0.044 A 
ATOM      5  C   UNL     1       3.609  -1.976  26.473  0.00  0.00    +0.129 A 
ATOM      6  N   UNL     1       4.622  -1.253  25.987  0.00  0.00    -0.199 NA
ATOM      7  C   UNL     1       5.528  -1.867  25.209  0.00  0.00    +0.220 A 
ATOM      8  N   UNL     1       6.594  -1.142  24.742  0.00  0.00    -0.297 N 
ATOM      9  C   UNL     1       6.778   0.270  25.104  0.00  0.00    +0.127 C 
ATOM     10  C   UNL     1       6.950   1.105  23.816  0.00  0.00    +0.127 C 
ATOM     11  N   UNL     1       8.039   0.559  22.990  0.00  0.00    -0.295 N 
ATOM     12  C   UNL     1       9.266   1.163  22.746  0.00  0.00    +0.260 C 
ATOM     13  O   UNL     1      10.192   0.516  22.244  0.00  0.00    -0.271 OA
ATOM     14  C   UNL     1       7.852  -0.863  22.648  0.00  0.00    +0.127 C 
ATOM     15  C   UNL     1       7.633  -1.736  23.903  0.00  0.00    +0.127 C 
ATOM     16  N   UNL     1       2.706  -1.275  27.281  0.00  0.00    -0.343 N 
ATOM     17  H   UNL     1       3.075  -0.334  27.391  0.00  0.00    +0.144 HD
ATOM     18  H   UNL     1       2.572  -1.734  28.176  0.00  0.00    +0.144 HD
ATOM     19  C   UNL     1       2.406  -4.141  26.710  0.00  0.00    +0.062 A 
ATOM     20  N   UNL     1       5.426  -3.162  24.876  0.00  0.00    -0.214 NA
ATOM     21  C   UNL     1       2.352  -5.518  26.471  0.00  0.00    +0.162 A 
ENDROOT
BRANCH  12  22
ATOM     22  C   UNL     1       9.429   2.675  23.013  0.00  0.00    +0.296 C 
ATOM     23  O   UNL     1       8.740   3.095  24.195  0.00  0.00    -0.473 OA
ATOM     24  C   UNL     1       9.078   4.378  24.546  0.00  0.00    +0.163 A 
ATOM     25  C   UNL     1      10.245   5.009  24.107  0.00  0.00    +0.162 A 
ATOM     26  C   UNL     1      10.537   6.307  24.519  0.00  0.00    +0.049 A 
ATOM     27  C   UNL     1       9.665   6.980  25.376  0.00  0.00    +0.004 A 
ATOM     28  C   UNL     1       8.495   6.354  25.811  0.00  0.00    +0.004 A 
ATOM     29  O   UNL     1      11.141   4.417  23.257  0.00  0.00    -0.484 OA
ATOM     30  C   UNL     1       8.204   5.050  25.398  0.00  0.00    +0.049 A 
ATOM     31  C   UNL     1      10.919   3.005  23.152  0.00  0.00    +0.283 C 
ENDBRANCH  12  22
BRANCH   1  33
ATOM     32  C   UNL     1       2.581  -7.899  24.318  0.00  0.00    +0.277 C 
ATOM     33  O   UNL     1       3.343  -7.436  25.437  0.00  0.00    -0.491 OA
ENDBRANCH   1  33
BRANCH  21  34
ATOM     34  O   UNL     1       1.327  -6.097  27.157  0.00  0.00    -0.491 OA
ATOM     35  C   UNL     1       0.725  -5.466  28.272  0.00  0.00    +0.277 C 
ENDBRANCH  21  34
TORSDOF 3
ENDMDL
MODEL 9
REMARK VINA RESULT:      -6.4      2.556      3.217
REMARK  Name = 
REMARK  5 active torsions:
REMARK  status: ('A' for Active; 'I' for Inactive)
REMARK    1  A    between atoms: C_1  and  O_2
REMARK    2  A    between atoms: O_2  and  C_3
REMARK    3  A    between atoms: C_4  and  O_5
REMARK    4  A    between atoms: O_5  and  C_6
REMARK    5  A    between atoms: C_22  and  C_24
REMARK                            x       y       z     vdW  Elec       q    Type
REMARK                         _______ _______ _______ _____ _____    ______ ____
ROOT
ATOM      1  C   UNL     1       8.247   5.154  23.420  0.00  0.00    +0.164 A 
ATOM      2  C   UNL     1       8.509   3.843  23.870  0.00  0.00    +0.078 A 
ATOM      3  C   UNL     1       7.505   2.944  24.206  0.00  0.00    +0.082 A 
ATOM      4  C   UNL     1       6.195   3.397  24.181  0.00  0.00    +0.044 A 
ATOM      5  C   UNL     1       5.236   2.440  24.501  0.00  0.00    +0.129 A 
ATOM      6  N   UNL     1       5.541   1.175  24.807  0.00  0.00    -0.199 NA
ATOM      7  C   UNL     1       6.833   0.808  24.788  0.00  0.00    +0.220 A 
ATOM      8  N   UNL     1       7.150  -0.498  25.057  0.00  0.00    -0.297 N 
ATOM      9  C   UNL     1       6.110  -1.498  25.329  0.00  0.00    +0.127 C 
ATOM     10  C   UNL     1       6.427  -2.211  26.662  0.00  0.00    +0.127 C 
ATOM     11  N   UNL     1       7.790  -2.766  26.638  0.00  0.00    -0.295 N 
ATOM     12  C   UNL     1       8.128  -4.113  26.610  0.00  0.00    +0.260 C 
ATOM     13  O   UNL     1       9.284  -4.462  26.347  0.00  0.00    -0.271 OA
ATOM     14  C   UNL     1       8.824  -1.756  26.347  0.00  0.00    +0.127 C 
ATOM     15  C   UNL     1       8.529  -0.985  25.042  0.00  0.00    +0.127 C 
ATOM     16  N   UNL     1       3.872   2.752  24.535  0.00  0.00    -0.343 N 
ATOM     17  H   UNL     1       3.374   1.886  24.722  0.00  0.00    +0.144 HD
ATOM     18  H   UNL     1       3.567   3.184  23.670  0.00  0.00    +0.144 HD
ATOM     19  C   UNL     1       5.921   4.734  23.825  0.00  0.00    +0.062 A 
ATOM     20  N   UNL     1       7.819   1.675  24.513  0.00  0.00    -0.214 NA
ATOM     21  C   UNL     1       6.926   5.617  23.419  0.00  0.00    +0.162 A 
ENDROOT
BRANCH  12  22
ATOM     22  C   UNL     1       7.069  -5.164  27.010  0.00  0.00    +0.296 C 
ATOM     23  O   UNL     1       6.452  -4.863  28.266  0.00  0.00    -0.473 OA
ATOM     24  C   UNL     1       5.364  -5.667  28.498  0.00  0.00    +0.163 A 
ATOM     25  C   UNL     1       4.683  -6.344  27.483  0.00  0.00    +0.162 A 
ATOM     26  C   UNL     1       3.572  -7.128  27.787  0.00  0.00    +0.049 A 
ATOM     27  C   UNL     1       3.134  -7.235  29.108  0.00  0.00    +0.004 A 
ATOM     28  C   UNL     1       3.817  -6.564  30.124  0.00  0.00    +0.004 A 
ATOM     29  O   UNL     1       5.061  -6.296  26.167  0.00  0.00    -0.484 OA
ATOM     30  C   UNL     1       4.931  -5.776  29.818  0.00  0.00    +0.049 A 
ATOM     31  C   UNL     1       5.993  -5.235  25.922  0.00  0.00    +0.283 C 
ENDBRANCH  12  22
BRANCH   1  33
ATOM     32  C   UNL     1      10.465   5.954  23.743  0.00  0.00    +0.277 C 
ATOM     33  O   UNL     1       9.252   5.979  22.983  0.00  0.00    -0.491 OA
ENDBRANCH   1  33
BRANCH  21  34
ATOM     34  O   UNL     1       6.402   6.812  23.024  0.00  0.00    -0.491 OA
ATOM     35  C   UNL     1       5.092   6.914  22.497  0.00  0.00    +0.277 C 
ENDBRANCH  21  34
TORSDOF 3
ENDMDL
