MODEL 1
REMARK VINA RESULT:      -7.1      0.000      0.000
REMARK  Name = 
REMARK  12 active torsions:
REMARK  status: ('A' for Active; 'I' for Inactive)
REMARK    1  A    between atoms: C_4  and  O_5
REMARK    2  A    between atoms: C_8  and  C_10
REMARK    3  A    between atoms: C_10  and  C_11
REMARK    4  A    between atoms: C_11  and  C_12
REMARK    5  A    between atoms: C_15  and  C_18
REMARK    6  A    between atoms: N_20  and  CA_21
REMARK    7  A    between atoms: CA_21  and  CB_23
REMARK    8  A    between atoms: CA_21  and  C_28
REMARK    9  A    between atoms: CB_23  and  CG_24
REMARK   10  A    between atoms: CG_24  and  CD_25
REMARK   11  A    between atoms: CD_25  and  OE1_26
REMARK   12  A    between atoms: C_28  and  O_29
REMARK                            x       y       z     vdW  Elec       q    Type
REMARK                         _______ _______ _______ _____ _____    ______ ____
ROOT
ATOM      1  C   UNK A   0       9.346  -0.673  22.333  0.00  0.00    -0.047 A 
ATOM      2  C   UNK A   0      10.316  -1.293  23.136  0.00  0.00    +0.004 A 
ATOM      3  C   UNK A   0      10.061  -2.528  23.744  0.00  0.00    +0.013 A 
ATOM      4  C   UNK A   0       8.824  -3.154  23.565  0.00  0.00    +0.037 A 
ATOM      5  C   UNK A   0       7.897  -2.601  22.679  0.00  0.00    +0.013 A 
ATOM      6  C   UNK A   0       8.162  -1.376  22.068  0.00  0.00    +0.004 A 
ENDROOT
BRANCH   4   7
ATOM      7  C   UNK A   0       8.505  -4.371  24.360  0.00  0.00    +0.245 C 
ATOM      8  N   GLU A   1       7.288  -4.363  25.015  0.00  0.00    -0.298 N 
ATOM      9  H   GLU A   1       6.624  -3.619  24.829  0.00  0.00    +0.150 HD
ATOM     10  O   UNK A   0       9.299  -5.301  24.433  0.00  0.00    -0.270 OA
BRANCH   8  11
ATOM     11  CA  GLU A   1       6.789  -5.526  25.770  0.00  0.00    +0.182 C 
BRANCH  11  12
ATOM     12  C   GLU A   1       6.841  -5.204  27.275  0.00  0.00    +0.325 C 
ATOM     13  OXT GLU A   1       7.206  -5.976  28.147  0.00  0.00    -0.249 OA
BRANCH  12  14
ATOM     14  O   GLU A   1       6.504  -3.916  27.549  0.00  0.00    -0.479 OA
ATOM     15  H   GLU A   1       6.106  -3.490  26.763  0.00  0.00    +0.295 HD
ENDBRANCH  12  14
ENDBRANCH  11  12
BRANCH  11  16
ATOM     16  CB  GLU A   1       5.365  -5.906  25.349  0.00  0.00    +0.045 C 
BRANCH  16  17
ATOM     17  CG  GLU A   1       5.189  -5.981  23.831  0.00  0.00    +0.123 C 
BRANCH  17  18
ATOM     18  CD  GLU A   1       4.201  -4.963  23.321  0.00  0.00    +0.305 C 
ATOM     19  OE2 GLU A   1       3.117  -5.217  22.824  0.00  0.00    -0.251 OA
BRANCH  18  20
ATOM     20  OE1 GLU A   1       4.638  -3.694  23.503  0.00  0.00    -0.481 OA
ATOM     21  HE1 GLU A   1       4.441  -3.338  24.391  0.00  0.00    +0.295 HD
ENDBRANCH  18  20
ENDBRANCH  17  18
ENDBRANCH  16  17
ENDBRANCH  11  16
ENDBRANCH   8  11
ENDBRANCH   4   7
BRANCH   1  22
ATOM     22  C   UNK A   0       9.602   0.721  21.781  0.00  0.00    +0.035 C 
BRANCH  22  23
ATOM     23  C   UNK A   0       8.349   1.614  21.760  0.00  0.00    +0.010 C 
BRANCH  23  32
ATOM     24  N   UNK A   0       4.983  -1.997  25.901  0.00  0.00    -0.327 N 
ATOM     25  H   UNK A   0       4.033  -1.681  25.767  0.00  0.00    +0.145 HD
ATOM     26  H   UNK A   0       5.229  -2.390  26.797  0.00  0.00    +0.145 HD
ATOM     27  C   UNK A   0       5.867  -0.998  25.548  0.00  0.00    +0.217 A 
ATOM     28  N   UNK A   0       5.423  -0.052  24.714  0.00  0.00    -0.199 NA
ATOM     29  C   UNK A   0       6.303   0.883  24.328  0.00  0.00    +0.131 A 
ATOM     30  C   UNK A   0       7.611   0.894  24.768  0.00  0.00    +0.054 A 
ATOM     31  C   UNK A   0       8.575   1.950  24.322  0.00  0.00    +0.049 C 
ATOM     32  C   UNK A   0       8.156   2.556  22.973  0.00  0.00    +0.011 C 
ATOM     33  C   UNK A   0       6.672   2.964  23.087  0.00  0.00    +0.106 C 
ATOM     34  C   UNK A   0       7.920  -0.088  25.667  0.00  0.00    +0.222 A 
ATOM     35  N   UNK A   0       5.862   1.804  23.397  0.00  0.00    -0.328 N 
ATOM     36  H   UNK A   0       4.861   1.813  23.261  0.00  0.00    +0.147 HD
ATOM     37  N   UNK A   0       7.089  -1.045  26.081  0.00  0.00    -0.179 NA
BRANCH  34  38
ATOM     38  O   UNK A   0       9.159  -0.167  26.218  0.00  0.00    -0.492 OA
ATOM     39  H   UNK A   0       9.002   0.293  27.062  0.00  0.00    +0.294 HD
ENDBRANCH  34  38
ENDBRANCH  23  32
ENDBRANCH  22  23
ENDBRANCH   1  22
TORSDOF 12
ENDMDL
MODEL 2
REMARK VINA RESULT:      -6.3      1.892      2.853
REMARK  Name = 
REMARK  12 active torsions:
REMARK  status: ('A' for Active; 'I' for Inactive)
REMARK    1  A    between atoms: C_4  and  O_5
REMARK    2  A    between atoms: C_8  and  C_10
REMARK    3  A    between atoms: C_10  and  C_11
REMARK    4  A    between atoms: C_11  and  C_12
REMARK    5  A    between atoms: C_15  and  C_18
REMARK    6  A    between atoms: N_20  and  CA_21
REMARK    7  A    between atoms: CA_21  and  CB_23
REMARK    8  A    between atoms: CA_21  and  C_28
REMARK    9  A    between atoms: CB_23  and  CG_24
REMARK   10  A    between atoms: CG_24  and  CD_25
REMARK   11  A    between atoms: CD_25  and  OE1_26
REMARK   12  A    between atoms: C_28  and  O_29
REMARK                            x       y       z     vdW  Elec       q    Type
REMARK                         _______ _______ _______ _____ _____    ______ ____
ROOT
ATOM      1  C   UNK A   0      10.339   2.304  23.544  0.00  0.00    -0.047 A 
ATOM      2  C   UNK A   0      10.718   1.386  24.537  0.00  0.00    +0.004 A 
ATOM      3  C   UNK A   0      10.584   0.008  24.329  0.00  0.00    +0.013 A 
ATOM      4  C   UNK A   0      10.056  -0.470  23.126  0.00  0.00    +0.037 A 
ATOM      5  C   UNK A   0       9.782   0.428  22.093  0.00  0.00    +0.013 A 
ATOM      6  C   UNK A   0       9.929   1.798  22.302  0.00  0.00    +0.004 A 
ENDROOT
BRANCH   4   7
ATOM      7  C   UNK A   0       9.752  -1.920  22.993  0.00  0.00    +0.245 C 
ATOM      8  N   GLU A   1       9.414  -2.578  24.160  0.00  0.00    -0.298 N 
ATOM      9  H   GLU A   1       9.259  -2.044  25.009  0.00  0.00    +0.150 HD
ATOM     10  O   UNK A   0       9.826  -2.481  21.906  0.00  0.00    -0.270 OA
BRANCH   8  11
ATOM     11  CA  GLU A   1       9.002  -3.992  24.181  0.00  0.00    +0.182 C 
BRANCH  11  12
ATOM     12  C   GLU A   1       9.415  -4.614  25.528  0.00  0.00    +0.325 C 
ATOM     13  OXT GLU A   1       9.007  -4.257  26.621  0.00  0.00    -0.249 OA
BRANCH  12  14
ATOM     14  O   GLU A   1      10.244  -5.681  25.383  0.00  0.00    -0.479 OA
ATOM     15  H   GLU A   1       9.898  -6.453  25.875  0.00  0.00    +0.295 HD
ENDBRANCH  12  14
ENDBRANCH  11  12
BRANCH  11  16
ATOM     16  CB  GLU A   1       7.493  -4.146  23.955  0.00  0.00    +0.045 C 
BRANCH  16  17
ATOM     17  CG  GLU A   1       7.155  -4.907  22.673  0.00  0.00    +0.123 C 
BRANCH  17  18
ATOM     18  CD  GLU A   1       5.705  -4.756  22.286  0.00  0.00    +0.305 C 
ATOM     19  OE2 GLU A   1       5.068  -3.716  22.322  0.00  0.00    -0.251 OA
BRANCH  18  20
ATOM     20  OE1 GLU A   1       5.171  -5.921  21.850  0.00  0.00    -0.481 OA
ATOM     21  HE1 GLU A   1       4.297  -5.815  21.426  0.00  0.00    +0.295 HD
ENDBRANCH  18  20
ENDBRANCH  17  18
ENDBRANCH  16  17
ENDBRANCH  11  16
ENDBRANCH   8  11
ENDBRANCH   4   7
BRANCH   1  22
ATOM     22  C   UNK A   0      10.384   3.795  23.839  0.00  0.00    +0.035 C 
BRANCH  22  23
ATOM     23  C   UNK A   0       9.270   4.593  23.140  0.00  0.00    +0.010 C 
BRANCH  23  32
ATOM     24  N   UNK A   0       6.016  -0.961  23.426  0.00  0.00    -0.327 N 
ATOM     25  H   UNK A   0       5.299  -0.848  22.724  0.00  0.00    +0.145 HD
ATOM     26  H   UNK A   0       5.831  -1.588  24.194  0.00  0.00    +0.145 HD
ATOM     27  C   UNK A   0       6.422   0.273  23.889  0.00  0.00    +0.217 A 
ATOM     28  N   UNK A   0       6.203   1.329  23.099  0.00  0.00    -0.199 NA
ATOM     29  C   UNK A   0       6.652   2.517  23.529  0.00  0.00    +0.131 A 
ATOM     30  C   UNK A   0       7.304   2.669  24.735  0.00  0.00    +0.054 A 
ATOM     31  C   UNK A   0       7.797   4.007  25.193  0.00  0.00    +0.049 C 
ATOM     32  C   UNK A   0       8.037   4.951  24.004  0.00  0.00    +0.011 C 
ATOM     33  C   UNK A   0       6.764   4.933  23.131  0.00  0.00    +0.106 C 
ATOM     34  C   UNK A   0       7.407   1.526  25.477  0.00  0.00    +0.222 A 
ATOM     35  N   UNK A   0       6.502   3.586  22.666  0.00  0.00    -0.328 N 
ATOM     36  H   UNK A   0       5.878   3.412  21.891  0.00  0.00    +0.147 HD
ATOM     37  N   UNK A   0       6.985   0.318  25.098  0.00  0.00    -0.179 NA
BRANCH  34  38
ATOM     38  O   UNK A   0       7.984   1.539  26.707  0.00  0.00    -0.492 OA
ATOM     39  H   UNK A   0       8.072   0.582  26.867  0.00  0.00    +0.294 HD
ENDBRANCH  34  38
ENDBRANCH  23  32
ENDBRANCH  22  23
ENDBRANCH   1  22
TORSDOF 12
ENDMDL
MODEL 3
REMARK VINA RESULT:      -6.3      3.706      8.249
REMARK  Name = 
REMARK  12 active torsions:
REMARK  status: ('A' for Active; 'I' for Inactive)
REMARK    1  A    between atoms: C_4  and  O_5
REMARK    2  A    between atoms: C_8  and  C_10
REMARK    3  A    between atoms: C_10  and  C_11
REMARK    4  A    between atoms: C_11  and  C_12
REMARK    5  A    between atoms: C_15  and  C_18
REMARK    6  A    between atoms: N_20  and  CA_21
REMARK    7  A    between atoms: CA_21  and  CB_23
REMARK    8  A    between atoms: CA_21  and  C_28
REMARK    9  A    between atoms: CB_23  and  CG_24
REMARK   10  A    between atoms: CG_24  and  CD_25
REMARK   11  A    between atoms: CD_25  and  OE1_26
REMARK   12  A    between atoms: C_28  and  O_29
REMARK                            x       y       z     vdW  Elec       q    Type
REMARK                         _______ _______ _______ _____ _____    ______ ____
ROOT
ATOM      1  C   UNK A   0       9.801  -1.062  23.454  0.00  0.00    -0.047 A 
ATOM      2  C   UNK A   0       9.263  -0.497  22.287  0.00  0.00    +0.004 A 
ATOM      3  C   UNK A   0       9.070   0.886  22.184  0.00  0.00    +0.013 A 
ATOM      4  C   UNK A   0       9.405   1.721  23.253  0.00  0.00    +0.037 A 
ATOM      5  C   UNK A   0      10.043   1.182  24.371  0.00  0.00    +0.013 A 
ATOM      6  C   UNK A   0      10.242  -0.195  24.464  0.00  0.00    +0.004 A 
ENDROOT
BRANCH   4   7
ATOM      7  C   UNK A   0       9.027   3.160  23.197  0.00  0.00    +0.245 C 
ATOM      8  N   GLU A   1       9.835   4.026  23.909  0.00  0.00    -0.298 N 
ATOM      9  H   GLU A   1      10.699   3.685  24.316  0.00  0.00    +0.150 HD
ATOM     10  O   UNK A   0       8.041   3.527  22.569  0.00  0.00    -0.270 OA
BRANCH   8  11
ATOM     11  CA  GLU A   1       9.645   5.486  23.881  0.00  0.00    +0.182 C 
BRANCH  11  12
ATOM     12  C   GLU A   1       8.954   5.925  25.185  0.00  0.00    +0.325 C 
ATOM     13  OXT GLU A   1       9.530   6.249  26.212  0.00  0.00    -0.249 OA
BRANCH  12  14
ATOM     14  O   GLU A   1       7.601   5.994  25.067  0.00  0.00    -0.479 OA
ATOM     15  H   GLU A   1       7.329   6.882  24.757  0.00  0.00    +0.295 HD
ENDBRANCH  12  14
ENDBRANCH  11  12
BRANCH  11  16
ATOM     16  CB  GLU A   1      10.975   6.228  23.700  0.00  0.00    +0.045 C 
BRANCH  16  17
ATOM     17  CG  GLU A   1      12.193   5.355  24.005  0.00  0.00    +0.123 C 
BRANCH  17  18
ATOM     18  CD  GLU A   1      13.171   5.319  22.858  0.00  0.00    +0.305 C 
ATOM     19  OE2 GLU A   1      12.911   5.592  21.698  0.00  0.00    -0.251 OA
BRANCH  18  20
ATOM     20  OE1 GLU A   1      14.416   4.973  23.262  0.00  0.00    -0.481 OA
ATOM     21  HE1 GLU A   1      14.736   5.490  24.027  0.00  0.00    +0.295 HD
ENDBRANCH  18  20
ENDBRANCH  17  18
ENDBRANCH  16  17
ENDBRANCH  11  16
ENDBRANCH   8  11
ENDBRANCH   4   7
BRANCH   1  22
ATOM     22  C   UNK A   0       9.890  -2.575  23.587  0.00  0.00    +0.035 C 
BRANCH  22  23
ATOM     23  C   UNK A   0       8.578  -3.229  24.056  0.00  0.00    +0.010 C 
BRANCH  23  32
ATOM     24  N   UNK A   0       3.949  -7.441  25.586  0.00  0.00    -0.327 N 
ATOM     25  H   UNK A   0       3.131  -7.065  25.130  0.00  0.00    +0.145 HD
ATOM     26  H   UNK A   0       3.813  -8.016  26.404  0.00  0.00    +0.145 HD
ATOM     27  C   UNK A   0       4.854  -6.432  25.844  0.00  0.00    +0.217 A 
ATOM     28  N   UNK A   0       4.760  -5.320  25.108  0.00  0.00    -0.199 NA
ATOM     29  C   UNK A   0       5.677  -4.367  25.322  0.00  0.00    +0.131 A 
ATOM     30  C   UNK A   0       6.676  -4.500  26.264  0.00  0.00    +0.054 A 
ATOM     31  C   UNK A   0       7.690  -3.420  26.485  0.00  0.00    +0.049 C 
ATOM     32  C   UNK A   0       7.851  -2.540  25.235  0.00  0.00    +0.011 C 
ATOM     33  C   UNK A   0       6.440  -2.098  24.792  0.00  0.00    +0.106 C 
ATOM     34  C   UNK A   0       6.623  -5.654  26.995  0.00  0.00    +0.222 A 
ATOM     35  N   UNK A   0       5.628  -3.260  24.495  0.00  0.00    -0.328 N 
ATOM     36  H   UNK A   0       4.777  -3.180  23.955  0.00  0.00    +0.147 HD
ATOM     37  N   UNK A   0       5.738  -6.637  26.821  0.00  0.00    -0.179 NA
BRANCH  34  38
ATOM     38  O   UNK A   0       7.517  -5.896  27.988  0.00  0.00    -0.492 OA
ATOM     39  H   UNK A   0       7.640  -6.856  27.880  0.00  0.00    +0.294 HD
ENDBRANCH  34  38
ENDBRANCH  23  32
ENDBRANCH  22  23
ENDBRANCH   1  22
TORSDOF 12
ENDMDL
MODEL 4
REMARK VINA RESULT:      -6.1      3.741      8.530
REMARK  Name = 
REMARK  12 active torsions:
REMARK  status: ('A' for Active; 'I' for Inactive)
REMARK    1  A    between atoms: C_4  and  O_5
REMARK    2  A    between atoms: C_8  and  C_10
REMARK    3  A    between atoms: C_10  and  C_11
REMARK    4  A    between atoms: C_11  and  C_12
REMARK    5  A    between atoms: C_15  and  C_18
REMARK    6  A    between atoms: N_20  and  CA_21
REMARK    7  A    between atoms: CA_21  and  CB_23
REMARK    8  A    between atoms: CA_21  and  C_28
REMARK    9  A    between atoms: CB_23  and  CG_24
REMARK   10  A    between atoms: CG_24  and  CD_25
REMARK   11  A    between atoms: CD_25  and  OE1_26
REMARK   12  A    between atoms: C_28  and  O_29
REMARK                            x       y       z     vdW  Elec       q    Type
REMARK                         _______ _______ _______ _____ _____    ______ ____
ROOT
ATOM      1  C   UNK A   0       9.756  -0.909  23.340  0.00  0.00    -0.047 A 
ATOM      2  C   UNK A   0       9.411  -0.257  22.145  0.00  0.00    +0.004 A 
ATOM      3  C   UNK A   0       9.249   1.134  22.108  0.00  0.00    +0.013 A 
ATOM      4  C   UNK A   0       9.420   1.889  23.272  0.00  0.00    +0.037 A 
ATOM      5  C   UNK A   0       9.873   1.264  24.435  0.00  0.00    +0.013 A 
ATOM      6  C   UNK A   0      10.044  -0.119  24.462  0.00  0.00    +0.004 A 
ENDROOT
BRANCH   4   7
ATOM      7  C   UNK A   0       9.069   3.335  23.256  0.00  0.00    +0.245 C 
ATOM      8  N   GLU A   1       9.875   4.162  24.015  0.00  0.00    -0.298 N 
ATOM      9  H   GLU A   1      10.724   3.792  24.428  0.00  0.00    +0.150 HD
ATOM     10  O   UNK A   0       8.104   3.741  22.621  0.00  0.00    -0.270 OA
BRANCH   8  11
ATOM     11  CA  GLU A   1       9.711   5.626  24.034  0.00  0.00    +0.182 C 
BRANCH  11  12
ATOM     12  C   GLU A   1       9.010   6.033  25.342  0.00  0.00    +0.325 C 
ATOM     13  OXT GLU A   1       9.577   6.326  26.383  0.00  0.00    -0.249 OA
BRANCH  12  14
ATOM     14  O   GLU A   1       7.659   6.113  25.213  0.00  0.00    -0.479 OA
ATOM     15  H   GLU A   1       7.232   6.161  26.093  0.00  0.00    +0.295 HD
ENDBRANCH  12  14
ENDBRANCH  11  12
BRANCH  11  16
ATOM     16  CB  GLU A   1      11.056   6.349  23.895  0.00  0.00    +0.045 C 
BRANCH  16  17
ATOM     17  CG  GLU A   1      12.256   5.436  24.153  0.00  0.00    +0.123 C 
BRANCH  17  18
ATOM     18  CD  GLU A   1      13.102   5.244  22.920  0.00  0.00    +0.305 C 
ATOM     19  OE2 GLU A   1      12.699   5.294  21.771  0.00  0.00    -0.251 OA
BRANCH  18  20
ATOM     20  OE1 GLU A   1      14.404   5.035  23.225  0.00  0.00    -0.481 OA
ATOM     21  HE1 GLU A   1      14.770   5.695  23.847  0.00  0.00    +0.295 HD
ENDBRANCH  18  20
ENDBRANCH  17  18
ENDBRANCH  16  17
ENDBRANCH  11  16
ENDBRANCH   8  11
ENDBRANCH   4   7
BRANCH   1  22
ATOM     22  C   UNK A   0       9.811  -2.428  23.381  0.00  0.00    +0.035 C 
BRANCH  22  23
ATOM     23  C   UNK A   0       8.486  -3.079  23.818  0.00  0.00    +0.010 C 
BRANCH  23  32
ATOM     24  N   UNK A   0       2.262  -4.691  24.239  0.00  0.00    -0.327 N 
ATOM     25  H   UNK A   0       2.090  -4.702  25.233  0.00  0.00    +0.145 HD
ATOM     26  H   UNK A   0       1.681  -5.271  23.652  0.00  0.00    +0.145 HD
ATOM     27  C   UNK A   0       3.598  -4.925  23.987  0.00  0.00    +0.217 A 
ATOM     28  N   UNK A   0       4.463  -4.672  24.974  0.00  0.00    -0.199 NA
ATOM     29  C   UNK A   0       5.765  -4.845  24.705  0.00  0.00    +0.131 A 
ATOM     30  C   UNK A   0       6.215  -5.277  23.474  0.00  0.00    +0.054 A 
ATOM     31  C   UNK A   0       7.675  -5.463  23.199  0.00  0.00    +0.049 C 
ATOM     32  C   UNK A   0       8.535  -4.593  24.130  0.00  0.00    +0.011 C 
ATOM     33  C   UNK A   0       8.056  -4.846  25.575  0.00  0.00    +0.106 C 
ATOM     34  C   UNK A   0       5.227  -5.563  22.574  0.00  0.00    +0.222 A 
ATOM     35  N   UNK A   0       6.657  -4.495  25.702  0.00  0.00    -0.328 N 
ATOM     36  H   UNK A   0       6.233  -4.347  26.607  0.00  0.00    +0.147 HD
ATOM     37  N   UNK A   0       3.920  -5.404  22.784  0.00  0.00    -0.179 NA
BRANCH  34  38
ATOM     38  O   UNK A   0       5.525  -6.042  21.338  0.00  0.00    -0.492 OA
ATOM     39  H   UNK A   0       6.387  -6.460  21.517  0.00  0.00    +0.294 HD
ENDBRANCH  34  38
ENDBRANCH  23  32
ENDBRANCH  22  23
ENDBRANCH   1  22
TORSDOF 12
ENDMDL
MODEL 5
REMARK VINA RESULT:      -6.1      2.568      6.562
REMARK  Name = 
REMARK  12 active torsions:
REMARK  status: ('A' for Active; 'I' for Inactive)
REMARK    1  A    between atoms: C_4  and  O_5
REMARK    2  A    between atoms: C_8  and  C_10
REMARK    3  A    between atoms: C_10  and  C_11
REMARK    4  A    between atoms: C_11  and  C_12
REMARK    5  A    between atoms: C_15  and  C_18
REMARK    6  A    between atoms: N_20  and  CA_21
REMARK    7  A    between atoms: CA_21  and  CB_23
REMARK    8  A    between atoms: CA_21  and  C_28
REMARK    9  A    between atoms: CB_23  and  CG_24
REMARK   10  A    between atoms: CG_24  and  CD_25
REMARK   11  A    between atoms: CD_25  and  OE1_26
REMARK   12  A    between atoms: C_28  and  O_29
REMARK                            x       y       z     vdW  Elec       q    Type
REMARK                         _______ _______ _______ _____ _____    ______ ____
ROOT
ATOM      1  C   UNK A   0       8.612  -4.052  25.818  0.00  0.00    -0.047 A 
ATOM      2  C   UNK A   0       9.469  -4.009  24.707  0.00  0.00    +0.004 A 
ATOM      3  C   UNK A   0       9.901  -2.785  24.182  0.00  0.00    +0.013 A 
ATOM      4  C   UNK A   0       9.471  -1.586  24.757  0.00  0.00    +0.037 A 
ATOM      5  C   UNK A   0       8.711  -1.620  25.927  0.00  0.00    +0.013 A 
ATOM      6  C   UNK A   0       8.293  -2.842  26.452  0.00  0.00    +0.004 A 
ENDROOT
BRANCH   4   7
ATOM      7  C   UNK A   0       9.791  -0.300  24.079  0.00  0.00    +0.245 C 
ATOM      8  N   GLU A   1       8.927   0.748  24.331  0.00  0.00    -0.298 N 
ATOM      9  H   GLU A   1       8.214   0.649  25.045  0.00  0.00    +0.150 HD
ATOM     10  O   UNK A   0      10.754  -0.208  23.328  0.00  0.00    -0.270 OA
BRANCH   8  11
ATOM     11  CA  GLU A   1       9.156   2.105  23.806  0.00  0.00    +0.182 C 
BRANCH  11  12
ATOM     12  C   GLU A   1       8.937   2.095  22.282  0.00  0.00    +0.325 C 
ATOM     13  OXT GLU A   1       7.850   2.057  21.728  0.00  0.00    -0.249 OA
BRANCH  12  14
ATOM     14  O   GLU A   1      10.097   2.212  21.582  0.00  0.00    -0.479 OA
ATOM     15  H   GLU A   1      10.747   1.544  21.883  0.00  0.00    +0.295 HD
ENDBRANCH  12  14
ENDBRANCH  11  12
BRANCH  11  16
ATOM     16  CB  GLU A   1       8.239   3.135  24.476  0.00  0.00    +0.045 C 
BRANCH  16  17
ATOM     17  CG  GLU A   1       7.088   2.495  25.253  0.00  0.00    +0.123 C 
BRANCH  17  18
ATOM     18  CD  GLU A   1       5.818   2.430  24.443  0.00  0.00    +0.305 C 
ATOM     19  OE2 GLU A   1       4.916   1.625  24.605  0.00  0.00    -0.251 OA
BRANCH  18  20
ATOM     20  OE1 GLU A   1       5.762   3.406  23.506  0.00  0.00    -0.481 OA
ATOM     21  HE1 GLU A   1       6.641   3.728  23.226  0.00  0.00    +0.295 HD
ENDBRANCH  18  20
ENDBRANCH  17  18
ENDBRANCH  16  17
ENDBRANCH  11  16
ENDBRANCH   8  11
ENDBRANCH   4   7
BRANCH   1  22
ATOM     22  C   UNK A   0       8.063  -5.388  26.296  0.00  0.00    +0.035 C 
BRANCH  22  23
ATOM     23  C   UNK A   0       6.674  -5.283  26.948  0.00  0.00    +0.010 C 
BRANCH  23  32
ATOM     24  N   UNK A   0       6.316  -0.441  22.713  0.00  0.00    -0.327 N 
ATOM     25  H   UNK A   0       5.585   0.145  23.089  0.00  0.00    +0.145 HD
ATOM     26  H   UNK A   0       6.482  -0.410  21.718  0.00  0.00    +0.145 HD
ATOM     27  C   UNK A   0       6.146  -1.742  23.139  0.00  0.00    +0.217 A 
ATOM     28  N   UNK A   0       5.424  -1.936  24.247  0.00  0.00    -0.199 NA
ATOM     29  C   UNK A   0       5.311  -3.197  24.689  0.00  0.00    +0.131 A 
ATOM     30  C   UNK A   0       5.896  -4.264  24.038  0.00  0.00    +0.054 A 
ATOM     31  C   UNK A   0       5.756  -5.663  24.553  0.00  0.00    +0.049 C 
ATOM     32  C   UNK A   0       5.468  -5.678  26.063  0.00  0.00    +0.011 C 
ATOM     33  C   UNK A   0       4.291  -4.714  26.321  0.00  0.00    +0.106 C 
ATOM     34  C   UNK A   0       6.551  -3.939  22.883  0.00  0.00    +0.222 A 
ATOM     35  N   UNK A   0       4.640  -3.378  25.883  0.00  0.00    -0.328 N 
ATOM     36  H   UNK A   0       4.116  -2.571  26.194  0.00  0.00    +0.147 HD
ATOM     37  N   UNK A   0       6.700  -2.705  22.401  0.00  0.00    -0.179 NA
BRANCH  34  38
ATOM     38  O   UNK A   0       7.134  -4.898  22.117  0.00  0.00    -0.492 OA
ATOM     39  H   UNK A   0       8.073  -4.662  22.230  0.00  0.00    +0.294 HD
ENDBRANCH  34  38
ENDBRANCH  23  32
ENDBRANCH  22  23
ENDBRANCH   1  22
TORSDOF 12
ENDMDL
MODEL 6
REMARK VINA RESULT:      -6.1      2.429      3.731
REMARK  Name = 
REMARK  12 active torsions:
REMARK  status: ('A' for Active; 'I' for Inactive)
REMARK    1  A    between atoms: C_4  and  O_5
REMARK    2  A    between atoms: C_8  and  C_10
REMARK    3  A    between atoms: C_10  and  C_11
REMARK    4  A    between atoms: C_11  and  C_12
REMARK    5  A    between atoms: C_15  and  C_18
REMARK    6  A    between atoms: N_20  and  CA_21
REMARK    7  A    between atoms: CA_21  and  CB_23
REMARK    8  A    between atoms: CA_21  and  C_28
REMARK    9  A    between atoms: CB_23  and  CG_24
REMARK   10  A    between atoms: CG_24  and  CD_25
REMARK   11  A    between atoms: CD_25  and  OE1_26
REMARK   12  A    between atoms: C_28  and  O_29
REMARK                            x       y       z     vdW  Elec       q    Type
REMARK                         _______ _______ _______ _____ _____    ______ ____
ROOT
ATOM      1  C   UNK A   0      10.301   1.739  23.253  0.00  0.00    -0.047 A 
ATOM      2  C   UNK A   0      10.518   0.813  24.286  0.00  0.00    +0.004 A 
ATOM      3  C   UNK A   0      10.090  -0.515  24.159  0.00  0.00    +0.013 A 
ATOM      4  C   UNK A   0       9.428  -0.929  23.000  0.00  0.00    +0.037 A 
ATOM      5  C   UNK A   0       9.307  -0.046  21.926  0.00  0.00    +0.013 A 
ATOM      6  C   UNK A   0       9.746   1.271  22.054  0.00  0.00    +0.004 A 
ENDROOT
BRANCH   4   7
ATOM      7  C   UNK A   0       8.822  -2.288  22.957  0.00  0.00    +0.245 C 
ATOM      8  N   GLU A   1       9.005  -3.068  24.084  0.00  0.00    -0.298 N 
ATOM      9  H   GLU A   1       9.410  -2.656  24.917  0.00  0.00    +0.150 HD
ATOM     10  O   UNK A   0       8.222  -2.677  21.963  0.00  0.00    -0.270 OA
BRANCH   8  11
ATOM     11  CA  GLU A   1       8.394  -4.400  24.230  0.00  0.00    +0.182 C 
BRANCH  11  12
ATOM     12  C   GLU A   1       9.206  -5.213  25.255  0.00  0.00    +0.325 C 
ATOM     13  OXT GLU A   1      10.424  -5.304  25.274  0.00  0.00    -0.249 OA
BRANCH  12  14
ATOM     14  O   GLU A   1       8.427  -5.779  26.214  0.00  0.00    -0.479 OA
ATOM     15  H   GLU A   1       8.151  -5.108  26.872  0.00  0.00    +0.295 HD
ENDBRANCH  12  14
ENDBRANCH  11  12
BRANCH  11  16
ATOM     16  CB  GLU A   1       6.925  -4.306  24.660  0.00  0.00    +0.045 C 
BRANCH  16  17
ATOM     17  CG  GLU A   1       6.024  -5.306  23.934  0.00  0.00    +0.123 C 
BRANCH  17  18
ATOM     18  CD  GLU A   1       6.179  -5.232  22.436  0.00  0.00    +0.305 C 
ATOM     19  OE2 GLU A   1       6.778  -6.040  21.746  0.00  0.00    -0.251 OA
BRANCH  18  20
ATOM     20  OE1 GLU A   1       5.541  -4.160  21.911  0.00  0.00    -0.481 OA
ATOM     21  HE1 GLU A   1       5.935  -3.304  22.171  0.00  0.00    +0.295 HD
ENDBRANCH  18  20
ENDBRANCH  17  18
ENDBRANCH  16  17
ENDBRANCH  11  16
ENDBRANCH   8  11
ENDBRANCH   4   7
BRANCH   1  22
ATOM     22  C   UNK A   0      10.668   3.200  23.462  0.00  0.00    +0.035 C 
BRANCH  22  23
ATOM     23  C   UNK A   0       9.448   4.123  23.630  0.00  0.00    +0.010 C 
BRANCH  23  32
ATOM     24  N   UNK A   0       3.329   4.956  21.795  0.00  0.00    -0.327 N 
ATOM     25  H   UNK A   0       3.145   5.922  22.026  0.00  0.00    +0.145 HD
ATOM     26  H   UNK A   0       2.546   4.320  21.768  0.00  0.00    +0.145 HD
ATOM     27  C   UNK A   0       4.335   4.461  22.598  0.00  0.00    +0.217 A 
ATOM     28  N   UNK A   0       5.165   5.346  23.158  0.00  0.00    -0.199 NA
ATOM     29  C   UNK A   0       6.176   4.856  23.890  0.00  0.00    +0.131 A 
ATOM     30  C   UNK A   0       6.362   3.502  24.081  0.00  0.00    +0.054 A 
ATOM     31  C   UNK A   0       7.499   2.980  24.904  0.00  0.00    +0.049 C 
ATOM     32  C   UNK A   0       8.661   3.985  24.955  0.00  0.00    +0.011 C 
ATOM     33  C   UNK A   0       8.074   5.354  25.359  0.00  0.00    +0.106 C 
ATOM     34  C   UNK A   0       5.408   2.708  23.511  0.00  0.00    +0.222 A 
ATOM     35  N   UNK A   0       7.082   5.773  24.390  0.00  0.00    -0.328 N 
ATOM     36  H   UNK A   0       6.775   6.734  24.336  0.00  0.00    +0.147 HD
ATOM     37  N   UNK A   0       4.387   3.139  22.769  0.00  0.00    -0.179 NA
BRANCH  34  38
ATOM     38  O   UNK A   0       5.441   1.358  23.658  0.00  0.00    -0.492 OA
ATOM     39  H   UNK A   0       4.583   1.210  24.094  0.00  0.00    +0.294 HD
ENDBRANCH  34  38
ENDBRANCH  23  32
ENDBRANCH  22  23
ENDBRANCH   1  22
TORSDOF 12
ENDMDL
MODEL 7
REMARK VINA RESULT:      -5.9      2.559      7.316
REMARK  Name = 
REMARK  12 active torsions:
REMARK  status: ('A' for Active; 'I' for Inactive)
REMARK    1  A    between atoms: C_4  and  O_5
REMARK    2  A    between atoms: C_8  and  C_10
REMARK    3  A    between atoms: C_10  and  C_11
REMARK    4  A    between atoms: C_11  and  C_12
REMARK    5  A    between atoms: C_15  and  C_18
REMARK    6  A    between atoms: N_20  and  CA_21
REMARK    7  A    between atoms: CA_21  and  CB_23
REMARK    8  A    between atoms: CA_21  and  C_28
REMARK    9  A    between atoms: CB_23  and  CG_24
REMARK   10  A    between atoms: CG_24  and  CD_25
REMARK   11  A    between atoms: CD_25  and  OE1_26
REMARK   12  A    between atoms: C_28  and  O_29
REMARK                            x       y       z     vdW  Elec       q    Type
REMARK                         _______ _______ _______ _____ _____    ______ ____
ROOT
ATOM      1  C   UNK A   0       3.654  -3.666  26.648  0.00  0.00    -0.047 A 
ATOM      2  C   UNK A   0       4.559  -3.375  27.682  0.00  0.00    +0.004 A 
ATOM      3  C   UNK A   0       5.689  -2.583  27.444  0.00  0.00    +0.013 A 
ATOM      4  C   UNK A   0       5.935  -2.081  26.162  0.00  0.00    +0.037 A 
ATOM      5  C   UNK A   0       4.984  -2.271  25.157  0.00  0.00    +0.013 A 
ATOM      6  C   UNK A   0       3.855  -3.051  25.404  0.00  0.00    +0.004 A 
ENDROOT
BRANCH   4   7
ATOM      7  C   UNK A   0       7.227  -1.398  25.886  0.00  0.00    +0.245 C 
ATOM      8  N   GLU A   1       7.905  -1.819  24.758  0.00  0.00    -0.298 N 
ATOM      9  H   GLU A   1       7.453  -2.455  24.110  0.00  0.00    +0.150 HD
ATOM     10  O   UNK A   0       7.655  -0.534  26.641  0.00  0.00    -0.270 OA
BRANCH   8  11
ATOM     11  CA  GLU A   1       9.153  -1.182  24.302  0.00  0.00    +0.182 C 
BRANCH  11  12
ATOM     12  C   GLU A   1       9.985  -2.215  23.521  0.00  0.00    +0.325 C 
ATOM     13  OXT GLU A   1      10.671  -1.971  22.541  0.00  0.00    -0.249 OA
BRANCH  12  14
ATOM     14  O   GLU A   1       9.949  -3.453  24.083  0.00  0.00    -0.479 OA
ATOM     15  H   GLU A   1       9.331  -4.034  23.592  0.00  0.00    +0.295 HD
ENDBRANCH  12  14
ENDBRANCH  11  12
BRANCH  11  16
ATOM     16  CB  GLU A   1       8.875   0.052  23.435  0.00  0.00    +0.045 C 
BRANCH  16  17
ATOM     17  CG  GLU A   1       9.767   1.243  23.786  0.00  0.00    +0.123 C 
BRANCH  17  18
ATOM     18  CD  GLU A   1       9.542   2.416  22.865  0.00  0.00    +0.305 C 
ATOM     19  OE2 GLU A   1       9.142   3.516  23.206  0.00  0.00    -0.251 OA
BRANCH  18  20
ATOM     20  OE1 GLU A   1       9.869   2.127  21.584  0.00  0.00    -0.481 OA
ATOM     21  HE1 GLU A   1      10.701   1.621  21.498  0.00  0.00    +0.295 HD
ENDBRANCH  18  20
ENDBRANCH  17  18
ENDBRANCH  16  17
ENDBRANCH  11  16
ENDBRANCH   8  11
ENDBRANCH   4   7
BRANCH   1  22
ATOM     22  C   UNK A   0       2.500  -4.623  26.904  0.00  0.00    +0.035 C 
BRANCH  22  23
ATOM     23  C   UNK A   0       2.190  -5.544  25.711  0.00  0.00    +0.010 C 
BRANCH  23  32
ATOM     24  N   UNK A   0       7.550  -4.462  22.301  0.00  0.00    -0.327 N 
ATOM     25  H   UNK A   0       7.316  -4.809  21.382  0.00  0.00    +0.145 HD
ATOM     26  H   UNK A   0       8.522  -4.453  22.570  0.00  0.00    +0.145 HD
ATOM     27  C   UNK A   0       6.785  -5.100  23.256  0.00  0.00    +0.217 A 
ATOM     28  N   UNK A   0       5.638  -5.657  22.854  0.00  0.00    -0.199 NA
ATOM     29  C   UNK A   0       4.871  -6.223  23.796  0.00  0.00    +0.131 A 
ATOM     30  C   UNK A   0       5.235  -6.253  25.127  0.00  0.00    +0.054 A 
ATOM     31  C   UNK A   0       4.360  -6.892  26.160  0.00  0.00    +0.049 C 
ATOM     32  C   UNK A   0       2.891  -6.924  25.708  0.00  0.00    +0.011 C 
ATOM     33  C   UNK A   0       2.854  -7.526  24.288  0.00  0.00    +0.106 C 
ATOM     34  C   UNK A   0       6.459  -5.708  25.397  0.00  0.00    +0.222 A 
ATOM     35  N   UNK A   0       3.646  -6.716  23.385  0.00  0.00    -0.328 N 
ATOM     36  H   UNK A   0       3.543  -6.794  22.383  0.00  0.00    +0.147 HD
ATOM     37  N   UNK A   0       7.260  -5.127  24.502  0.00  0.00    -0.179 NA
BRANCH  34  38
ATOM     38  O   UNK A   0       6.963  -5.711  26.658  0.00  0.00    -0.492 OA
ATOM     39  H   UNK A   0       7.768  -5.179  26.524  0.00  0.00    +0.294 HD
ENDBRANCH  34  38
ENDBRANCH  23  32
ENDBRANCH  22  23
ENDBRANCH   1  22
TORSDOF 12
ENDMDL
MODEL 8
REMARK VINA RESULT:      -5.9      2.988      4.315
REMARK  Name = 
REMARK  12 active torsions:
REMARK  status: ('A' for Active; 'I' for Inactive)
REMARK    1  A    between atoms: C_4  and  O_5
REMARK    2  A    between atoms: C_8  and  C_10
REMARK    3  A    between atoms: C_10  and  C_11
REMARK    4  A    between atoms: C_11  and  C_12
REMARK    5  A    between atoms: C_15  and  C_18
REMARK    6  A    between atoms: N_20  and  CA_21
REMARK    7  A    between atoms: CA_21  and  CB_23
REMARK    8  A    between atoms: CA_21  and  C_28
REMARK    9  A    between atoms: CB_23  and  CG_24
REMARK   10  A    between atoms: CG_24  and  CD_25
REMARK   11  A    between atoms: CD_25  and  OE1_26
REMARK   12  A    between atoms: C_28  and  O_29
REMARK                            x       y       z     vdW  Elec       q    Type
REMARK                         _______ _______ _______ _____ _____    ______ ____
ROOT
ATOM      1  C   UNK A   0      10.118   0.875  23.848  0.00  0.00    -0.047 A 
ATOM      2  C   UNK A   0      10.202  -0.048  22.793  0.00  0.00    +0.004 A 
ATOM      3  C   UNK A   0       9.810  -1.380  22.974  0.00  0.00    +0.013 A 
ATOM      4  C   UNK A   0       9.338  -1.809  24.218  0.00  0.00    +0.037 A 
ATOM      5  C   UNK A   0       9.146  -0.874  25.238  0.00  0.00    +0.013 A 
ATOM      6  C   UNK A   0       9.528   0.453  25.048  0.00  0.00    +0.004 A 
ENDROOT
BRANCH   4   7
ATOM      7  C   UNK A   0       9.099  -3.260  24.443  0.00  0.00    +0.245 C 
ATOM      8  N   GLU A   1       7.784  -3.631  24.655  0.00  0.00    -0.298 N 
ATOM      9  H   GLU A   1       7.044  -2.951  24.519  0.00  0.00    +0.150 HD
ATOM     10  O   UNK A   0      10.030  -4.056  24.459  0.00  0.00    -0.270 OA
BRANCH   8  11
ATOM     11  CA  GLU A   1       7.374  -5.038  24.805  0.00  0.00    +0.182 C 
BRANCH  11  12
ATOM     12  C   GLU A   1       7.251  -5.365  26.305  0.00  0.00    +0.325 C 
ATOM     13  OXT GLU A   1       6.246  -5.207  26.979  0.00  0.00    -0.249 OA
BRANCH  12  14
ATOM     14  O   GLU A   1       8.376  -5.934  26.813  0.00  0.00    -0.479 OA
ATOM     15  H   GLU A   1       9.173  -5.569  26.376  0.00  0.00    +0.295 HD
ENDBRANCH  12  14
ENDBRANCH  11  12
BRANCH  11  16
ATOM     16  CB  GLU A   1       6.053  -5.324  24.081  0.00  0.00    +0.045 C 
BRANCH  16  17
ATOM     17  CG  GLU A   1       6.252  -5.927  22.690  0.00  0.00    +0.123 C 
BRANCH  17  18
ATOM     18  CD  GLU A   1       6.246  -4.877  21.607  0.00  0.00    +0.305 C 
ATOM     19  OE2 GLU A   1       6.491  -3.694  21.768  0.00  0.00    -0.251 OA
BRANCH  18  20
ATOM     20  OE1 GLU A   1       5.964  -5.403  20.391  0.00  0.00    -0.481 OA
ATOM     21  HE1 GLU A   1       5.017  -5.610  20.266  0.00  0.00    +0.295 HD
ENDBRANCH  18  20
ENDBRANCH  17  18
ENDBRANCH  16  17
ENDBRANCH  11  16
ENDBRANCH   8  11
ENDBRANCH   4   7
BRANCH   1  22
ATOM     22  C   UNK A   0      10.660   2.284  23.661  0.00  0.00    +0.035 C 
BRANCH  22  23
ATOM     23  C   UNK A   0       9.561   3.346  23.481  0.00  0.00    +0.010 C 
BRANCH  23  32
ATOM     24  N   UNK A   0       4.770   7.108  21.381  0.00  0.00    -0.327 N 
ATOM     25  H   UNK A   0       5.248   7.818  20.846  0.00  0.00    +0.145 HD
ATOM     26  H   UNK A   0       3.878   7.344  21.790  0.00  0.00    +0.145 HD
ATOM     27  C   UNK A   0       5.619   6.581  22.333  0.00  0.00    +0.217 A 
ATOM     28  N   UNK A   0       6.933   6.708  22.122  0.00  0.00    -0.199 NA
ATOM     29  C   UNK A   0       7.752   6.144  23.020  0.00  0.00    +0.131 A 
ATOM     30  C   UNK A   0       7.283   5.468  24.128  0.00  0.00    +0.054 A 
ATOM     31  C   UNK A   0       8.219   4.846  25.117  0.00  0.00    +0.049 C 
ATOM     32  C   UNK A   0       9.581   4.530  24.477  0.00  0.00    +0.011 C 
ATOM     33  C   UNK A   0      10.065   5.808  23.759  0.00  0.00    +0.106 C 
ATOM     34  C   UNK A   0       5.923   5.466  24.263  0.00  0.00    +0.222 A 
ATOM     35  N   UNK A   0       9.106   6.201  22.747  0.00  0.00    -0.328 N 
ATOM     36  H   UNK A   0       9.356   6.847  22.012  0.00  0.00    +0.147 HD
ATOM     37  N   UNK A   0       5.061   6.005  23.399  0.00  0.00    -0.179 NA
BRANCH  34  38
ATOM     38  O   UNK A   0       5.326   4.877  25.331  0.00  0.00    -0.492 OA
ATOM     39  H   UNK A   0       4.456   5.314  25.306  0.00  0.00    +0.294 HD
ENDBRANCH  34  38
ENDBRANCH  23  32
ENDBRANCH  22  23
ENDBRANCH   1  22
TORSDOF 12
ENDMDL
MODEL 9
REMARK VINA RESULT:      -5.9      2.455      7.257
REMARK  Name = 
REMARK  12 active torsions:
REMARK  status: ('A' for Active; 'I' for Inactive)
REMARK    1  A    between atoms: C_4  and  O_5
REMARK    2  A    between atoms: C_8  and  C_10
REMARK    3  A    between atoms: C_10  and  C_11
REMARK    4  A    between atoms: C_11  and  C_12
REMARK    5  A    between atoms: C_15  and  C_18
REMARK    6  A    between atoms: N_20  and  CA_21
REMARK    7  A    between atoms: CA_21  and  CB_23
REMARK    8  A    between atoms: CA_21  and  C_28
REMARK    9  A    between atoms: CB_23  and  CG_24
REMARK   10  A    between atoms: CG_24  and  CD_25
REMARK   11  A    between atoms: CD_25  and  OE1_26
REMARK   12  A    between atoms: C_28  and  O_29
REMARK                            x       y       z     vdW  Elec       q    Type
REMARK                         _______ _______ _______ _____ _____    ______ ____
ROOT
ATOM      1  C   UNK A   0       5.330  -2.566  26.848  0.00  0.00    -0.047 A 
ATOM      2  C   UNK A   0       6.605  -1.977  26.839  0.00  0.00    +0.004 A 
ATOM      3  C   UNK A   0       7.187  -1.547  25.640  0.00  0.00    +0.013 A 
ATOM      4  C   UNK A   0       6.504  -1.711  24.432  0.00  0.00    +0.037 A 
ATOM      5  C   UNK A   0       5.193  -2.192  24.444  0.00  0.00    +0.013 A 
ATOM      6  C   UNK A   0       4.615  -2.608  25.643  0.00  0.00    +0.004 A 
ENDROOT
BRANCH   4   7
ATOM      7  C   UNK A   0       7.208  -1.417  23.154  0.00  0.00    +0.245 C 
ATOM      8  N   GLU A   1       7.795  -0.169  23.060  0.00  0.00    -0.298 N 
ATOM      9  H   GLU A   1       7.840   0.426  23.880  0.00  0.00    +0.150 HD
ATOM     10  O   UNK A   0       7.233  -2.238  22.246  0.00  0.00    -0.270 OA
BRANCH   8  11
ATOM     11  CA  GLU A   1       8.601   0.240  21.897  0.00  0.00    +0.182 C 
BRANCH  11  12
ATOM     12  C   GLU A   1       8.396   1.746  21.652  0.00  0.00    +0.325 C 
ATOM     13  OXT GLU A   1       7.317   2.316  21.636  0.00  0.00    -0.249 OA
BRANCH  12  14
ATOM     14  O   GLU A   1       9.568   2.423  21.523  0.00  0.00    -0.479 OA
ATOM     15  H   GLU A   1       9.587   3.194  22.127  0.00  0.00    +0.295 HD
ENDBRANCH  12  14
ENDBRANCH  11  12
BRANCH  11  16
ATOM     16  CB  GLU A   1      10.088  -0.076  22.099  0.00  0.00    +0.045 C 
BRANCH  16  17
ATOM     17  CG  GLU A   1      10.424  -0.481  23.535  0.00  0.00    +0.123 C 
BRANCH  17  18
ATOM     18  CD  GLU A   1      10.647   0.714  24.428  0.00  0.00    +0.305 C 
ATOM     19  OE2 GLU A   1      11.046   1.806  24.060  0.00  0.00    -0.251 OA
BRANCH  18  20
ATOM     20  OE1 GLU A   1      10.320   0.454  25.715  0.00  0.00    -0.481 OA
ATOM     21  HE1 GLU A   1      10.206  -0.498  25.905  0.00  0.00    +0.295 HD
ENDBRANCH  18  20
ENDBRANCH  17  18
ENDBRANCH  16  17
ENDBRANCH  11  16
ENDBRANCH   8  11
ENDBRANCH   4   7
BRANCH   1  22
ATOM     22  C   UNK A   0       4.770  -3.131  28.144  0.00  0.00    +0.035 C 
BRANCH  22  23
ATOM     23  C   UNK A   0       3.775  -4.285  27.932  0.00  0.00    +0.010 C 
BRANCH  23  32
ATOM     24  N   UNK A   0       7.377  -5.206  22.670  0.00  0.00    -0.327 N 
ATOM     25  H   UNK A   0       6.775  -5.746  22.065  0.00  0.00    +0.145 HD
ATOM     26  H   UNK A   0       8.375  -5.303  22.551  0.00  0.00    +0.145 HD
ATOM     27  C   UNK A   0       7.021  -5.400  23.988  0.00  0.00    +0.217 A 
ATOM     28  N   UNK A   0       5.777  -5.825  24.232  0.00  0.00    -0.199 NA
ATOM     29  C   UNK A   0       5.418  -5.954  25.517  0.00  0.00    +0.131 A 
ATOM     30  C   UNK A   0       6.281  -5.680  26.558  0.00  0.00    +0.054 A 
ATOM     31  C   UNK A   0       5.855  -5.833  27.986  0.00  0.00    +0.049 C 
ATOM     32  C   UNK A   0       4.329  -5.716  28.130  0.00  0.00    +0.011 C 
ATOM     33  C   UNK A   0       3.690  -6.672  27.101  0.00  0.00    +0.106 C 
ATOM     34  C   UNK A   0       7.542  -5.318  26.175  0.00  0.00    +0.222 A 
ATOM     35  N   UNK A   0       4.103  -6.306  25.762  0.00  0.00    -0.328 N 
ATOM     36  H   UNK A   0       3.603  -6.639  24.950  0.00  0.00    +0.147 HD
ATOM     37  N   UNK A   0       7.952  -5.167  24.914  0.00  0.00    -0.179 NA
BRANCH  34  38
ATOM     38  O   UNK A   0       8.507  -5.064  27.095  0.00  0.00    -0.492 OA
ATOM     39  H   UNK A   0       8.027  -5.282  27.914  0.00  0.00    +0.294 HD
ENDBRANCH  34  38
ENDBRANCH  23  32
ENDBRANCH  22  23
ENDBRANCH   1  22
TORSDOF 12
ENDMDL
