MODEL 1
REMARK VINA RESULT:      -4.6      0.000      0.000
REMARK  Name = 
REMARK  4 active torsions:
REMARK  status: ('A' for Active; 'I' for Inactive)
REMARK    1  A    between atoms: C_1  and  N_2
REMARK    2  A    between atoms: N_2  and  C_3
REMARK    3  A    between atoms: C_3  and  C_4
REMARK    4  A    between atoms: C_4  and  O_5
REMARK                            x       y       z     vdW  Elec       q    Type
REMARK                         _______ _______ _______ _____ _____    ______ ____
ROOT
ATOM      1  C   UNL     1      10.810   0.966  24.152  0.00  0.00    +0.243 C 
ATOM      2  N   UNL     1       9.709   0.725  23.210  0.00  0.00    -0.255 N 
ATOM      3  C   UNL     1       9.650   1.400  22.017  0.00  0.00    +0.379 C 
ATOM      4  N   UNL     1       8.866   1.158  21.030  0.00  0.00    -0.130 NA
ATOM      5  H   UNL     1       8.273   0.344  21.179  0.00  0.00    +0.306 HD
ATOM      6  N   UNL     1      10.418   2.504  21.897  0.00  0.00    -0.289 N 
ATOM      7  H   UNL     1      10.363   2.849  20.944  0.00  0.00    +0.255 HD
ATOM      8  H   UNL     1      11.382   2.403  22.179  0.00  0.00    +0.255 HD
ENDROOT
BRANCH   2   9
ATOM      9  C   UNL     1       9.070  -0.608  23.374  0.00  0.00    +0.318 C 
BRANCH   9  10
ATOM     10  C   UNL     1       9.927  -1.771  22.881  0.00  0.00    +0.339 C 
ATOM     11  O   UNL     1      10.262  -2.703  23.598  0.00  0.00    -0.247 OA
BRANCH  10  12
ATOM     12  O   UNL     1      10.296  -1.695  21.584  0.00  0.00    -0.478 OA
ATOM     13  H   UNL     1       9.536  -1.895  20.991  0.00  0.00    +0.295 HD
ENDBRANCH  10  12
ENDBRANCH   9  10
ENDBRANCH   2   9
TORSDOF 3
ENDMDL
MODEL 2
REMARK VINA RESULT:      -4.2      0.993      1.666
REMARK  Name = 
REMARK  4 active torsions:
REMARK  status: ('A' for Active; 'I' for Inactive)
REMARK    1  A    between atoms: C_1  and  N_2
REMARK    2  A    between atoms: N_2  and  C_3
REMARK    3  A    between atoms: C_3  and  C_4
REMARK    4  A    between atoms: C_4  and  O_5
REMARK                            x       y       z     vdW  Elec       q    Type
REMARK                         _______ _______ _______ _____ _____    ______ ____
ROOT
ATOM      1  C   UNL     1       7.395   0.313  22.982  0.00  0.00    +0.243 C 
ATOM      2  N   UNL     1       8.788   0.564  22.590  0.00  0.00    -0.255 N 
ATOM      3  C   UNL     1       9.140   1.741  21.977  0.00  0.00    +0.379 C 
ATOM      4  N   UNL     1      10.329   2.170  21.754  0.00  0.00    -0.130 NA
ATOM      5  H   UNL     1      11.054   1.559  22.126  0.00  0.00    +0.306 HD
ATOM      6  N   UNL     1       8.142   2.483  21.453  0.00  0.00    -0.289 N 
ATOM      7  H   UNL     1       8.518   3.366  21.124  0.00  0.00    +0.255 HD
ATOM      8  H   UNL     1       7.349   2.643  22.056  0.00  0.00    +0.255 HD
ENDROOT
BRANCH   2   9
ATOM      9  C   UNL     1       9.777  -0.221  23.376  0.00  0.00    +0.318 C 
BRANCH   9  10
ATOM     10  C   UNL     1      10.120  -1.576  22.762  0.00  0.00    +0.339 C 
ATOM     11  O   UNL     1      10.319  -2.580  23.432  0.00  0.00    -0.247 OA
BRANCH  10  12
ATOM     12  O   UNL     1      10.194  -1.587  21.414  0.00  0.00    -0.478 OA
ATOM     13  H   UNL     1       9.416  -1.132  21.017  0.00  0.00    +0.295 HD
ENDBRANCH  10  12
ENDBRANCH   9  10
ENDBRANCH   2   9
TORSDOF 3
ENDMDL
MODEL 3
REMARK VINA RESULT:      -4.1      4.696      6.051
REMARK  Name = 
REMARK  4 active torsions:
REMARK  status: ('A' for Active; 'I' for Inactive)
REMARK    1  A    between atoms: C_1  and  N_2
REMARK    2  A    between atoms: N_2  and  C_3
REMARK    3  A    between atoms: C_3  and  C_4
REMARK    4  A    between atoms: C_4  and  O_5
REMARK                            x       y       z     vdW  Elec       q    Type
REMARK                         _______ _______ _______ _____ _____    ______ ____
ROOT
ATOM      1  C   UNL     1       6.489  -4.247  25.514  0.00  0.00    +0.243 C 
ATOM      2  N   UNL     1       7.879  -4.407  25.067  0.00  0.00    -0.255 N 
ATOM      3  C   UNL     1       8.707  -5.319  25.672  0.00  0.00    +0.379 C 
ATOM      4  N   UNL     1       9.866  -5.695  25.270  0.00  0.00    -0.130 NA
ATOM      5  H   UNL     1      10.140  -5.276  24.382  0.00  0.00    +0.306 HD
ATOM      6  N   UNL     1       8.319  -5.800  26.871  0.00  0.00    -0.289 N 
ATOM      7  H   UNL     1       8.957  -6.534  27.161  0.00  0.00    +0.255 HD
ATOM      8  H   UNL     1       7.364  -6.122  26.930  0.00  0.00    +0.255 HD
ENDROOT
BRANCH   2   9
ATOM      9  C   UNL     1       8.104  -3.974  23.662  0.00  0.00    +0.318 C 
BRANCH   9  10
ATOM     10  C   UNL     1       8.952  -2.711  23.531  0.00  0.00    +0.339 C 
ATOM     11  O   UNL     1       8.483  -1.621  23.234  0.00  0.00    -0.247 OA
BRANCH  10  12
ATOM     12  O   UNL     1      10.270  -2.885  23.766  0.00  0.00    -0.478 OA
ATOM     13  H   UNL     1      10.781  -2.872  22.924  0.00  0.00    +0.295 HD
ENDBRANCH  10  12
ENDBRANCH   9  10
ENDBRANCH   2   9
TORSDOF 3
ENDMDL
MODEL 4
REMARK VINA RESULT:      -4.0      2.827      3.553
REMARK  Name = 
REMARK  4 active torsions:
REMARK  status: ('A' for Active; 'I' for Inactive)
REMARK    1  A    between atoms: C_1  and  N_2
REMARK    2  A    between atoms: N_2  and  C_3
REMARK    3  A    between atoms: C_3  and  C_4
REMARK    4  A    between atoms: C_4  and  O_5
REMARK                            x       y       z     vdW  Elec       q    Type
REMARK                         _______ _______ _______ _____ _____    ______ ____
ROOT
ATOM      1  C   UNL     1       9.303  -0.427  25.153  0.00  0.00    +0.243 C 
ATOM      2  N   UNL     1       9.632  -0.324  23.726  0.00  0.00    -0.255 N 
ATOM      3  C   UNL     1       9.916  -1.447  22.991  0.00  0.00    +0.379 C 
ATOM      4  N   UNL     1      10.031  -1.527  21.715  0.00  0.00    -0.130 NA
ATOM      5  H   UNL     1       9.843  -0.647  21.238  0.00  0.00    +0.306 HD
ATOM      6  N   UNL     1      10.212  -2.571  23.677  0.00  0.00    -0.289 N 
ATOM      7  H   UNL     1      10.300  -3.347  23.028  0.00  0.00    +0.255 HD
ATOM      8  H   UNL     1       9.579  -2.811  24.426  0.00  0.00    +0.255 HD
ENDROOT
BRANCH   2   9
ATOM      9  C   UNL     1       9.094   0.904  23.081  0.00  0.00    +0.318 C 
BRANCH   9  10
ATOM     10  C   UNL     1      10.147   1.976  22.814  0.00  0.00    +0.339 C 
ATOM     11  O   UNL     1      10.814   2.490  23.702  0.00  0.00    -0.247 OA
BRANCH  10  12
ATOM     12  O   UNL     1      10.289   2.324  21.517  0.00  0.00    -0.478 OA
ATOM     13  H   UNL     1      10.257   3.302  21.411  0.00  0.00    +0.295 HD
ENDBRANCH  10  12
ENDBRANCH   9  10
ENDBRANCH   2   9
TORSDOF 3
ENDMDL
MODEL 5
REMARK VINA RESULT:      -3.9      5.523      6.444
REMARK  Name = 
REMARK  4 active torsions:
REMARK  status: ('A' for Active; 'I' for Inactive)
REMARK    1  A    between atoms: C_1  and  N_2
REMARK    2  A    between atoms: N_2  and  C_3
REMARK    3  A    between atoms: C_3  and  C_4
REMARK    4  A    between atoms: C_4  and  O_5
REMARK                            x       y       z     vdW  Elec       q    Type
REMARK                         _______ _______ _______ _____ _____    ______ ____
ROOT
ATOM      1  C   UNL     1       6.429  -4.342  25.388  0.00  0.00    +0.243 C 
ATOM      2  N   UNL     1       7.838  -4.440  24.987  0.00  0.00    -0.255 N 
ATOM      3  C   UNL     1       8.686  -5.314  25.620  0.00  0.00    +0.379 C 
ATOM      4  N   UNL     1       9.873  -5.639  25.257  0.00  0.00    -0.130 NA
ATOM      5  H   UNL     1      10.157  -5.210  24.378  0.00  0.00    +0.306 HD
ATOM      6  N   UNL     1       8.280  -5.809  26.808  0.00  0.00    -0.289 N 
ATOM      7  H   UNL     1       8.941  -6.514  27.121  0.00  0.00    +0.255 HD
ATOM      8  H   UNL     1       7.340  -6.173  26.837  0.00  0.00    +0.255 HD
ENDROOT
BRANCH   2   9
ATOM      9  C   UNL     1       8.089  -4.000  23.588  0.00  0.00    +0.318 C 
BRANCH   9  10
ATOM     10  C   UNL     1       7.301  -4.784  22.542  0.00  0.00    +0.339 C 
ATOM     11  O   UNL     1       7.481  -5.975  22.326  0.00  0.00    -0.247 OA
BRANCH  10  12
ATOM     12  O   UNL     1       6.384  -4.062  21.862  0.00  0.00    -0.478 OA
ATOM     13  H   UNL     1       6.696  -3.870  20.949  0.00  0.00    +0.295 HD
ENDBRANCH  10  12
ENDBRANCH   9  10
ENDBRANCH   2   9
TORSDOF 3
ENDMDL
MODEL 6
REMARK VINA RESULT:      -3.8      2.801      3.697
REMARK  Name = 
REMARK  4 active torsions:
REMARK  status: ('A' for Active; 'I' for Inactive)
REMARK    1  A    between atoms: C_1  and  N_2
REMARK    2  A    between atoms: N_2  and  C_3
REMARK    3  A    between atoms: C_3  and  C_4
REMARK    4  A    between atoms: C_4  and  O_5
REMARK                            x       y       z     vdW  Elec       q    Type
REMARK                         _______ _______ _______ _____ _____    ______ ____
ROOT
ATOM      1  C   UNL     1       7.713  -0.647  24.266  0.00  0.00    +0.243 C 
ATOM      2  N   UNL     1       8.906   0.097  23.842  0.00  0.00    -0.255 N 
ATOM      3  C   UNL     1       9.947   0.303  24.713  0.00  0.00    +0.379 C 
ATOM      4  N   UNL     1      11.111   0.761  24.430  0.00  0.00    -0.130 NA
ATOM      5  H   UNL     1      11.244   0.936  23.435  0.00  0.00    +0.306 HD
ATOM      6  N   UNL     1       9.697   0.109  26.025  0.00  0.00    -0.289 N 
ATOM      7  H   UNL     1      10.563   0.193  26.547  0.00  0.00    +0.255 HD
ATOM      8  H   UNL     1       9.227  -0.752  26.262  0.00  0.00    +0.255 HD
ENDROOT
BRANCH   2   9
ATOM      9  C   UNL     1       9.124   0.080  22.371  0.00  0.00    +0.318 C 
BRANCH   9  10
ATOM     10  C   UNL     1       8.987   1.448  21.709  0.00  0.00    +0.339 C 
ATOM     11  O   UNL     1       7.923   1.881  21.288  0.00  0.00    -0.247 OA
BRANCH  10  12
ATOM     12  O   UNL     1      10.135   2.152  21.615  0.00  0.00    -0.478 OA
ATOM     13  H   UNL     1      10.436   2.452  22.504  0.00  0.00    +0.295 HD
ENDBRANCH  10  12
ENDBRANCH   9  10
ENDBRANCH   2   9
TORSDOF 3
ENDMDL
MODEL 7
REMARK VINA RESULT:      -3.6      4.035      5.021
REMARK  Name = 
REMARK  4 active torsions:
REMARK  status: ('A' for Active; 'I' for Inactive)
REMARK    1  A    between atoms: C_1  and  N_2
REMARK    2  A    between atoms: N_2  and  C_3
REMARK    3  A    between atoms: C_3  and  C_4
REMARK    4  A    between atoms: C_4  and  O_5
REMARK                            x       y       z     vdW  Elec       q    Type
REMARK                         _______ _______ _______ _____ _____    ______ ____
ROOT
ATOM      1  C   UNL     1       6.563  -2.824  24.534  0.00  0.00    +0.243 C 
ATOM      2  N   UNL     1       7.968  -3.241  24.635  0.00  0.00    -0.255 N 
ATOM      3  C   UNL     1       8.889  -2.821  23.709  0.00  0.00    +0.379 C 
ATOM      4  N   UNL     1      10.165  -2.947  23.777  0.00  0.00    -0.130 NA
ATOM      5  H   UNL     1      10.482  -3.372  24.647  0.00  0.00    +0.306 HD
ATOM      6  N   UNL     1       8.411  -2.316  22.553  0.00  0.00    -0.289 N 
ATOM      7  H   UNL     1       9.182  -1.952  22.002  0.00  0.00    +0.255 HD
ATOM      8  H   UNL     1       7.684  -1.623  22.641  0.00  0.00    +0.255 HD
ENDROOT
BRANCH   2   9
ATOM      9  C   UNL     1       8.377  -3.616  26.015  0.00  0.00    +0.318 C 
BRANCH   9  10
ATOM     10  C   UNL     1       8.633  -5.110  26.201  0.00  0.00    +0.339 C 
ATOM     11  O   UNL     1       7.814  -5.869  26.699  0.00  0.00    -0.247 OA
BRANCH  10  12
ATOM     12  O   UNL     1       9.841  -5.536  25.774  0.00  0.00    -0.478 OA
ATOM     13  H   UNL     1       9.859  -5.617  24.793  0.00  0.00    +0.295 HD
ENDBRANCH  10  12
ENDBRANCH   9  10
ENDBRANCH   2   9
TORSDOF 3
ENDMDL
MODEL 8
REMARK VINA RESULT:      -3.6      3.288      4.245
REMARK  Name = 
REMARK  4 active torsions:
REMARK  status: ('A' for Active; 'I' for Inactive)
REMARK    1  A    between atoms: C_1  and  N_2
REMARK    2  A    between atoms: N_2  and  C_3
REMARK    3  A    between atoms: C_3  and  C_4
REMARK    4  A    between atoms: C_4  and  O_5
REMARK                            x       y       z     vdW  Elec       q    Type
REMARK                         _______ _______ _______ _____ _____    ______ ____
ROOT
ATOM      1  C   UNL     1       8.412  -1.797  26.228  0.00  0.00    +0.243 C 
ATOM      2  N   UNL     1       8.714  -2.424  24.935  0.00  0.00    -0.255 N 
ATOM      3  C   UNL     1       9.707  -1.923  24.130  0.00  0.00    +0.379 C 
ATOM      4  N   UNL     1      10.200  -2.472  23.080  0.00  0.00    -0.130 NA
ATOM      5  H   UNL     1       9.813  -3.394  22.888  0.00  0.00    +0.306 HD
ATOM      6  N   UNL     1      10.143  -0.675  24.399  0.00  0.00    -0.289 N 
ATOM      7  H   UNL     1      10.939  -0.463  23.805  0.00  0.00    +0.255 HD
ATOM      8  H   UNL     1      10.366  -0.484  25.364  0.00  0.00    +0.255 HD
ENDROOT
BRANCH   2   9
ATOM      9  C   UNL     1       8.308  -3.853  24.860  0.00  0.00    +0.318 C 
BRANCH   9  10
ATOM     10  C   UNL     1       9.284  -4.811  25.539  0.00  0.00    +0.339 C 
ATOM     11  O   UNL     1      10.379  -5.090  25.069  0.00  0.00    -0.247 OA
BRANCH  10  12
ATOM     12  O   UNL     1       8.848  -5.335  26.704  0.00  0.00    -0.478 OA
ATOM     13  H   UNL     1       9.346  -6.154  26.928  0.00  0.00    +0.295 HD
ENDBRANCH  10  12
ENDBRANCH   9  10
ENDBRANCH   2   9
TORSDOF 3
ENDMDL
MODEL 9
REMARK VINA RESULT:      -3.6      2.513      3.346
REMARK  Name = 
REMARK  4 active torsions:
REMARK  status: ('A' for Active; 'I' for Inactive)
REMARK    1  A    between atoms: C_1  and  N_2
REMARK    2  A    between atoms: N_2  and  C_3
REMARK    3  A    between atoms: C_3  and  C_4
REMARK    4  A    between atoms: C_4  and  O_5
REMARK                            x       y       z     vdW  Elec       q    Type
REMARK                         _______ _______ _______ _____ _____    ______ ____
ROOT
ATOM      1  C   UNL     1       9.954   1.151  22.588  0.00  0.00    +0.243 C 
ATOM      2  N   UNL     1       9.928  -0.124  23.317  0.00  0.00    -0.255 N 
ATOM      3  C   UNL     1      10.073  -1.314  22.649  0.00  0.00    +0.379 C 
ATOM      4  N   UNL     1      10.259  -2.473  23.168  0.00  0.00    -0.130 NA
ATOM      5  H   UNL     1      10.342  -2.452  24.183  0.00  0.00    +0.306 HD
ATOM      6  N   UNL     1       9.897  -1.293  21.311  0.00  0.00    -0.289 N 
ATOM      7  H   UNL     1      10.130  -2.203  20.928  0.00  0.00    +0.255 HD
ATOM      8  H   UNL     1      10.390  -0.566  20.813  0.00  0.00    +0.255 HD
ENDROOT
BRANCH   2   9
ATOM      9  C   UNL     1      10.301   0.005  24.751  0.00  0.00    +0.318 C 
BRANCH   9  10
ATOM     10  C   UNL     1       9.182  -0.371  25.719  0.00  0.00    +0.339 C 
ATOM     11  O   UNL     1       8.861  -1.529  25.947  0.00  0.00    -0.247 OA
BRANCH  10  12
ATOM     12  O   UNL     1       8.563   0.675  26.307  0.00  0.00    -0.478 OA
ATOM     13  H   UNL     1       8.829   1.523  25.883  0.00  0.00    +0.295 HD
ENDBRANCH  10  12
ENDBRANCH   9  10
ENDBRANCH   2   9
TORSDOF 3
ENDMDL
