MODEL 1
REMARK VINA RESULT:      -7.4      0.000      0.000
REMARK  Name = 
REMARK  9 active torsions:
REMARK  status: ('A' for Active; 'I' for Inactive)
REMARK    1  A    between atoms: C_2  and  C_3
REMARK    2  A    between atoms: C_3  and  O_4
REMARK    3  A    between atoms: C_6  and  O_8
REMARK    4  A    between atoms: O_8  and  C_9
REMARK    5  A    between atoms: C_15  and  C_20
REMARK    6  A    between atoms: C_23  and  O_24
REMARK    7  A    between atoms: C_27  and  O_29
REMARK    8  A    between atoms: C_30  and  O_32
REMARK    9  A    between atoms: C_33  and  O_35
REMARK                            x       y       z     vdW  Elec       q    Type
REMARK                         _______ _______ _______ _____ _____    ______ ____
ROOT
ATOM      1  C   UNL     1       4.971  -5.239  23.288  0.00  0.00    +0.128 A 
ATOM      2  C   UNL     1       4.765  -3.913  23.684  0.00  0.00    +0.092 A 
ATOM      3  C   UNL     1       5.749  -2.952  23.459  0.00  0.00    +0.142 A 
ATOM      4  C   UNL     1       6.946  -3.317  22.849  0.00  0.00    +0.065 A 
ATOM      5  C   UNL     1       8.000  -2.307  22.666  0.00  0.00    +0.200 A 
ATOM      6  C   UNL     1       7.696  -0.944  23.172  0.00  0.00    +0.064 A 
ATOM      7  C   UNL     1       6.488  -0.737  23.718  0.00  0.00    +0.208 A 
ATOM      8  O   UNL     1       9.068  -2.596  22.144  0.00  0.00    -0.286 OA
ATOM      9  C   UNL     1       7.157  -4.640  22.449  0.00  0.00    +0.019 A 
ATOM     10  O   UNL     1       5.488  -1.670  23.870  0.00  0.00    -0.462 OA
ATOM     11  C   UNL     1       6.172  -5.603  22.678  0.00  0.00    +0.047 A 
ENDROOT
BRANCH   6  12
ATOM     12  C   UNL     1       8.683   0.136  23.136  0.00  0.00    -0.011 A 
ATOM     13  C   UNL     1       8.963   0.811  21.940  0.00  0.00    +0.012 A 
ATOM     14  C   UNL     1       9.846   1.893  21.940  0.00  0.00    +0.046 A 
ATOM     15  C   UNL     1      10.437   2.303  23.130  0.00  0.00    +0.117 A 
ATOM     16  C   UNL     1      10.198   1.621  24.318  0.00  0.00    +0.046 A 
ATOM     17  C   UNL     1       9.321   0.535  24.319  0.00  0.00    +0.012 A 
BRANCH  15  18
ATOM     18  O   UNL     1      11.245   3.400  23.093  0.00  0.00    -0.507 OA
ATOM     19  H   UNL     1      10.965   3.965  22.354  0.00  0.00    +0.292 HD
ENDBRANCH  15  18
ENDBRANCH   6  12
BRANCH   1  20
ATOM     20  O   UNL     1       3.981  -6.109  23.632  0.00  0.00    -0.461 OA
BRANCH  20  25
ATOM     21  C   UNL     1       1.995  -8.017  24.747  0.00  0.00    +0.179 C 
ATOM     22  C   UNL     1       1.701  -7.330  26.094  0.00  0.00    +0.177 C 
ATOM     23  C   UNL     1       2.537  -6.053  26.274  0.00  0.00    +0.180 C 
ATOM     24  C   UNL     1       4.031  -6.356  26.044  0.00  0.00    +0.214 C 
ATOM     25  C   UNL     1       4.238  -7.050  24.678  0.00  0.00    +0.339 C 
ATOM     26  O   UNL     1       3.407  -8.212  24.541  0.00  0.00    -0.331 OA
BRANCH  22  27
ATOM     27  O   UNL     1       1.982  -8.251  27.163  0.00  0.00    -0.386 OA
ATOM     28  H   UNL     1       1.736  -7.810  28.004  0.00  0.00    +0.210 HD
ENDBRANCH  22  27
BRANCH  23  29
ATOM     29  O   UNL     1       2.043  -5.007  25.431  0.00  0.00    -0.386 OA
ATOM     30  H   UNL     1       1.936  -4.190  25.953  0.00  0.00    +0.210 HD
ENDBRANCH  23  29
BRANCH  24  31
ATOM     31  O   UNL     1       4.506  -7.192  27.113  0.00  0.00    -0.383 OA
ATOM     32  H   UNL     1       5.473  -7.089  27.174  0.00  0.00    +0.210 HD
ENDBRANCH  24  31
BRANCH  21  33
ATOM     33  C   UNL     1       1.320  -7.361  23.525  0.00  0.00    +0.190 C 
BRANCH  33  34
ATOM     34  O   UNL     1       1.850  -7.828  22.292  0.00  0.00    -0.392 OA
ATOM     35  H   UNL     1       1.587  -7.189  21.604  0.00  0.00    +0.210 HD
ENDBRANCH  33  34
ENDBRANCH  21  33
ENDBRANCH  20  25
ENDBRANCH   1  20
TORSDOF 9
ENDMDL
MODEL 2
REMARK VINA RESULT:      -7.3      2.334      4.720
REMARK  Name = 
REMARK  9 active torsions:
REMARK  status: ('A' for Active; 'I' for Inactive)
REMARK    1  A    between atoms: C_2  and  C_3
REMARK    2  A    between atoms: C_3  and  O_4
REMARK    3  A    between atoms: C_6  and  O_8
REMARK    4  A    between atoms: O_8  and  C_9
REMARK    5  A    between atoms: C_15  and  C_20
REMARK    6  A    between atoms: C_23  and  O_24
REMARK    7  A    between atoms: C_27  and  O_29
REMARK    8  A    between atoms: C_30  and  O_32
REMARK    9  A    between atoms: C_33  and  O_35
REMARK                            x       y       z     vdW  Elec       q    Type
REMARK                         _______ _______ _______ _____ _____    ______ ____
ROOT
ATOM      1  C   UNL     1       7.120  -1.877  24.075  0.00  0.00    +0.128 A 
ATOM      2  C   UNL     1       6.802  -0.616  23.558  0.00  0.00    +0.092 A 
ATOM      3  C   UNL     1       7.748   0.408  23.574  0.00  0.00    +0.142 A 
ATOM      4  C   UNL     1       9.009   0.177  24.117  0.00  0.00    +0.065 A 
ATOM      5  C   UNL     1       9.980   1.280  24.179  0.00  0.00    +0.200 A 
ATOM      6  C   UNL     1       9.519   2.589  23.651  0.00  0.00    +0.064 A 
ATOM      7  C   UNL     1       8.282   2.654  23.137  0.00  0.00    +0.208 A 
ATOM      8  O   UNL     1      11.093   1.114  24.659  0.00  0.00    -0.286 OA
ATOM      9  C   UNL     1       9.333  -1.082  24.632  0.00  0.00    +0.019 A 
ATOM     10  O   UNL     1       7.376   1.621  23.054  0.00  0.00    -0.462 OA
ATOM     11  C   UNL     1       8.384  -2.107  24.620  0.00  0.00    +0.047 A 
ENDROOT
BRANCH   6  12
ATOM     12  C   UNL     1      10.348   3.793  23.729  0.00  0.00    -0.011 A 
ATOM     13  C   UNL     1       9.853   4.966  24.314  0.00  0.00    +0.012 A 
ATOM     14  C   UNL     1      10.683   6.080  24.454  0.00  0.00    +0.046 A 
ATOM     15  C   UNL     1      12.002   6.017  24.020  0.00  0.00    +0.117 A 
ATOM     16  C   UNL     1      12.498   4.874  23.404  0.00  0.00    +0.046 A 
ATOM     17  C   UNL     1      11.667   3.761  23.256  0.00  0.00    +0.012 A 
BRANCH  15  18
ATOM     18  O   UNL     1      12.794   7.108  24.231  0.00  0.00    -0.507 OA
ATOM     19  H   UNL     1      12.573   7.781  23.567  0.00  0.00    +0.292 HD
ENDBRANCH  15  18
ENDBRANCH   6  12
BRANCH   1  20
ATOM     20  O   UNL     1       6.096  -2.776  24.086  0.00  0.00    -0.461 OA
BRANCH  20  25
ATOM     21  C   UNL     1       4.451  -5.198  23.583  0.00  0.00    +0.179 C 
ATOM     22  C   UNL     1       5.447  -6.020  22.743  0.00  0.00    +0.177 C 
ATOM     23  C   UNL     1       6.764  -5.260  22.520  0.00  0.00    +0.180 C 
ATOM     24  C   UNL     1       6.480  -3.856  21.949  0.00  0.00    +0.214 C 
ATOM     25  C   UNL     1       5.468  -3.103  22.844  0.00  0.00    +0.339 C 
ATOM     26  O   UNL     1       4.274  -3.870  23.056  0.00  0.00    -0.331 OA
BRANCH  22  27
ATOM     27  O   UNL     1       4.846  -6.335  21.475  0.00  0.00    -0.386 OA
ATOM     28  H   UNL     1       5.461  -6.031  20.774  0.00  0.00    +0.210 HD
ENDBRANCH  22  27
BRANCH  23  29
ATOM     29  O   UNL     1       7.534  -5.227  23.727  0.00  0.00    -0.386 OA
ATOM     30  H   UNL     1       7.243  -4.477  24.279  0.00  0.00    +0.210 HD
ENDBRANCH  23  29
BRANCH  24  31
ATOM     31  O   UNL     1       5.969  -3.993  20.612  0.00  0.00    -0.383 OA
ATOM     32  H   UNL     1       5.041  -4.283  20.669  0.00  0.00    +0.210 HD
ENDBRANCH  24  31
BRANCH  21  33
ATOM     33  C   UNL     1       4.739  -5.183  25.097  0.00  0.00    +0.190 C 
BRANCH  33  34
ATOM     34  O   UNL     1       5.397  -6.363  25.541  0.00  0.00    -0.392 OA
ATOM     35  H   UNL     1       5.820  -6.155  26.394  0.00  0.00    +0.210 HD
ENDBRANCH  33  34
ENDBRANCH  21  33
ENDBRANCH  20  25
ENDBRANCH   1  20
TORSDOF 9
ENDMDL
MODEL 3
REMARK VINA RESULT:      -7.3      2.037      3.610
REMARK  Name = 
REMARK  9 active torsions:
REMARK  status: ('A' for Active; 'I' for Inactive)
REMARK    1  A    between atoms: C_2  and  C_3
REMARK    2  A    between atoms: C_3  and  O_4
REMARK    3  A    between atoms: C_6  and  O_8
REMARK    4  A    between atoms: O_8  and  C_9
REMARK    5  A    between atoms: C_15  and  C_20
REMARK    6  A    between atoms: C_23  and  O_24
REMARK    7  A    between atoms: C_27  and  O_29
REMARK    8  A    between atoms: C_30  and  O_32
REMARK    9  A    between atoms: C_33  and  O_35
REMARK                            x       y       z     vdW  Elec       q    Type
REMARK                         _______ _______ _______ _____ _____    ______ ____
ROOT
ATOM      1  C   UNL     1       6.695  -2.984  24.472  0.00  0.00    +0.128 A 
ATOM      2  C   UNL     1       6.401  -1.855  23.700  0.00  0.00    +0.092 A 
ATOM      3  C   UNL     1       7.265  -0.761  23.699  0.00  0.00    +0.142 A 
ATOM      4  C   UNL     1       8.419  -0.790  24.478  0.00  0.00    +0.065 A 
ATOM      5  C   UNL     1       9.295   0.391  24.513  0.00  0.00    +0.200 A 
ATOM      6  C   UNL     1       8.860   1.554  23.699  0.00  0.00    +0.064 A 
ATOM      7  C   UNL     1       7.734   1.426  22.980  0.00  0.00    +0.208 A 
ATOM      8  O   UNL     1      10.310   0.404  25.196  0.00  0.00    -0.286 OA
ATOM      9  C   UNL     1       8.718  -1.917  25.250  0.00  0.00    +0.019 A 
ATOM     10  O   UNL     1       6.923   0.316  22.923  0.00  0.00    -0.462 OA
ATOM     11  C   UNL     1       7.851  -3.011  25.254  0.00  0.00    +0.047 A 
ENDROOT
BRANCH   6  12
ATOM     12  C   UNL     1       9.587   2.824  23.707  0.00  0.00    -0.011 A 
ATOM     13  C   UNL     1       9.005   3.979  24.246  0.00  0.00    +0.012 A 
ATOM     14  C   UNL     1       9.742   5.163  24.321  0.00  0.00    +0.046 A 
ATOM     15  C   UNL     1      11.056   5.188  23.868  0.00  0.00    +0.117 A 
ATOM     16  C   UNL     1      11.636   4.061  23.297  0.00  0.00    +0.046 A 
ATOM     17  C   UNL     1      10.898   2.878  23.214  0.00  0.00    +0.012 A 
BRANCH  15  18
ATOM     18  O   UNL     1      11.757   6.348  24.016  0.00  0.00    -0.507 OA
ATOM     19  H   UNL     1      11.959   6.700  23.133  0.00  0.00    +0.292 HD
ENDBRANCH  15  18
ENDBRANCH   6  12
BRANCH   1  20
ATOM     20  O   UNL     1       5.742  -3.958  24.464  0.00  0.00    -0.461 OA
BRANCH  20  25
ATOM     21  C   UNL     1       3.009  -4.945  23.847  0.00  0.00    +0.179 C 
ATOM     22  C   UNL     1       3.274  -6.463  23.846  0.00  0.00    +0.177 C 
ATOM     23  C   UNL     1       4.753  -6.780  24.117  0.00  0.00    +0.180 C 
ATOM     24  C   UNL     1       5.655  -5.992  23.147  0.00  0.00    +0.214 C 
ATOM     25  C   UNL     1       5.319  -4.483  23.202  0.00  0.00    +0.339 C 
ATOM     26  O   UNL     1       3.922  -4.241  22.985  0.00  0.00    -0.331 OA
BRANCH  22  27
ATOM     27  O   UNL     1       2.884  -7.009  22.573  0.00  0.00    -0.386 OA
ATOM     28  H   UNL     1       3.260  -6.430  21.877  0.00  0.00    +0.210 HD
ENDBRANCH  22  27
BRANCH  23  29
ATOM     29  O   UNL     1       5.072  -6.546  25.493  0.00  0.00    -0.386 OA
ATOM     30  H   UNL     1       4.294  -6.174  25.949  0.00  0.00    +0.210 HD
ENDBRANCH  23  29
BRANCH  24  31
ATOM     31  O   UNL     1       5.465  -6.503  21.816  0.00  0.00    -0.383 OA
ATOM     32  H   UNL     1       6.342  -6.630  21.411  0.00  0.00    +0.210 HD
ENDBRANCH  24  31
BRANCH  21  33
ATOM     33  C   UNL     1       2.926  -4.304  25.246  0.00  0.00    +0.190 C 
BRANCH  33  34
ATOM     34  O   UNL     1       3.048  -2.888  25.207  0.00  0.00    -0.392 OA
ATOM     35  H   UNL     1       2.348  -2.522  25.779  0.00  0.00    +0.210 HD
ENDBRANCH  33  34
ENDBRANCH  21  33
ENDBRANCH  20  25
ENDBRANCH   1  20
TORSDOF 9
ENDMDL
MODEL 4
REMARK VINA RESULT:      -7.0      1.889      9.423
REMARK  Name = 
REMARK  9 active torsions:
REMARK  status: ('A' for Active; 'I' for Inactive)
REMARK    1  A    between atoms: C_2  and  C_3
REMARK    2  A    between atoms: C_3  and  O_4
REMARK    3  A    between atoms: C_6  and  O_8
REMARK    4  A    between atoms: O_8  and  C_9
REMARK    5  A    between atoms: C_15  and  C_20
REMARK    6  A    between atoms: C_23  and  O_24
REMARK    7  A    between atoms: C_27  and  O_29
REMARK    8  A    between atoms: C_30  and  O_32
REMARK    9  A    between atoms: C_33  and  O_35
REMARK                            x       y       z     vdW  Elec       q    Type
REMARK                         _______ _______ _______ _____ _____    ______ ____
ROOT
ATOM      1  C   UNL     1       7.433  -1.494  22.873  0.00  0.00    +0.128 A 
ATOM      2  C   UNL     1       6.246  -1.565  23.610  0.00  0.00    +0.092 A 
ATOM      3  C   UNL     1       5.547  -2.767  23.702  0.00  0.00    +0.142 A 
ATOM      4  C   UNL     1       6.027  -3.898  23.048  0.00  0.00    +0.065 A 
ATOM      5  C   UNL     1       5.252  -5.148  23.106  0.00  0.00    +0.200 A 
ATOM      6  C   UNL     1       3.981  -5.096  23.871  0.00  0.00    +0.064 A 
ATOM      7  C   UNL     1       3.660  -3.938  24.468  0.00  0.00    +0.208 A 
ATOM      8  O   UNL     1       5.639  -6.157  22.533  0.00  0.00    -0.286 OA
ATOM      9  C   UNL     1       7.214  -3.834  22.311  0.00  0.00    +0.019 A 
ATOM     10  O   UNL     1       4.390  -2.772  24.439  0.00  0.00    -0.462 OA
ATOM     11  C   UNL     1       7.912  -2.629  22.216  0.00  0.00    +0.047 A 
ENDROOT
BRANCH   6  12
ATOM     12  C   UNL     1       3.068  -6.237  23.939  0.00  0.00    -0.011 A 
ATOM     13  C   UNL     1       2.102  -6.443  22.945  0.00  0.00    +0.012 A 
ATOM     14  C   UNL     1       1.294  -7.581  22.981  0.00  0.00    +0.046 A 
ATOM     15  C   UNL     1       1.458  -8.512  24.001  0.00  0.00    +0.117 A 
ATOM     16  C   UNL     1       2.386  -8.305  25.015  0.00  0.00    +0.046 A 
ATOM     17  C   UNL     1       3.190  -7.164  24.985  0.00  0.00    +0.012 A 
BRANCH  15  18
ATOM     18  O   UNL     1       0.688  -9.637  23.964  0.00  0.00    -0.507 OA
ATOM     19  H   UNL     1       0.922 -10.195  24.724  0.00  0.00    +0.292 HD
ENDBRANCH  15  18
ENDBRANCH   6  12
BRANCH   1  20
ATOM     20  O   UNL     1       7.987  -0.253  22.780  0.00  0.00    -0.461 OA
BRANCH  20  25
ATOM     21  C   UNL     1       7.718   2.606  23.540  0.00  0.00    +0.179 C 
ATOM     22  C   UNL     1       9.145   3.095  23.228  0.00  0.00    +0.177 C 
ATOM     23  C   UNL     1      10.038   1.951  22.722  0.00  0.00    +0.180 C 
ATOM     24  C   UNL     1       9.989   0.760  23.700  0.00  0.00    +0.214 C 
ATOM     25  C   UNL     1       8.524   0.340  23.966  0.00  0.00    +0.339 C 
ATOM     26  O   UNL     1       7.722   1.449  24.396  0.00  0.00    -0.331 OA
BRANCH  22  27
ATOM     27  O   UNL     1       9.717   3.668  24.417  0.00  0.00    -0.386 OA
ATOM     28  H   UNL     1      10.685   3.516  24.382  0.00  0.00    +0.210 HD
ENDBRANCH  22  27
BRANCH  23  29
ATOM     29  O   UNL     1       9.679   1.589  21.384  0.00  0.00    -0.386 OA
ATOM     30  H   UNL     1      10.345   1.936  20.762  0.00  0.00    +0.210 HD
ENDBRANCH  23  29
BRANCH  24  31
ATOM     31  O   UNL     1      10.635   1.141  24.928  0.00  0.00    -0.383 OA
ATOM     32  H   UNL     1      10.859   0.329  25.418  0.00  0.00    +0.210 HD
ENDBRANCH  24  31
BRANCH  21  33
ATOM     33  C   UNL     1       6.819   2.405  22.304  0.00  0.00    +0.190 C 
BRANCH  33  34
ATOM     34  O   UNL     1       5.596   1.752  22.618  0.00  0.00    -0.392 OA
ATOM     35  H   UNL     1       5.818   0.851  22.917  0.00  0.00    +0.210 HD
ENDBRANCH  33  34
ENDBRANCH  21  33
ENDBRANCH  20  25
ENDBRANCH   1  20
TORSDOF 9
ENDMDL
MODEL 5
REMARK VINA RESULT:      -7.0      2.190      3.113
REMARK  Name = 
REMARK  9 active torsions:
REMARK  status: ('A' for Active; 'I' for Inactive)
REMARK    1  A    between atoms: C_2  and  C_3
REMARK    2  A    between atoms: C_3  and  O_4
REMARK    3  A    between atoms: C_6  and  O_8
REMARK    4  A    between atoms: O_8  and  C_9
REMARK    5  A    between atoms: C_15  and  C_20
REMARK    6  A    between atoms: C_23  and  O_24
REMARK    7  A    between atoms: C_27  and  O_29
REMARK    8  A    between atoms: C_30  and  O_32
REMARK    9  A    between atoms: C_33  and  O_35
REMARK                            x       y       z     vdW  Elec       q    Type
REMARK                         _______ _______ _______ _____ _____    ______ ____
ROOT
ATOM      1  C   UNL     1       5.859  -3.150  24.923  0.00  0.00    +0.128 A 
ATOM      2  C   UNL     1       6.216  -2.128  25.810  0.00  0.00    +0.092 A 
ATOM      3  C   UNL     1       6.876  -0.993  25.344  0.00  0.00    +0.142 A 
ATOM      4  C   UNL     1       7.191  -0.881  23.993  0.00  0.00    +0.065 A 
ATOM      5  C   UNL     1       7.937   0.296  23.521  0.00  0.00    +0.200 A 
ATOM      6  C   UNL     1       8.312   1.292  24.557  0.00  0.00    +0.064 A 
ATOM      7  C   UNL     1       7.918   1.059  25.818  0.00  0.00    +0.208 A 
ATOM      8  O   UNL     1       8.241   0.421  22.343  0.00  0.00    -0.286 OA
ATOM      9  C   UNL     1       6.835  -1.898  23.101  0.00  0.00    +0.019 A 
ATOM     10  O   UNL     1       7.199  -0.027  26.263  0.00  0.00    -0.462 OA
ATOM     11  C   UNL     1       6.177  -3.037  23.568  0.00  0.00    +0.047 A 
ENDROOT
BRANCH   6  12
ATOM     12  C   UNL     1       9.129   2.466  24.246  0.00  0.00    -0.011 A 
ATOM     13  C   UNL     1      10.444   2.322  23.782  0.00  0.00    +0.012 A 
ATOM     14  C   UNL     1      11.181   3.448  23.413  0.00  0.00    +0.046 A 
ATOM     15  C   UNL     1      10.604   4.710  23.498  0.00  0.00    +0.117 A 
ATOM     16  C   UNL     1       9.314   4.874  23.991  0.00  0.00    +0.046 A 
ATOM     17  C   UNL     1       8.578   3.749  24.368  0.00  0.00    +0.012 A 
BRANCH  15  18
ATOM     18  O   UNL     1      11.339   5.776  23.070  0.00  0.00    -0.507 OA
ATOM     19  H   UNL     1      11.809   6.151  23.832  0.00  0.00    +0.292 HD
ENDBRANCH  15  18
ENDBRANCH   6  12
BRANCH   1  20
ATOM     20  O   UNL     1       5.294  -4.248  25.498  0.00  0.00    -0.461 OA
BRANCH  20  25
ATOM     21  C   UNL     1       4.384  -6.817  26.679  0.00  0.00    +0.179 C 
ATOM     22  C   UNL     1       4.826  -6.605  28.139  0.00  0.00    +0.177 C 
ATOM     23  C   UNL     1       5.531  -5.252  28.326  0.00  0.00    +0.180 C 
ATOM     24  C   UNL     1       6.673  -5.098  27.302  0.00  0.00    +0.214 C 
ATOM     25  C   UNL     1       6.148  -5.335  25.867  0.00  0.00    +0.339 C 
ATOM     26  O   UNL     1       5.462  -6.590  25.753  0.00  0.00    -0.331 OA
BRANCH  22  27
ATOM     27  O   UNL     1       5.712  -7.672  28.523  0.00  0.00    -0.386 OA
ATOM     28  H   UNL     1       5.597  -8.398  27.873  0.00  0.00    +0.210 HD
ENDBRANCH  22  27
BRANCH  23  29
ATOM     29  O   UNL     1       4.583  -4.181  28.271  0.00  0.00    -0.386 OA
ATOM     30  H   UNL     1       4.649  -3.644  29.083  0.00  0.00    +0.210 HD
ENDBRANCH  23  29
BRANCH  24  31
ATOM     31  O   UNL     1       7.714  -6.038  27.621  0.00  0.00    -0.383 OA
ATOM     32  H   UNL     1       8.495  -5.538  27.918  0.00  0.00    +0.210 HD
ENDBRANCH  24  31
BRANCH  21  33
ATOM     33  C   UNL     1       3.106  -6.056  26.273  0.00  0.00    +0.190 C 
BRANCH  33  34
ATOM     34  O   UNL     1       2.923  -6.008  24.864  0.00  0.00    -0.392 OA
ATOM     35  H   UNL     1       3.137  -5.101  24.576  0.00  0.00    +0.210 HD
ENDBRANCH  33  34
ENDBRANCH  21  33
ENDBRANCH  20  25
ENDBRANCH   1  20
TORSDOF 9
ENDMDL
MODEL 6
REMARK VINA RESULT:      -7.0      2.315      3.692
REMARK  Name = 
REMARK  9 active torsions:
REMARK  status: ('A' for Active; 'I' for Inactive)
REMARK    1  A    between atoms: C_2  and  C_3
REMARK    2  A    between atoms: C_3  and  O_4
REMARK    3  A    between atoms: C_6  and  O_8
REMARK    4  A    between atoms: O_8  and  C_9
REMARK    5  A    between atoms: C_15  and  C_20
REMARK    6  A    between atoms: C_23  and  O_24
REMARK    7  A    between atoms: C_27  and  O_29
REMARK    8  A    between atoms: C_30  and  O_32
REMARK    9  A    between atoms: C_33  and  O_35
REMARK                            x       y       z     vdW  Elec       q    Type
REMARK                         _______ _______ _______ _____ _____    ______ ____
ROOT
ATOM      1  C   UNL     1       7.417  -2.602  24.231  0.00  0.00    +0.128 A 
ATOM      2  C   UNL     1       6.920  -1.342  23.881  0.00  0.00    +0.092 A 
ATOM      3  C   UNL     1       7.777  -0.246  23.804  0.00  0.00    +0.142 A 
ATOM      4  C   UNL     1       9.131  -0.405  24.087  0.00  0.00    +0.065 A 
ATOM      5  C   UNL     1      10.017   0.769  24.056  0.00  0.00    +0.200 A 
ATOM      6  C   UNL     1       9.374   2.066  23.726  0.00  0.00    +0.064 A 
ATOM      7  C   UNL     1       8.061   2.060  23.454  0.00  0.00    +0.208 A 
ATOM      8  O   UNL     1      11.209   0.667  24.310  0.00  0.00    -0.286 OA
ATOM      9  C   UNL     1       9.634  -1.663  24.434  0.00  0.00    +0.019 A 
ATOM     10  O   UNL     1       7.230   0.963  23.457  0.00  0.00    -0.462 OA
ATOM     11  C   UNL     1       8.774  -2.760  24.515  0.00  0.00    +0.047 A 
ENDROOT
BRANCH   6  12
ATOM     12  C   UNL     1      10.116   3.328  23.745  0.00  0.00    -0.011 A 
ATOM     13  C   UNL     1       9.560   4.478  24.321  0.00  0.00    +0.012 A 
ATOM     14  C   UNL     1      10.311   5.651  24.405  0.00  0.00    +0.046 A 
ATOM     15  C   UNL     1      11.615   5.671  23.923  0.00  0.00    +0.117 A 
ATOM     16  C   UNL     1      12.170   4.550  23.314  0.00  0.00    +0.046 A 
ATOM     17  C   UNL     1      11.416   3.378  23.223  0.00  0.00    +0.012 A 
BRANCH  15  18
ATOM     18  O   UNL     1      12.333   6.820  24.079  0.00  0.00    -0.507 OA
ATOM     19  H   UNL     1      11.885   7.532  23.593  0.00  0.00    +0.292 HD
ENDBRANCH  15  18
ENDBRANCH   6  12
BRANCH   1  20
ATOM     20  O   UNL     1       6.479  -3.582  24.358  0.00  0.00    -0.461 OA
BRANCH  20  25
ATOM     21  C   UNL     1       4.681  -5.890  24.875  0.00  0.00    +0.179 C 
ATOM     22  C   UNL     1       4.661  -5.866  26.415  0.00  0.00    +0.177 C 
ATOM     23  C   UNL     1       5.552  -4.746  26.976  0.00  0.00    +0.180 C 
ATOM     24  C   UNL     1       6.968  -4.837  26.374  0.00  0.00    +0.214 C 
ATOM     25  C   UNL     1       6.898  -4.866  24.830  0.00  0.00    +0.339 C 
ATOM     26  O   UNL     1       6.024  -5.899  24.356  0.00  0.00    -0.331 OA
BRANCH  22  27
ATOM     27  O   UNL     1       5.110  -7.139  26.912  0.00  0.00    -0.386 OA
ATOM     28  H   UNL     1       4.503  -7.403  27.636  0.00  0.00    +0.210 HD
ENDBRANCH  22  27
BRANCH  23  29
ATOM     29  O   UNL     1       4.939  -3.468  26.770  0.00  0.00    -0.386 OA
ATOM     30  H   UNL     1       3.976  -3.581  26.663  0.00  0.00    +0.210 HD
ENDBRANCH  23  29
BRANCH  24  31
ATOM     31  O   UNL     1       7.609  -6.024  26.873  0.00  0.00    -0.383 OA
ATOM     32  H   UNL     1       7.058  -6.390  27.587  0.00  0.00    +0.210 HD
ENDBRANCH  24  31
BRANCH  21  33
ATOM     33  C   UNL     1       3.810  -4.812  24.199  0.00  0.00    +0.190 C 
BRANCH  33  34
ATOM     34  O   UNL     1       4.083  -4.680  22.810  0.00  0.00    -0.392 OA
ATOM     35  H   UNL     1       4.951  -5.094  22.645  0.00  0.00    +0.210 HD
ENDBRANCH  33  34
ENDBRANCH  21  33
ENDBRANCH  20  25
ENDBRANCH   1  20
TORSDOF 9
ENDMDL
MODEL 7
REMARK VINA RESULT:      -6.9      2.079      9.472
REMARK  Name = 
REMARK  9 active torsions:
REMARK  status: ('A' for Active; 'I' for Inactive)
REMARK    1  A    between atoms: C_2  and  C_3
REMARK    2  A    between atoms: C_3  and  O_4
REMARK    3  A    between atoms: C_6  and  O_8
REMARK    4  A    between atoms: O_8  and  C_9
REMARK    5  A    between atoms: C_15  and  C_20
REMARK    6  A    between atoms: C_23  and  O_24
REMARK    7  A    between atoms: C_27  and  O_29
REMARK    8  A    between atoms: C_30  and  O_32
REMARK    9  A    between atoms: C_33  and  O_35
REMARK                            x       y       z     vdW  Elec       q    Type
REMARK                         _______ _______ _______ _____ _____    ______ ____
ROOT
ATOM      1  C   UNL     1       7.383  -1.437  23.705  0.00  0.00    +0.128 A 
ATOM      2  C   UNL     1       6.139  -1.574  24.330  0.00  0.00    +0.092 A 
ATOM      3  C   UNL     1       5.417  -2.759  24.202  0.00  0.00    +0.142 A 
ATOM      4  C   UNL     1       5.931  -3.805  23.441  0.00  0.00    +0.065 A 
ATOM      5  C   UNL     1       5.135  -5.030  23.267  0.00  0.00    +0.200 A 
ATOM      6  C   UNL     1       3.807  -5.048  23.929  0.00  0.00    +0.064 A 
ATOM      7  C   UNL     1       3.455  -3.973  24.650  0.00  0.00    +0.208 A 
ATOM      8  O   UNL     1       5.553  -5.963  22.595  0.00  0.00    -0.286 OA
ATOM      9  C   UNL     1       7.175  -3.674  22.816  0.00  0.00    +0.019 A 
ATOM     10  O   UNL     1       4.203  -2.833  24.838  0.00  0.00    -0.462 OA
ATOM     11  C   UNL     1       7.898  -2.486  22.941  0.00  0.00    +0.047 A 
ENDROOT
BRANCH   6  12
ATOM     12  C   UNL     1       2.873  -6.164  23.769  0.00  0.00    -0.011 A 
ATOM     13  C   UNL     1       1.956  -6.185  22.711  0.00  0.00    +0.012 A 
ATOM     14  C   UNL     1       1.129  -7.294  22.525  0.00  0.00    +0.046 A 
ATOM     15  C   UNL     1       1.227  -8.380  23.387  0.00  0.00    +0.117 A 
ATOM     16  C   UNL     1       2.106  -8.361  24.464  0.00  0.00    +0.046 A 
ATOM     17  C   UNL     1       2.928  -7.249  24.656  0.00  0.00    +0.012 A 
BRANCH  15  18
ATOM     18  O   UNL     1       0.443  -9.467  23.133  0.00  0.00    -0.507 OA
ATOM     19  H   UNL     1      -0.423  -9.326  23.549  0.00  0.00    +0.292 HD
ENDBRANCH  15  18
ENDBRANCH   6  12
BRANCH   1  20
ATOM     20  O   UNL     1       7.962  -0.209  23.827  0.00  0.00    -0.461 OA
BRANCH  20  25
ATOM     21  C   UNL     1       8.847   1.971  22.014  0.00  0.00    +0.179 C 
ATOM     22  C   UNL     1       9.138   3.072  23.051  0.00  0.00    +0.177 C 
ATOM     23  C   UNL     1       8.830   2.598  24.481  0.00  0.00    +0.180 C 
ATOM     24  C   UNL     1       7.399   2.032  24.560  0.00  0.00    +0.214 C 
ATOM     25  C   UNL     1       7.188   0.943  23.482  0.00  0.00    +0.339 C 
ATOM     26  O   UNL     1       7.527   1.419  22.172  0.00  0.00    -0.331 OA
BRANCH  22  27
ATOM     27  O   UNL     1       8.345   4.232  22.742  0.00  0.00    -0.386 OA
ATOM     28  H   UNL     1       7.428   3.927  22.576  0.00  0.00    +0.210 HD
ENDBRANCH  22  27
BRANCH  23  29
ATOM     29  O   UNL     1       9.824   1.669  24.926  0.00  0.00    -0.386 OA
ATOM     30  H   UNL     1      10.704   1.963  24.624  0.00  0.00    +0.210 HD
ENDBRANCH  23  29
BRANCH  24  31
ATOM     31  O   UNL     1       6.462   3.108  24.380  0.00  0.00    -0.383 OA
ATOM     32  H   UNL     1       6.557   3.723  25.130  0.00  0.00    +0.210 HD
ENDBRANCH  24  31
BRANCH  21  33
ATOM     33  C   UNL     1       9.924   0.871  21.918  0.00  0.00    +0.190 C 
BRANCH  33  34
ATOM     34  O   UNL     1       9.506  -0.236  21.132  0.00  0.00    -0.392 OA
ATOM     35  H   UNL     1       9.600   0.022  20.196  0.00  0.00    +0.210 HD
ENDBRANCH  33  34
ENDBRANCH  21  33
ENDBRANCH  20  25
ENDBRANCH   1  20
TORSDOF 9
ENDMDL
MODEL 8
REMARK VINA RESULT:      -6.9      1.819      3.235
REMARK  Name = 
REMARK  9 active torsions:
REMARK  status: ('A' for Active; 'I' for Inactive)
REMARK    1  A    between atoms: C_2  and  C_3
REMARK    2  A    between atoms: C_3  and  O_4
REMARK    3  A    between atoms: C_6  and  O_8
REMARK    4  A    between atoms: O_8  and  C_9
REMARK    5  A    between atoms: C_15  and  C_20
REMARK    6  A    between atoms: C_23  and  O_24
REMARK    7  A    between atoms: C_27  and  O_29
REMARK    8  A    between atoms: C_30  and  O_32
REMARK    9  A    between atoms: C_33  and  O_35
REMARK                            x       y       z     vdW  Elec       q    Type
REMARK                         _______ _______ _______ _____ _____    ______ ____
ROOT
ATOM      1  C   UNL     1       6.611  -3.647  24.233  0.00  0.00    +0.128 A 
ATOM      2  C   UNL     1       6.274  -2.520  23.476  0.00  0.00    +0.092 A 
ATOM      3  C   UNL     1       7.078  -1.381  23.517  0.00  0.00    +0.142 A 
ATOM      4  C   UNL     1       8.212  -1.363  24.323  0.00  0.00    +0.065 A 
ATOM      5  C   UNL     1       9.023  -0.138  24.402  0.00  0.00    +0.200 A 
ATOM      6  C   UNL     1       8.544   1.016  23.599  0.00  0.00    +0.064 A 
ATOM      7  C   UNL     1       7.444   0.842  22.851  0.00  0.00    +0.208 A 
ATOM      8  O   UNL     1      10.019  -0.085  25.109  0.00  0.00    -0.286 OA
ATOM      9  C   UNL     1       8.555  -2.489  25.080  0.00  0.00    +0.019 A 
ATOM     10  O   UNL     1       6.695  -0.308  22.753  0.00  0.00    -0.462 OA
ATOM     11  C   UNL     1       7.749  -3.628  25.042  0.00  0.00    +0.047 A 
ENDROOT
BRANCH   6  12
ATOM     12  C   UNL     1       9.200   2.323  23.649  0.00  0.00    -0.011 A 
ATOM     13  C   UNL     1       8.566   3.421  24.246  0.00  0.00    +0.012 A 
ATOM     14  C   UNL     1       9.239   4.639  24.359  0.00  0.00    +0.046 A 
ATOM     15  C   UNL     1      10.541   4.755  23.886  0.00  0.00    +0.117 A 
ATOM     16  C   UNL     1      11.171   3.687  23.257  0.00  0.00    +0.046 A 
ATOM     17  C   UNL     1      10.497   2.470  23.137  0.00  0.00    +0.012 A 
BRANCH  15  18
ATOM     18  O   UNL     1      11.180   5.945  24.071  0.00  0.00    -0.507 OA
ATOM     19  H   UNL     1      11.826   6.063  23.354  0.00  0.00    +0.292 HD
ENDBRANCH  15  18
ENDBRANCH   6  12
BRANCH   1  20
ATOM     20  O   UNL     1       5.713  -4.670  24.183  0.00  0.00    -0.461 OA
BRANCH  20  25
ATOM     21  C   UNL     1       3.702  -5.509  26.202  0.00  0.00    +0.179 C 
ATOM     22  C   UNL     1       2.977  -6.611  25.407  0.00  0.00    +0.177 C 
ATOM     23  C   UNL     1       3.556  -6.762  23.991  0.00  0.00    +0.180 C 
ATOM     24  C   UNL     1       3.585  -5.397  23.277  0.00  0.00    +0.214 C 
ATOM     25  C   UNL     1       4.320  -4.349  24.144  0.00  0.00    +0.339 C 
ATOM     26  O   UNL     1       3.771  -4.274  25.467  0.00  0.00    -0.331 OA
BRANCH  22  27
ATOM     27  O   UNL     1       1.576  -6.292  25.329  0.00  0.00    -0.386 OA
ATOM     28  H   UNL     1       1.078  -7.067  25.663  0.00  0.00    +0.210 HD
ENDBRANCH  22  27
BRANCH  23  29
ATOM     29  O   UNL     1       4.840  -7.394  24.040  0.00  0.00    -0.386 OA
ATOM     30  H   UNL     1       5.301  -7.135  24.860  0.00  0.00    +0.210 HD
ENDBRANCH  23  29
BRANCH  24  31
ATOM     31  O   UNL     1       2.233  -4.980  23.017  0.00  0.00    -0.383 OA
ATOM     32  H   UNL     1       1.838  -5.603  22.381  0.00  0.00    +0.210 HD
ENDBRANCH  24  31
BRANCH  21  33
ATOM     33  C   UNL     1       5.076  -5.918  26.771  0.00  0.00    +0.190 C 
BRANCH  33  34
ATOM     34  O   UNL     1       5.128  -7.290  27.140  0.00  0.00    -0.392 OA
ATOM     35  H   UNL     1       4.759  -7.804  26.397  0.00  0.00    +0.210 HD
ENDBRANCH  33  34
ENDBRANCH  21  33
ENDBRANCH  20  25
ENDBRANCH   1  20
TORSDOF 9
ENDMDL
MODEL 9
REMARK VINA RESULT:      -6.8      0.928      2.165
REMARK  Name = 
REMARK  9 active torsions:
REMARK  status: ('A' for Active; 'I' for Inactive)
REMARK    1  A    between atoms: C_2  and  C_3
REMARK    2  A    between atoms: C_3  and  O_4
REMARK    3  A    between atoms: C_6  and  O_8
REMARK    4  A    between atoms: O_8  and  C_9
REMARK    5  A    between atoms: C_15  and  C_20
REMARK    6  A    between atoms: C_23  and  O_24
REMARK    7  A    between atoms: C_27  and  O_29
REMARK    8  A    between atoms: C_30  and  O_32
REMARK    9  A    between atoms: C_33  and  O_35
REMARK                            x       y       z     vdW  Elec       q    Type
REMARK                         _______ _______ _______ _____ _____    ______ ____
ROOT
ATOM      1  C   UNL     1       5.197  -4.877  23.218  0.00  0.00    +0.128 A 
ATOM      2  C   UNL     1       5.003  -3.554  23.630  0.00  0.00    +0.092 A 
ATOM      3  C   UNL     1       5.991  -2.597  23.404  0.00  0.00    +0.142 A 
ATOM      4  C   UNL     1       7.179  -2.963  22.778  0.00  0.00    +0.065 A 
ATOM      5  C   UNL     1       8.238  -1.957  22.594  0.00  0.00    +0.200 A 
ATOM      6  C   UNL     1       7.948  -0.598  23.117  0.00  0.00    +0.064 A 
ATOM      7  C   UNL     1       6.747  -0.389  23.678  0.00  0.00    +0.208 A 
ATOM      8  O   UNL     1       9.298  -2.248  22.058  0.00  0.00    -0.286 OA
ATOM      9  C   UNL     1       7.377  -4.283  22.362  0.00  0.00    +0.019 A 
ATOM     10  O   UNL     1       5.743  -1.317  23.831  0.00  0.00    -0.462 OA
ATOM     11  C   UNL     1       6.389  -5.243  22.591  0.00  0.00    +0.047 A 
ENDROOT
BRANCH   6  12
ATOM     12  C   UNL     1       8.941   0.476  23.082  0.00  0.00    -0.011 A 
ATOM     13  C   UNL     1       9.176   1.197  21.903  0.00  0.00    +0.012 A 
ATOM     14  C   UNL     1      10.066   2.272  21.908  0.00  0.00    +0.046 A 
ATOM     15  C   UNL     1      10.711   2.629  23.087  0.00  0.00    +0.117 A 
ATOM     16  C   UNL     1      10.518   1.902  24.256  0.00  0.00    +0.046 A 
ATOM     17  C   UNL     1       9.633   0.822  24.251  0.00  0.00    +0.012 A 
BRANCH  15  18
ATOM     18  O   UNL     1      11.526   3.722  23.060  0.00  0.00    -0.507 OA
ATOM     19  H   UNL     1      11.266   4.319  23.780  0.00  0.00    +0.292 HD
ENDBRANCH  15  18
ENDBRANCH   6  12
BRANCH   1  20
ATOM     20  O   UNL     1       4.205  -5.744  23.564  0.00  0.00    -0.461 OA
BRANCH  20  25
ATOM     21  C   UNL     1       3.047  -6.419  26.215  0.00  0.00    +0.179 C 
ATOM     22  C   UNL     1       1.886  -7.328  25.769  0.00  0.00    +0.177 C 
ATOM     23  C   UNL     1       1.820  -7.455  24.239  0.00  0.00    +0.180 C 
ATOM     24  C   UNL     1       1.800  -6.058  23.587  0.00  0.00    +0.214 C 
ATOM     25  C   UNL     1       2.989  -5.208  24.094  0.00  0.00    +0.339 C 
ATOM     26  O   UNL     1       3.032  -5.154  25.527  0.00  0.00    -0.331 OA
BRANCH  22  27
ATOM     27  O   UNL     1       0.648  -6.790  26.267  0.00  0.00    -0.386 OA
ATOM     28  H   UNL     1       0.385  -7.327  27.044  0.00  0.00    +0.210 HD
ENDBRANCH  22  27
BRANCH  23  29
ATOM     29  O   UNL     1       2.887  -8.280  23.758  0.00  0.00    -0.386 OA
ATOM     30  H   UNL     1       2.713  -8.530  22.831  0.00  0.00    +0.210 HD
ENDBRANCH  23  29
BRANCH  24  31
ATOM     31  O   UNL     1       0.552  -5.417  23.901  0.00  0.00    -0.383 OA
ATOM     32  H   UNL     1       0.655  -4.459  23.754  0.00  0.00    +0.210 HD
ENDBRANCH  24  31
BRANCH  21  33
ATOM     33  C   UNL     1       4.439  -7.080  26.175  0.00  0.00    +0.190 C 
BRANCH  33  34
ATOM     34  O   UNL     1       5.493  -6.147  26.376  0.00  0.00    -0.392 OA
ATOM     35  H   UNL     1       5.083  -5.296  26.620  0.00  0.00    +0.210 HD
ENDBRANCH  33  34
ENDBRANCH  21  33
ENDBRANCH  20  25
ENDBRANCH   1  20
TORSDOF 9
ENDMDL
