MODEL 1
REMARK VINA RESULT:      -6.1      0.000      0.000
REMARK  Name = 
REMARK  5 active torsions:
REMARK  status: ('A' for Active; 'I' for Inactive)
REMARK    1  A    between atoms: C_1  and  C_2
REMARK    2  A    between atoms: C_6  and  C_7
REMARK    3  A    between atoms: C_10  and  C_11
REMARK    4  A    between atoms: C_11  and  C_12
REMARK    5  A    between atoms: C_12  and  N_13
REMARK                            x       y       z     vdW  Elec       q    Type
REMARK                         _______ _______ _______ _____ _____    ______ ____
ROOT
ATOM      1  C   UNL     1       8.376  -3.479  24.253  0.00  0.00    -0.015 A 
ATOM      2  C   UNL     1       7.445  -2.952  23.349  0.00  0.00    +0.009 A 
ATOM      3  C   UNL     1       7.809  -1.962  22.430  0.00  0.00    +0.004 A 
ATOM      4  C   UNL     1       9.113  -1.458  22.406  0.00  0.00    -0.046 A 
ATOM      5  C   UNL     1      10.059  -2.002  23.279  0.00  0.00    +0.004 A 
ATOM      6  C   UNL     1       9.694  -3.001  24.192  0.00  0.00    +0.009 A 
ENDROOT
BRANCH   1   9
ATOM      7  C   UNL     1       5.608  -5.361  24.514  0.00  0.00    +0.068 C 
ATOM      8  C   UNL     1       6.794  -5.259  25.403  0.00  0.00    +0.067 A 
ATOM      9  C   UNL     1       7.970  -4.460  25.255  0.00  0.00    +0.022 A 
ATOM     10  C   UNL     1       8.718  -4.772  26.373  0.00  0.00    +0.113 A 
ATOM     11  N   UNL     1       7.997  -5.682  27.087  0.00  0.00    -0.284 N 
ATOM     12  H   UNL     1       8.240  -6.120  27.968  0.00  0.00    +0.188 HD
ATOM     13  N   UNL     1       6.827  -5.998  26.520  0.00  0.00    -0.179 NA
ENDBRANCH   1   9
BRANCH   4  14
ATOM     14  C   UNL     1       9.476  -0.325  21.475  0.00  0.00    +0.050 C 
BRANCH  14  15
ATOM     15  C   UNL     1      10.032   0.899  22.207  0.00  0.00    +0.082 C 
BRANCH  15  16
ATOM     16  N   UNL     1       9.694   2.128  21.490  0.00  0.00    -0.330 NA
ATOM     17  H   UNL     1       9.183   1.894  20.639  0.00  0.00    +0.118 HD
ATOM     18  H   UNL     1       9.061   2.693  22.055  0.00  0.00    +0.118 HD
ENDBRANCH  15  16
ENDBRANCH  14  15
ENDBRANCH   4  14
TORSDOF 4
ENDMDL
MODEL 2
REMARK VINA RESULT:      -6.1      1.492      1.846
REMARK  Name = 
REMARK  5 active torsions:
REMARK  status: ('A' for Active; 'I' for Inactive)
REMARK    1  A    between atoms: C_1  and  C_2
REMARK    2  A    between atoms: C_6  and  C_7
REMARK    3  A    between atoms: C_10  and  C_11
REMARK    4  A    between atoms: C_11  and  C_12
REMARK    5  A    between atoms: C_12  and  N_13
REMARK                            x       y       z     vdW  Elec       q    Type
REMARK                         _______ _______ _______ _____ _____    ______ ____
ROOT
ATOM      1  C   UNL     1       8.850  -2.557  25.181  0.00  0.00    -0.015 A 
ATOM      2  C   UNL     1       8.686  -1.402  25.957  0.00  0.00    +0.009 A 
ATOM      3  C   UNL     1       9.218  -0.174  25.549  0.00  0.00    +0.004 A 
ATOM      4  C   UNL     1       9.949  -0.074  24.362  0.00  0.00    -0.046 A 
ATOM      5  C   UNL     1      10.089  -1.213  23.562  0.00  0.00    +0.004 A 
ATOM      6  C   UNL     1       9.546  -2.439  23.968  0.00  0.00    +0.009 A 
ENDROOT
BRANCH   1   9
ATOM      7  C   UNL     1       6.000  -4.202  24.518  0.00  0.00    +0.068 C 
ATOM      8  C   UNL     1       7.138  -4.561  25.401  0.00  0.00    +0.067 A 
ATOM      9  C   UNL     1       8.352  -3.847  25.649  0.00  0.00    +0.022 A 
ATOM     10  C   UNL     1       9.026  -4.652  26.546  0.00  0.00    +0.113 A 
ATOM     11  N   UNL     1       8.232  -5.735  26.775  0.00  0.00    -0.284 N 
ATOM     12  H   UNL     1       8.409  -6.523  27.389  0.00  0.00    +0.188 HD
ATOM     13  N   UNL     1       7.082  -5.708  26.091  0.00  0.00    -0.179 NA
ENDBRANCH   1   9
BRANCH   4  14
ATOM     14  C   UNL     1      10.599   1.232  23.974  0.00  0.00    +0.050 C 
BRANCH  14  15
ATOM     15  C   UNL     1       9.694   2.123  23.119  0.00  0.00    +0.082 C 
BRANCH  15  16
ATOM     16  N   UNL     1      10.077   2.046  21.709  0.00  0.00    -0.330 NA
ATOM     17  H   UNL     1       9.320   2.414  21.133  0.00  0.00    +0.118 HD
ATOM     18  H   UNL     1      10.882   2.648  21.538  0.00  0.00    +0.118 HD
ENDBRANCH  15  16
ENDBRANCH  14  15
ENDBRANCH   4  14
TORSDOF 4
ENDMDL
MODEL 3
REMARK VINA RESULT:      -6.0      0.983      6.459
REMARK  Name = 
REMARK  5 active torsions:
REMARK  status: ('A' for Active; 'I' for Inactive)
REMARK    1  A    between atoms: C_1  and  C_2
REMARK    2  A    between atoms: C_6  and  C_7
REMARK    3  A    between atoms: C_10  and  C_11
REMARK    4  A    between atoms: C_11  and  C_12
REMARK    5  A    between atoms: C_12  and  N_13
REMARK                            x       y       z     vdW  Elec       q    Type
REMARK                         _______ _______ _______ _____ _____    ______ ____
ROOT
ATOM      1  C   UNL     1       9.046  -1.338  22.995  0.00  0.00    -0.015 A 
ATOM      2  C   UNL     1       9.856  -2.111  23.836  0.00  0.00    +0.009 A 
ATOM      3  C   UNL     1       9.443  -3.371  24.282  0.00  0.00    +0.004 A 
ATOM      4  C   UNL     1       8.195  -3.882  23.914  0.00  0.00    -0.046 A 
ATOM      5  C   UNL     1       7.393  -3.134  23.046  0.00  0.00    +0.004 A 
ATOM      6  C   UNL     1       7.815  -1.878  22.592  0.00  0.00    +0.009 A 
ENDROOT
BRANCH   1   9
ATOM      7  C   UNL     1      10.906   0.974  24.565  0.00  0.00    +0.068 C 
ATOM      8  C   UNL     1      10.226   1.016  23.245  0.00  0.00    +0.067 A 
ATOM      9  C   UNL     1       9.455   0.004  22.592  0.00  0.00    +0.022 A 
ATOM     10  C   UNL     1       9.079   0.599  21.404  0.00  0.00    +0.113 A 
ATOM     11  N   UNL     1       9.608   1.854  21.407  0.00  0.00    -0.284 N 
ATOM     12  H   UNL     1       9.522   2.572  20.696  0.00  0.00    +0.188 HD
ATOM     13  N   UNL     1      10.312   2.133  22.510  0.00  0.00    -0.179 NA
ENDBRANCH   1   9
BRANCH   4  14
ATOM     14  C   UNL     1       7.715  -5.200  24.472  0.00  0.00    +0.050 C 
BRANCH  14  15
ATOM     15  C   UNL     1       7.239  -5.100  25.924  0.00  0.00    +0.082 C 
BRANCH  15  16
ATOM     16  N   UNL     1       8.180  -5.770  26.823  0.00  0.00    -0.330 NA
ATOM     17  H   UNL     1       8.889  -5.104  27.128  0.00  0.00    +0.118 HD
ATOM     18  H   UNL     1       7.693  -6.072  27.667  0.00  0.00    +0.118 HD
ENDBRANCH  15  16
ENDBRANCH  14  15
ENDBRANCH   4  14
TORSDOF 4
ENDMDL
MODEL 4
REMARK VINA RESULT:      -6.0      3.182      7.955
REMARK  Name = 
REMARK  5 active torsions:
REMARK  status: ('A' for Active; 'I' for Inactive)
REMARK    1  A    between atoms: C_1  and  C_2
REMARK    2  A    between atoms: C_6  and  C_7
REMARK    3  A    between atoms: C_10  and  C_11
REMARK    4  A    between atoms: C_11  and  C_12
REMARK    5  A    between atoms: C_12  and  N_13
REMARK                            x       y       z     vdW  Elec       q    Type
REMARK                         _______ _______ _______ _____ _____    ______ ____
ROOT
ATOM      1  C   UNL     1      10.223   2.496  23.354  0.00  0.00    -0.015 A 
ATOM      2  C   UNL     1      10.593   1.579  24.345  0.00  0.00    +0.009 A 
ATOM      3  C   UNL     1      10.593   0.202  24.095  0.00  0.00    +0.004 A 
ATOM      4  C   UNL     1      10.200  -0.294  22.848  0.00  0.00    -0.046 A 
ATOM      5  C   UNL     1       9.862   0.615  21.840  0.00  0.00    +0.004 A 
ATOM      6  C   UNL     1       9.874   1.993  22.091  0.00  0.00    +0.009 A 
ENDROOT
BRANCH   1   9
ATOM      7  C   UNL     1      12.564   4.897  23.187  0.00  0.00    +0.068 C 
ATOM      8  C   UNL     1      11.140   4.964  23.604  0.00  0.00    +0.067 A 
ATOM      9  C   UNL     1      10.159   3.925  23.646  0.00  0.00    +0.022 A 
ATOM     10  C   UNL     1       9.028   4.565  24.111  0.00  0.00    +0.113 A 
ATOM     11  N   UNL     1       9.368   5.869  24.312  0.00  0.00    -0.284 N 
ATOM     12  H   UNL     1       8.784   6.622  24.659  0.00  0.00    +0.188 HD
ATOM     13  N   UNL     1      10.642   6.140  24.009  0.00  0.00    -0.179 NA
ENDBRANCH   1   9
BRANCH   4  14
ATOM     14  C   UNL     1      10.112  -1.783  22.613  0.00  0.00    +0.050 C 
BRANCH  14  15
ATOM     15  C   UNL     1       9.164  -2.490  23.585  0.00  0.00    +0.082 C 
BRANCH  15  16
ATOM     16  N   UNL     1       9.860  -3.562  24.298  0.00  0.00    -0.330 NA
ATOM     17  H   UNL     1      10.172  -3.217  25.205  0.00  0.00    +0.118 HD
ATOM     18  H   UNL     1       9.211  -4.324  24.491  0.00  0.00    +0.118 HD
ENDBRANCH  15  16
ENDBRANCH  14  15
ENDBRANCH   4  14
TORSDOF 4
ENDMDL
MODEL 5
REMARK VINA RESULT:      -6.0      2.948      7.708
REMARK  Name = 
REMARK  5 active torsions:
REMARK  status: ('A' for Active; 'I' for Inactive)
REMARK    1  A    between atoms: C_1  and  C_2
REMARK    2  A    between atoms: C_6  and  C_7
REMARK    3  A    between atoms: C_10  and  C_11
REMARK    4  A    between atoms: C_11  and  C_12
REMARK    5  A    between atoms: C_12  and  N_13
REMARK                            x       y       z     vdW  Elec       q    Type
REMARK                         _______ _______ _______ _____ _____    ______ ____
ROOT
ATOM      1  C   UNL     1      10.448   2.177  23.283  0.00  0.00    -0.015 A 
ATOM      2  C   UNL     1      10.664   1.314  24.364  0.00  0.00    +0.009 A 
ATOM      3  C   UNL     1      10.452  -0.064  24.244  0.00  0.00    +0.004 A 
ATOM      4  C   UNL     1       9.997  -0.612  23.041  0.00  0.00    -0.046 A 
ATOM      5  C   UNL     1       9.812   0.236  21.945  0.00  0.00    +0.004 A 
ATOM      6  C   UNL     1      10.036   1.614  22.065  0.00  0.00    +0.009 A 
ENDROOT
BRANCH   1   9
ATOM      7  C   UNL     1       8.266   4.553  24.214  0.00  0.00    +0.068 C 
ATOM      8  C   UNL     1       9.692   4.656  23.812  0.00  0.00    +0.067 A 
ATOM      9  C   UNL     1      10.604   3.621  23.438  0.00  0.00    +0.022 A 
ATOM     10  C   UNL     1      11.775   4.301  23.170  0.00  0.00    +0.113 A 
ATOM     11  N   UNL     1      11.520   5.622  23.382  0.00  0.00    -0.284 N 
ATOM     12  H   UNL     1      12.152   6.407  23.271  0.00  0.00    +0.188 HD
ATOM     13  N   UNL     1      10.265   5.866  23.775  0.00  0.00    -0.179 NA
ENDBRANCH   1   9
BRANCH   4  14
ATOM     14  C   UNL     1       9.681  -2.085  22.944  0.00  0.00    +0.050 C 
BRANCH  14  15
ATOM     15  C   UNL     1       9.224  -2.690  24.275  0.00  0.00    +0.082 C 
BRANCH  15  16
ATOM     16  N   UNL     1       9.835  -4.003  24.482  0.00  0.00    -0.330 NA
ATOM     17  H   UNL     1      10.653  -4.095  23.879  0.00  0.00    +0.118 HD
ATOM     18  H   UNL     1      10.178  -4.075  25.439  0.00  0.00    +0.118 HD
ENDBRANCH  15  16
ENDBRANCH  14  15
ENDBRANCH   4  14
TORSDOF 4
ENDMDL
MODEL 6
REMARK VINA RESULT:      -5.8      1.531      6.346
REMARK  Name = 
REMARK  5 active torsions:
REMARK  status: ('A' for Active; 'I' for Inactive)
REMARK    1  A    between atoms: C_1  and  C_2
REMARK    2  A    between atoms: C_6  and  C_7
REMARK    3  A    between atoms: C_10  and  C_11
REMARK    4  A    between atoms: C_11  and  C_12
REMARK    5  A    between atoms: C_12  and  N_13
REMARK                            x       y       z     vdW  Elec       q    Type
REMARK                         _______ _______ _______ _____ _____    ______ ____
ROOT
ATOM      1  C   UNL     1       8.761  -1.057  23.186  0.00  0.00    -0.015 A 
ATOM      2  C   UNL     1       8.434  -2.101  22.311  0.00  0.00    +0.009 A 
ATOM      3  C   UNL     1       8.016  -3.346  22.792  0.00  0.00    +0.004 A 
ATOM      4  C   UNL     1       7.936  -3.587  24.167  0.00  0.00    -0.046 A 
ATOM      5  C   UNL     1       8.225  -2.541  25.050  0.00  0.00    +0.004 A 
ATOM      6  C   UNL     1       8.632  -1.292  24.564  0.00  0.00    +0.009 A 
ENDROOT
BRANCH   1   9
ATOM      7  C   UNL     1      11.075   1.055  24.393  0.00  0.00    +0.068 C 
ATOM      8  C   UNL     1      10.228   1.144  23.176  0.00  0.00    +0.067 A 
ATOM      9  C   UNL     1       9.262   0.215  22.676  0.00  0.00    +0.022 A 
ATOM     10  C   UNL     1       8.795   0.820  21.526  0.00  0.00    +0.113 A 
ATOM     11  N   UNL     1       9.461   2.003  21.405  0.00  0.00    -0.284 N 
ATOM     12  H   UNL     1       9.361   2.707  20.682  0.00  0.00    +0.188 HD
ATOM     13  N   UNL     1      10.339   2.223  22.390  0.00  0.00    -0.179 NA
ENDBRANCH   1   9
BRANCH   4  14
ATOM     14  C   UNL     1       7.575  -4.960  24.681  0.00  0.00    +0.050 C 
BRANCH  14  15
ATOM     15  C   UNL     1       8.511  -5.452  25.788  0.00  0.00    +0.082 C 
BRANCH  15  16
ATOM     16  N   UNL     1       9.821  -5.804  25.237  0.00  0.00    -0.330 NA
ATOM     17  H   UNL     1      10.543  -5.606  25.929  0.00  0.00    +0.118 HD
ATOM     18  H   UNL     1       9.862  -6.808  25.063  0.00  0.00    +0.118 HD
ENDBRANCH  15  16
ENDBRANCH  14  15
ENDBRANCH   4  14
TORSDOF 4
ENDMDL
MODEL 7
REMARK VINA RESULT:      -5.7      2.662      6.202
REMARK  Name = 
REMARK  5 active torsions:
REMARK  status: ('A' for Active; 'I' for Inactive)
REMARK    1  A    between atoms: C_1  and  C_2
REMARK    2  A    between atoms: C_6  and  C_7
REMARK    3  A    between atoms: C_10  and  C_11
REMARK    4  A    between atoms: C_11  and  C_12
REMARK    5  A    between atoms: C_12  and  N_13
REMARK                            x       y       z     vdW  Elec       q    Type
REMARK                         _______ _______ _______ _____ _____    ______ ____
ROOT
ATOM      1  C   UNL     1       8.336  -1.022  22.908  0.00  0.00    -0.015 A 
ATOM      2  C   UNL     1       6.935  -1.017  22.934  0.00  0.00    +0.009 A 
ATOM      3  C   UNL     1       6.211  -2.197  23.139  0.00  0.00    +0.004 A 
ATOM      4  C   UNL     1       6.871  -3.418  23.302  0.00  0.00    -0.046 A 
ATOM      5  C   UNL     1       8.270  -3.429  23.313  0.00  0.00    +0.004 A 
ATOM      6  C   UNL     1       8.992  -2.244  23.119  0.00  0.00    +0.009 A 
ENDROOT
BRANCH   1   9
ATOM      7  C   UNL     1      10.654   0.624  24.694  0.00  0.00    +0.068 C 
ATOM      8  C   UNL     1      10.054   0.935  23.371  0.00  0.00    +0.067 A 
ATOM      9  C   UNL     1       9.080   0.201  22.624  0.00  0.00    +0.022 A 
ATOM     10  C   UNL     1       8.907   0.960  21.483  0.00  0.00    +0.113 A 
ATOM     11  N   UNL     1       9.732   2.038  21.599  0.00  0.00    -0.284 N 
ATOM     12  H   UNL     1       9.853   2.806  20.948  0.00  0.00    +0.188 HD
ATOM     13  N   UNL     1      10.442   2.047  22.732  0.00  0.00    -0.179 NA
ENDBRANCH   1   9
BRANCH   4  14
ATOM     14  C   UNL     1       6.084  -4.700  23.430  0.00  0.00    +0.050 C 
BRANCH  14  15
ATOM     15  C   UNL     1       6.383  -5.703  22.311  0.00  0.00    +0.082 C 
BRANCH  15  16
ATOM     16  N   UNL     1       5.966  -5.169  21.014  0.00  0.00    -0.330 NA
ATOM     17  H   UNL     1       6.210  -4.181  20.961  0.00  0.00    +0.118 HD
ATOM     18  H   UNL     1       6.487  -5.631  20.269  0.00  0.00    +0.118 HD
ENDBRANCH  15  16
ENDBRANCH  14  15
ENDBRANCH   4  14
TORSDOF 4
ENDMDL
MODEL 8
REMARK VINA RESULT:      -5.5      2.214      2.727
REMARK  Name = 
REMARK  5 active torsions:
REMARK  status: ('A' for Active; 'I' for Inactive)
REMARK    1  A    between atoms: C_1  and  C_2
REMARK    2  A    between atoms: C_6  and  C_7
REMARK    3  A    between atoms: C_10  and  C_11
REMARK    4  A    between atoms: C_11  and  C_12
REMARK    5  A    between atoms: C_12  and  N_13
REMARK                            x       y       z     vdW  Elec       q    Type
REMARK                         _______ _______ _______ _____ _____    ______ ____
ROOT
ATOM      1  C   UNL     1       7.877  -3.624  23.041  0.00  0.00    -0.015 A 
ATOM      2  C   UNL     1       7.806  -2.546  22.150  0.00  0.00    +0.009 A 
ATOM      3  C   UNL     1       8.675  -1.455  22.261  0.00  0.00    +0.004 A 
ATOM      4  C   UNL     1       9.626  -1.406  23.284  0.00  0.00    -0.046 A 
ATOM      5  C   UNL     1       9.730  -2.492  24.158  0.00  0.00    +0.004 A 
ATOM      6  C   UNL     1       8.865  -3.588  24.037  0.00  0.00    +0.009 A 
ENDROOT
BRANCH   1   9
ATOM      7  C   UNL     1       5.630  -4.773  25.256  0.00  0.00    +0.068 C 
ATOM      8  C   UNL     1       5.969  -5.248  23.890  0.00  0.00    +0.067 A 
ATOM      9  C   UNL     1       6.920  -4.724  22.960  0.00  0.00    +0.022 A 
ATOM     10  C   UNL     1       6.802  -5.561  21.868  0.00  0.00    +0.113 A 
ATOM     11  N   UNL     1       5.849  -6.483  22.181  0.00  0.00    -0.284 N 
ATOM     12  H   UNL     1       5.516  -7.255  21.615  0.00  0.00    +0.188 HD
ATOM     13  N   UNL     1       5.325  -6.315  23.400  0.00  0.00    -0.179 NA
ENDBRANCH   1   9
BRANCH   4  14
ATOM     14  C   UNL     1      10.499  -0.185  23.456  0.00  0.00    +0.050 C 
BRANCH  14  15
ATOM     15  C   UNL     1      10.539   0.326  24.899  0.00  0.00    +0.082 C 
BRANCH  15  16
ATOM     16  N   UNL     1       9.371   1.161  25.184  0.00  0.00    -0.330 NA
ATOM     17  H   UNL     1       8.868   0.776  25.983  0.00  0.00    +0.118 HD
ATOM     18  H   UNL     1       9.675   2.094  25.461  0.00  0.00    +0.118 HD
ENDBRANCH  15  16
ENDBRANCH  14  15
ENDBRANCH   4  14
TORSDOF 4
ENDMDL
MODEL 9
REMARK VINA RESULT:      -5.4      2.292      5.913
REMARK  Name = 
REMARK  5 active torsions:
REMARK  status: ('A' for Active; 'I' for Inactive)
REMARK    1  A    between atoms: C_1  and  C_2
REMARK    2  A    between atoms: C_6  and  C_7
REMARK    3  A    between atoms: C_10  and  C_11
REMARK    4  A    between atoms: C_11  and  C_12
REMARK    5  A    between atoms: C_12  and  N_13
REMARK                            x       y       z     vdW  Elec       q    Type
REMARK                         _______ _______ _______ _____ _____    ______ ____
ROOT
ATOM      1  C   UNL     1       8.571  -2.629  23.542  0.00  0.00    -0.015 A 
ATOM      2  C   UNL     1       8.706  -3.818  24.269  0.00  0.00    +0.009 A 
ATOM      3  C   UNL     1       7.881  -4.920  24.016  0.00  0.00    +0.004 A 
ATOM      4  C   UNL     1       6.882  -4.851  23.040  0.00  0.00    -0.046 A 
ATOM      5  C   UNL     1       6.762  -3.681  22.284  0.00  0.00    +0.004 A 
ATOM      6  C   UNL     1       7.597  -2.583  22.533  0.00  0.00    +0.009 A 
ENDROOT
BRANCH   1   9
ATOM      7  C   UNL     1       8.803  -0.785  26.339  0.00  0.00    +0.068 C 
ATOM      8  C   UNL     1       9.494  -0.647  25.031  0.00  0.00    +0.067 A 
ATOM      9  C   UNL     1       9.389  -1.463  23.861  0.00  0.00    +0.022 A 
ATOM     10  C   UNL     1      10.252  -0.861  22.967  0.00  0.00    +0.113 A 
ATOM     11  N   UNL     1      10.793   0.214  23.606  0.00  0.00    -0.284 N 
ATOM     12  H   UNL     1      11.460   0.887  23.243  0.00  0.00    +0.188 HD
ATOM     13  N   UNL     1      10.354   0.366  24.860  0.00  0.00    -0.179 NA
ENDBRANCH   1   9
BRANCH   4  14
ATOM     14  C   UNL     1       5.934  -6.008  22.835  0.00  0.00    +0.050 C 
BRANCH  14  15
ATOM     15  C   UNL     1       5.100  -6.329  24.078  0.00  0.00    +0.082 C 
BRANCH  15  16
ATOM     16  N   UNL     1       4.187  -7.442  23.815  0.00  0.00    -0.330 NA
ATOM     17  H   UNL     1       3.730  -7.718  24.683  0.00  0.00    +0.118 HD
ATOM     18  H   UNL     1       3.444  -7.135  23.188  0.00  0.00    +0.118 HD
ENDBRANCH  15  16
ENDBRANCH  14  15
ENDBRANCH   4  14
TORSDOF 4
ENDMDL
