MODEL 1
REMARK VINA RESULT:      -7.9      0.000      0.000
REMARK  Name = 
REMARK  5 active torsions:
REMARK  status: ('A' for Active; 'I' for Inactive)
REMARK    1  A    between atoms: C_2  and  C_5
REMARK    2  A    between atoms: C_7  and  N_8
REMARK    3  A    between atoms: N_11  and  C_12
REMARK    4  A    between atoms: C_15  and  O_16
REMARK    5  A    between atoms: O_16  and  C_17
REMARK                            x       y       z     vdW  Elec       q    Type
REMARK                         _______ _______ _______ _____ _____    ______ ____
ROOT
ATOM      1  N   UNL     1       8.632  -3.605  23.371  0.00  0.00    -0.269 N 
ATOM      2  H   UNL     1       9.556  -3.991  23.266  0.00  0.00    +0.156 HD
ATOM      3  C   UNL     1       8.530  -2.228  23.277  0.00  0.00    +0.308 C 
ATOM      4  N   UNL     1       9.749  -1.598  23.495  0.00  0.00    -0.269 N 
ATOM      5  H   UNL     1      10.314  -2.040  24.208  0.00  0.00    +0.156 HD
ATOM      6  O   UNL     1       7.491  -1.614  23.059  0.00  0.00    -0.252 OA
ENDROOT
BRANCH   1  11
ATOM      7  C   UNL     1       5.745  -5.818  24.322  0.00  0.00    +0.057 A 
ATOM      8  C   UNL     1       5.334  -6.235  23.051  0.00  0.00    +0.012 A 
ATOM      9  C   UNL     1       6.023  -5.813  21.918  0.00  0.00    +0.002 A 
ATOM     10  C   UNL     1       7.123  -4.947  22.039  0.00  0.00    +0.023 A 
ATOM     11  C   UNL     1       7.541  -4.510  23.296  0.00  0.00    +0.035 A 
ATOM     12  C   UNL     1       6.866  -4.980  24.426  0.00  0.00    +0.035 A 
BRANCH   7  14
ATOM     13  F   UNL     1       4.051  -5.333  25.967  0.00  0.00    -0.166 F 
ATOM     14  C   UNL     1       4.987  -6.235  25.559  0.00  0.00    +0.417 C 
ATOM     15  F   UNL     1       4.315  -7.408  25.381  0.00  0.00    -0.166 F 
ATOM     16  F   UNL     1       5.802  -6.432  26.631  0.00  0.00    -0.166 F 
ENDBRANCH   7  14
ENDBRANCH   1  11
BRANCH   4  17
ATOM     17  C   UNL     1       9.829  -0.185  23.419  0.00  0.00    +0.035 A 
ATOM     18  C   UNL     1       9.955   0.477  22.189  0.00  0.00    +0.027 A 
ATOM     19  C   UNL     1       9.866   1.873  22.113  0.00  0.00    +0.048 A 
ATOM     20  C   UNL     1       9.672   2.612  23.276  0.00  0.00    +0.129 A 
ATOM     21  C   UNL     1       9.590   1.952  24.508  0.00  0.00    +0.048 A 
ATOM     22  C   UNL     1       9.694   0.559  24.588  0.00  0.00    +0.027 A 
BRANCH  20  23
ATOM     23  O   UNL     1       9.398   3.957  23.328  0.00  0.00    -0.456 OA
BRANCH  23  24
ATOM     24  C   UNL     1      10.333   4.881  23.720  0.00  0.00    +0.131 A 
ATOM     25  C   UNL     1      11.682   4.841  23.388  0.00  0.00    +0.066 A 
ATOM     26  C   UNL     1      12.517   5.784  23.969  0.00  0.00    +0.114 A 
ATOM     27  N   UNL     1      12.104   6.724  24.848  0.00  0.00    -0.263 NA
ATOM     28  C   UNL     1      10.793   6.723  25.164  0.00  0.00    +0.114 A 
ATOM     29  C   UNL     1       9.879   5.832  24.631  0.00  0.00    +0.066 A 
ENDBRANCH  23  24
ENDBRANCH  20  23
ENDBRANCH   4  17
TORSDOF 5
ENDMDL
MODEL 2
REMARK VINA RESULT:      -7.5      1.172      1.926
REMARK  Name = 
REMARK  5 active torsions:
REMARK  status: ('A' for Active; 'I' for Inactive)
REMARK    1  A    between atoms: C_2  and  C_5
REMARK    2  A    between atoms: C_7  and  N_8
REMARK    3  A    between atoms: N_11  and  C_12
REMARK    4  A    between atoms: C_15  and  O_16
REMARK    5  A    between atoms: O_16  and  C_17
REMARK                            x       y       z     vdW  Elec       q    Type
REMARK                         _______ _______ _______ _____ _____    ______ ____
ROOT
ATOM      1  N   UNL     1       8.890  -3.435  24.546  0.00  0.00    -0.269 N 
ATOM      2  H   UNL     1       9.602  -3.899  24.007  0.00  0.00    +0.156 HD
ATOM      3  C   UNL     1       8.794  -2.064  24.380  0.00  0.00    +0.308 C 
ATOM      4  N   UNL     1       9.957  -1.519  23.851  0.00  0.00    -0.269 N 
ATOM      5  H   UNL     1      10.803  -1.953  24.195  0.00  0.00    +0.156 HD
ATOM      6  O   UNL     1       7.819  -1.386  24.685  0.00  0.00    -0.252 OA
ENDROOT
BRANCH   1  11
ATOM      7  C   UNL     1       5.890  -5.642  25.064  0.00  0.00    +0.057 A 
ATOM      8  C   UNL     1       6.042  -5.937  26.423  0.00  0.00    +0.012 A 
ATOM      9  C   UNL     1       7.097  -5.386  27.147  0.00  0.00    +0.002 A 
ATOM     10  C   UNL     1       8.029  -4.550  26.513  0.00  0.00    +0.023 A 
ATOM     11  C   UNL     1       7.904  -4.253  25.156  0.00  0.00    +0.035 A 
ATOM     12  C   UNL     1       6.813  -4.777  24.456  0.00  0.00    +0.035 A 
BRANCH   7  14
ATOM     13  F   UNL     1       4.424  -7.512  24.659  0.00  0.00    -0.166 F 
ATOM     14  C   UNL     1       4.776  -6.260  24.255  0.00  0.00    +0.417 C 
ATOM     15  F   UNL     1       3.631  -5.520  24.306  0.00  0.00    -0.166 F 
ATOM     16  F   UNL     1       5.088  -6.371  22.935  0.00  0.00    -0.166 F 
ENDBRANCH   7  14
ENDBRANCH   1  11
BRANCH   4  17
ATOM     17  C   UNL     1      10.024  -0.126  23.599  0.00  0.00    +0.035 A 
ATOM     18  C   UNL     1       9.928   0.389  22.298  0.00  0.00    +0.027 A 
ATOM     19  C   UNL     1       9.829   1.769  22.079  0.00  0.00    +0.048 A 
ATOM     20  C   UNL     1       9.849   2.640  23.166  0.00  0.00    +0.129 A 
ATOM     21  C   UNL     1       9.990   2.125  24.460  0.00  0.00    +0.048 A 
ATOM     22  C   UNL     1      10.104   0.748  24.680  0.00  0.00    +0.027 A 
BRANCH  20  23
ATOM     23  O   UNL     1       9.592   3.987  23.110  0.00  0.00    -0.456 OA
BRANCH  23  24
ATOM     24  C   UNL     1      10.470   4.922  23.597  0.00  0.00    +0.131 A 
ATOM     25  C   UNL     1      11.836   4.943  23.341  0.00  0.00    +0.066 A 
ATOM     26  C   UNL     1      12.603   5.884  24.012  0.00  0.00    +0.114 A 
ATOM     27  N   UNL     1      12.109   6.767  24.907  0.00  0.00    -0.263 NA
ATOM     28  C   UNL     1      10.783   6.708  25.148  0.00  0.00    +0.114 A 
ATOM     29  C   UNL     1       9.933   5.814  24.523  0.00  0.00    +0.066 A 
ENDBRANCH  23  24
ENDBRANCH  20  23
ENDBRANCH   4  17
TORSDOF 5
ENDMDL
MODEL 3
REMARK VINA RESULT:      -7.4      1.328      2.110
REMARK  Name = 
REMARK  5 active torsions:
REMARK  status: ('A' for Active; 'I' for Inactive)
REMARK    1  A    between atoms: C_2  and  C_5
REMARK    2  A    between atoms: C_7  and  N_8
REMARK    3  A    between atoms: N_11  and  C_12
REMARK    4  A    between atoms: C_15  and  O_16
REMARK    5  A    between atoms: O_16  and  C_17
REMARK                            x       y       z     vdW  Elec       q    Type
REMARK                         _______ _______ _______ _____ _____    ______ ____
ROOT
ATOM      1  N   UNL     1       8.117  -4.176  23.727  0.00  0.00    -0.269 N 
ATOM      2  H   UNL     1       8.705  -4.610  23.034  0.00  0.00    +0.156 HD
ATOM      3  C   UNL     1       8.214  -2.799  23.835  0.00  0.00    +0.308 C 
ATOM      4  N   UNL     1       9.398  -2.315  23.292  0.00  0.00    -0.269 N 
ATOM      5  H   UNL     1      10.195  -2.915  23.453  0.00  0.00    +0.156 HD
ATOM      6  O   UNL     1       7.380  -2.076  24.368  0.00  0.00    -0.252 OA
ENDROOT
BRANCH   1  11
ATOM      7  C   UNL     1       5.869  -5.936  26.173  0.00  0.00    +0.057 A 
ATOM      8  C   UNL     1       4.924  -6.469  25.289  0.00  0.00    +0.012 A 
ATOM      9  C   UNL     1       5.057  -6.270  23.917  0.00  0.00    +0.002 A 
ATOM     10  C   UNL     1       6.127  -5.514  23.412  0.00  0.00    +0.023 A 
ATOM     11  C   UNL     1       7.073  -4.964  24.277  0.00  0.00    +0.035 A 
ATOM     12  C   UNL     1       6.951  -5.212  25.647  0.00  0.00    +0.035 A 
BRANCH   7  14
ATOM     13  F   UNL     1       6.899  -6.085  28.347  0.00  0.00    -0.166 F 
ATOM     14  C   UNL     1       5.720  -6.108  27.665  0.00  0.00    +0.417 C 
ATOM     15  F   UNL     1       4.952  -5.129  28.223  0.00  0.00    -0.166 F 
ATOM     16  F   UNL     1       5.122  -7.285  27.998  0.00  0.00    -0.166 F 
ENDBRANCH   7  14
ENDBRANCH   1  11
BRANCH   4  17
ATOM     17  C   UNL     1       9.652  -0.920  23.302  0.00  0.00    +0.035 A 
ATOM     18  C   UNL     1      10.242  -0.291  24.408  0.00  0.00    +0.027 A 
ATOM     19  C   UNL     1      10.639   1.051  24.342  0.00  0.00    +0.048 A 
ATOM     20  C   UNL     1      10.424   1.774  23.171  0.00  0.00    +0.129 A 
ATOM     21  C   UNL     1       9.794   1.155  22.084  0.00  0.00    +0.048 A 
ATOM     22  C   UNL     1       9.384  -0.180  22.153  0.00  0.00    +0.027 A 
BRANCH  20  23
ATOM     23  O   UNL     1      10.911   3.031  22.911  0.00  0.00    -0.456 OA
BRANCH  23  24
ATOM     24  C   UNL     1      10.536   4.128  23.644  0.00  0.00    +0.131 A 
ATOM     25  C   UNL     1       9.276   4.327  24.196  0.00  0.00    +0.066 A 
ATOM     26  C   UNL     1       9.023   5.548  24.802  0.00  0.00    +0.114 A 
ATOM     27  N   UNL     1       9.917   6.559  24.874  0.00  0.00    -0.263 NA
ATOM     28  C   UNL     1      11.123   6.342  24.312  0.00  0.00    +0.114 A 
ATOM     29  C   UNL     1      11.475   5.156  23.694  0.00  0.00    +0.066 A 
ENDBRANCH  23  24
ENDBRANCH  20  23
ENDBRANCH   4  17
TORSDOF 5
ENDMDL
MODEL 4
REMARK VINA RESULT:      -7.4      1.576      2.064
REMARK  Name = 
REMARK  5 active torsions:
REMARK  status: ('A' for Active; 'I' for Inactive)
REMARK    1  A    between atoms: C_2  and  C_5
REMARK    2  A    between atoms: C_7  and  N_8
REMARK    3  A    between atoms: N_11  and  C_12
REMARK    4  A    between atoms: C_15  and  O_16
REMARK    5  A    between atoms: O_16  and  C_17
REMARK                            x       y       z     vdW  Elec       q    Type
REMARK                         _______ _______ _______ _____ _____    ______ ____
ROOT
ATOM      1  N   UNL     1       8.104  -3.593  22.686  0.00  0.00    -0.269 N 
ATOM      2  H   UNL     1       8.618  -3.961  21.902  0.00  0.00    +0.156 HD
ATOM      3  C   UNL     1       8.333  -2.263  22.996  0.00  0.00    +0.308 C 
ATOM      4  N   UNL     1       9.532  -1.802  22.467  0.00  0.00    -0.269 N 
ATOM      5  H   UNL     1      10.276  -2.486  22.489  0.00  0.00    +0.156 HD
ATOM      6  O   UNL     1       7.593  -1.564  23.680  0.00  0.00    -0.252 OA
ENDROOT
BRANCH   1  11
ATOM      7  C   UNL     1       5.787  -5.482  24.966  0.00  0.00    +0.057 A 
ATOM      8  C   UNL     1       4.782  -5.825  24.055  0.00  0.00    +0.012 A 
ATOM      9  C   UNL     1       4.896  -5.462  22.716  0.00  0.00    +0.002 A 
ATOM     10  C   UNL     1       6.009  -4.729  22.273  0.00  0.00    +0.023 A 
ATOM     11  C   UNL     1       7.016  -4.366  23.167  0.00  0.00    +0.035 A 
ATOM     12  C   UNL     1       6.909  -4.778  24.498  0.00  0.00    +0.035 A 
BRANCH   7  14
ATOM     13  F   UNL     1       5.146  -7.071  26.661  0.00  0.00    -0.166 F 
ATOM     14  C   UNL     1       5.663  -5.833  26.428  0.00  0.00    +0.417 C 
ATOM     15  F   UNL     1       6.867  -5.810  27.068  0.00  0.00    -0.166 F 
ATOM     16  F   UNL     1       4.864  -4.965  27.108  0.00  0.00    -0.166 F 
ENDBRANCH   7  14
ENDBRANCH   1  11
BRANCH   4  17
ATOM     17  C   UNL     1       9.915  -0.454  22.675  0.00  0.00    +0.035 A 
ATOM     18  C   UNL     1       9.636   0.542  21.727  0.00  0.00    +0.027 A 
ATOM     19  C   UNL     1       9.869   1.893  22.016  0.00  0.00    +0.048 A 
ATOM     20  C   UNL     1      10.405   2.248  23.251  0.00  0.00    +0.129 A 
ATOM     21  C   UNL     1      10.724   1.248  24.179  0.00  0.00    +0.048 A 
ATOM     22  C   UNL     1      10.506  -0.102  23.886  0.00  0.00    +0.027 A 
BRANCH  20  23
ATOM     23  O   UNL     1      10.524   3.530  23.728  0.00  0.00    -0.456 OA
BRANCH  23  24
ATOM     24  C   UNL     1       9.433   4.293  24.060  0.00  0.00    +0.131 A 
ATOM     25  C   UNL     1       8.263   3.806  24.631  0.00  0.00    +0.066 A 
ATOM     26  C   UNL     1       7.206   4.690  24.789  0.00  0.00    +0.114 A 
ATOM     27  N   UNL     1       7.239   5.987  24.408  0.00  0.00    -0.263 NA
ATOM     28  C   UNL     1       8.381   6.423  23.840  0.00  0.00    +0.114 A 
ATOM     29  C   UNL     1       9.492   5.622  23.648  0.00  0.00    +0.066 A 
ENDBRANCH  23  24
ENDBRANCH  20  23
ENDBRANCH   4  17
TORSDOF 5
ENDMDL
MODEL 5
REMARK VINA RESULT:      -7.2      5.342     10.623
REMARK  Name = 
REMARK  5 active torsions:
REMARK  status: ('A' for Active; 'I' for Inactive)
REMARK    1  A    between atoms: C_2  and  C_5
REMARK    2  A    between atoms: C_7  and  N_8
REMARK    3  A    between atoms: N_11  and  C_12
REMARK    4  A    between atoms: C_15  and  O_16
REMARK    5  A    between atoms: O_16  and  C_17
REMARK                            x       y       z     vdW  Elec       q    Type
REMARK                         _______ _______ _______ _____ _____    ______ ____
ROOT
ATOM      1  N   UNL     1       9.050   3.171  23.905  0.00  0.00    -0.269 N 
ATOM      2  H   UNL     1       8.123   3.366  23.563  0.00  0.00    +0.156 HD
ATOM      3  C   UNL     1       9.421   1.837  23.932  0.00  0.00    +0.308 C 
ATOM      4  N   UNL     1       8.323   0.988  23.905  0.00  0.00    -0.269 N 
ATOM      5  H   UNL     1       7.533   1.327  24.436  0.00  0.00    +0.156 HD
ATOM      6  O   UNL     1      10.577   1.432  24.002  0.00  0.00    -0.252 OA
ENDROOT
BRANCH   1  11
ATOM      7  C   UNL     1      11.979   5.472  23.399  0.00  0.00    +0.057 A 
ATOM      8  C   UNL     1      11.610   6.521  24.248  0.00  0.00    +0.012 A 
ATOM      9  C   UNL     1      10.433   6.441  24.990  0.00  0.00    +0.002 A 
ATOM     10  C   UNL     1       9.597   5.319  24.873  0.00  0.00    +0.023 A 
ATOM     11  C   UNL     1       9.941   4.268  24.022  0.00  0.00    +0.035 A 
ATOM     12  C   UNL     1      11.148   4.343  23.321  0.00  0.00    +0.035 A 
BRANCH   7  14
ATOM     13  F   UNL     1      13.072   5.120  21.280  0.00  0.00    -0.166 F 
ATOM     14  C   UNL     1      13.230   5.558  22.560  0.00  0.00    +0.417 C 
ATOM     15  F   UNL     1      13.696   6.835  22.457  0.00  0.00    -0.166 F 
ATOM     16  F   UNL     1      14.257   4.828  23.076  0.00  0.00    -0.166 F 
ENDBRANCH   7  14
ENDBRANCH   1  11
BRANCH   4  17
ATOM     17  C   UNL     1       8.524  -0.415  23.909  0.00  0.00    +0.035 A 
ATOM     18  C   UNL     1       8.596  -1.141  25.107  0.00  0.00    +0.027 A 
ATOM     19  C   UNL     1       8.628  -2.542  25.096  0.00  0.00    +0.048 A 
ATOM     20  C   UNL     1       8.611  -3.219  23.879  0.00  0.00    +0.129 A 
ATOM     21  C   UNL     1       8.584  -2.490  22.684  0.00  0.00    +0.048 A 
ATOM     22  C   UNL     1       8.567  -1.092  22.692  0.00  0.00    +0.027 A 
BRANCH  20  23
ATOM     23  O   UNL     1       8.467  -4.576  23.726  0.00  0.00    -0.456 OA
BRANCH  23  24
ATOM     24  C   UNL     1       7.344  -5.136  23.171  0.00  0.00    +0.131 A 
ATOM     25  C   UNL     1       7.234  -5.564  21.853  0.00  0.00    +0.066 A 
ATOM     26  C   UNL     1       5.989  -5.992  21.417  0.00  0.00    +0.114 A 
ATOM     27  N   UNL     1       4.878  -6.002  22.186  0.00  0.00    -0.263 NA
ATOM     28  C   UNL     1       5.014  -5.562  23.453  0.00  0.00    +0.114 A 
ATOM     29  C   UNL     1       6.213  -5.125  23.985  0.00  0.00    +0.066 A 
ENDBRANCH  23  24
ENDBRANCH  20  23
ENDBRANCH   4  17
TORSDOF 5
ENDMDL
MODEL 6
REMARK VINA RESULT:      -7.1      5.224     10.173
REMARK  Name = 
REMARK  5 active torsions:
REMARK  status: ('A' for Active; 'I' for Inactive)
REMARK    1  A    between atoms: C_2  and  C_5
REMARK    2  A    between atoms: C_7  and  N_8
REMARK    3  A    between atoms: N_11  and  C_12
REMARK    4  A    between atoms: C_15  and  O_16
REMARK    5  A    between atoms: O_16  and  C_17
REMARK                            x       y       z     vdW  Elec       q    Type
REMARK                         _______ _______ _______ _____ _____    ______ ____
ROOT
ATOM      1  N   UNL     1       9.772   1.117  22.607  0.00  0.00    -0.269 N 
ATOM      2  H   UNL     1      10.196   0.920  21.716  0.00  0.00    +0.156 HD
ATOM      3  C   UNL     1       9.421   0.019  23.374  0.00  0.00    +0.308 C 
ATOM      4  N   UNL     1       9.309  -1.136  22.611  0.00  0.00    -0.269 N 
ATOM      5  H   UNL     1       8.910  -0.982  21.695  0.00  0.00    +0.156 HD
ATOM      6  O   UNL     1       9.201   0.046  24.580  0.00  0.00    -0.252 OA
ENDROOT
BRANCH   1  11
ATOM      7  C   UNL     1      11.116   4.506  23.525  0.00  0.00    +0.057 A 
ATOM      8  C   UNL     1       9.940   5.118  23.973  0.00  0.00    +0.012 A 
ATOM      9  C   UNL     1       8.744   4.404  23.997  0.00  0.00    +0.002 A 
ATOM     10  C   UNL     1       8.705   3.073  23.549  0.00  0.00    +0.023 A 
ATOM     11  C   UNL     1       9.864   2.450  23.087  0.00  0.00    +0.035 A 
ATOM     12  C   UNL     1      11.064   3.165  23.113  0.00  0.00    +0.035 A 
BRANCH   7  14
ATOM     13  F   UNL     1      13.526   4.491  23.477  0.00  0.00    -0.166 F 
ATOM     14  C   UNL     1      12.413   5.275  23.456  0.00  0.00    +0.417 C 
ATOM     15  F   UNL     1      12.510   6.022  22.318  0.00  0.00    -0.166 F 
ATOM     16  F   UNL     1      12.558   6.151  24.488  0.00  0.00    -0.166 F 
ENDBRANCH   7  14
ENDBRANCH   1  11
BRANCH   4  17
ATOM     17  C   UNL     1       8.973  -2.360  23.242  0.00  0.00    +0.035 A 
ATOM     18  C   UNL     1       9.858  -2.999  24.122  0.00  0.00    +0.027 A 
ATOM     19  C   UNL     1       9.452  -4.115  24.864  0.00  0.00    +0.048 A 
ATOM     20  C   UNL     1       8.159  -4.609  24.708  0.00  0.00    +0.129 A 
ATOM     21  C   UNL     1       7.291  -3.997  23.796  0.00  0.00    +0.048 A 
ATOM     22  C   UNL     1       7.700  -2.891  23.043  0.00  0.00    +0.027 A 
BRANCH  20  23
ATOM     23  O   UNL     1       7.579  -5.579  25.488  0.00  0.00    -0.456 OA
BRANCH  23  24
ATOM     24  C   UNL     1       6.488  -5.327  26.280  0.00  0.00    +0.131 A 
ATOM     25  C   UNL     1       6.461  -4.423  27.336  0.00  0.00    +0.066 A 
ATOM     26  C   UNL     1       5.315  -4.378  28.116  0.00  0.00    +0.114 A 
ATOM     27  N   UNL     1       4.235  -5.167  27.924  0.00  0.00    -0.263 NA
ATOM     28  C   UNL     1       4.301  -6.047  26.904  0.00  0.00    +0.114 A 
ATOM     29  C   UNL     1       5.393  -6.161  26.064  0.00  0.00    +0.066 A 
ENDBRANCH  23  24
ENDBRANCH  20  23
ENDBRANCH   4  17
TORSDOF 5
ENDMDL
MODEL 7
REMARK VINA RESULT:      -7.1      2.295      3.236
REMARK  Name = 
REMARK  5 active torsions:
REMARK  status: ('A' for Active; 'I' for Inactive)
REMARK    1  A    between atoms: C_2  and  C_5
REMARK    2  A    between atoms: C_7  and  N_8
REMARK    3  A    between atoms: N_11  and  C_12
REMARK    4  A    between atoms: C_15  and  O_16
REMARK    5  A    between atoms: O_16  and  C_17
REMARK                            x       y       z     vdW  Elec       q    Type
REMARK                         _______ _______ _______ _____ _____    ______ ____
ROOT
ATOM      1  N   UNL     1       8.189  -4.741  25.105  0.00  0.00    -0.269 N 
ATOM      2  H   UNL     1       8.817  -5.406  24.683  0.00  0.00    +0.156 HD
ATOM      3  C   UNL     1       8.290  -3.436  24.655  0.00  0.00    +0.308 C 
ATOM      4  N   UNL     1       9.510  -3.188  24.038  0.00  0.00    -0.269 N 
ATOM      5  H   UNL     1      10.290  -3.658  24.476  0.00  0.00    +0.156 HD
ATOM      6  O   UNL     1       7.429  -2.575  24.799  0.00  0.00    -0.252 OA
ENDROOT
BRANCH   1  11
ATOM      7  C   UNL     1       4.865  -6.229  26.037  0.00  0.00    +0.057 A 
ATOM      8  C   UNL     1       5.041  -6.364  27.418  0.00  0.00    +0.012 A 
ATOM      9  C   UNL     1       6.224  -5.940  28.018  0.00  0.00    +0.002 A 
ATOM     10  C   UNL     1       7.257  -5.394  27.239  0.00  0.00    +0.023 A 
ATOM     11  C   UNL     1       7.106  -5.261  25.859  0.00  0.00    +0.035 A 
ATOM     12  C   UNL     1       5.895  -5.649  25.279  0.00  0.00    +0.035 A 
BRANCH   7  14
ATOM     13  F   UNL     1       3.550  -8.070  25.205  0.00  0.00    -0.166 F 
ATOM     14  C   UNL     1       3.606  -6.718  25.364  0.00  0.00    +0.417 C 
ATOM     15  F   UNL     1       2.484  -6.382  26.062  0.00  0.00    -0.166 F 
ATOM     16  F   UNL     1       3.440  -6.192  24.119  0.00  0.00    -0.166 F 
ENDBRANCH   7  14
ENDBRANCH   1  11
BRANCH   4  17
ATOM     17  C   UNL     1       9.774  -1.903  23.502  0.00  0.00    +0.035 A 
ATOM     18  C   UNL     1       9.561  -1.617  22.145  0.00  0.00    +0.027 A 
ATOM     19  C   UNL     1       9.667  -0.306  21.664  0.00  0.00    +0.048 A 
ATOM     20  C   UNL     1      10.008   0.722  22.539  0.00  0.00    +0.129 A 
ATOM     21  C   UNL     1      10.263   0.426  23.884  0.00  0.00    +0.048 A 
ATOM     22  C   UNL     1      10.174  -0.885  24.364  0.00  0.00    +0.027 A 
BRANCH  20  23
ATOM     23  O   UNL     1       9.980   2.062  22.243  0.00  0.00    -0.456 OA
BRANCH  23  24
ATOM     24  C   UNL     1       8.939   2.874  22.620  0.00  0.00    +0.131 A 
ATOM     25  C   UNL     1       7.680   2.881  22.032  0.00  0.00    +0.066 A 
ATOM     26  C   UNL     1       6.780   3.851  22.448  0.00  0.00    +0.114 A 
ATOM     27  N   UNL     1       7.057   4.795  23.374  0.00  0.00    -0.263 NA
ATOM     28  C   UNL     1       8.293   4.773  23.911  0.00  0.00    +0.114 A 
ATOM     29  C   UNL     1       9.257   3.842  23.570  0.00  0.00    +0.066 A 
ENDBRANCH  23  24
ENDBRANCH  20  23
ENDBRANCH   4  17
TORSDOF 5
ENDMDL
MODEL 8
REMARK VINA RESULT:      -7.0      1.909      2.532
REMARK  Name = 
REMARK  5 active torsions:
REMARK  status: ('A' for Active; 'I' for Inactive)
REMARK    1  A    between atoms: C_2  and  C_5
REMARK    2  A    between atoms: C_7  and  N_8
REMARK    3  A    between atoms: N_11  and  C_12
REMARK    4  A    between atoms: C_15  and  O_16
REMARK    5  A    between atoms: O_16  and  C_17
REMARK                            x       y       z     vdW  Elec       q    Type
REMARK                         _______ _______ _______ _____ _____    ______ ____
ROOT
ATOM      1  N   UNL     1       8.817  -3.551  23.931  0.00  0.00    -0.269 N 
ATOM      2  H   UNL     1       9.419  -4.016  23.272  0.00  0.00    +0.156 HD
ATOM      3  C   UNL     1       8.857  -2.167  23.922  0.00  0.00    +0.308 C 
ATOM      4  N   UNL     1      10.017  -1.681  23.333  0.00  0.00    -0.269 N 
ATOM      5  H   UNL     1      10.839  -2.232  23.537  0.00  0.00    +0.156 HD
ATOM      6  O   UNL     1       7.995  -1.437  24.401  0.00  0.00    -0.252 OA
ENDROOT
BRANCH   1  11
ATOM      7  C   UNL     1       5.700  -5.572  24.503  0.00  0.00    +0.057 A 
ATOM      8  C   UNL     1       5.904  -5.957  25.833  0.00  0.00    +0.012 A 
ATOM      9  C   UNL     1       7.034  -5.524  26.522  0.00  0.00    +0.002 A 
ATOM     10  C   UNL     1       7.988  -4.717  25.881  0.00  0.00    +0.023 A 
ATOM     11  C   UNL     1       7.810  -4.333  24.552  0.00  0.00    +0.035 A 
ATOM     12  C   UNL     1       6.647  -4.738  23.890  0.00  0.00    +0.035 A 
BRANCH   7  14
ATOM     13  F   UNL     1       4.677  -6.073  22.378  0.00  0.00    -0.166 F 
ATOM     14  C   UNL     1       4.501  -6.063  23.729  0.00  0.00    +0.417 C 
ATOM     15  F   UNL     1       4.157  -7.340  24.065  0.00  0.00    -0.166 F 
ATOM     16  F   UNL     1       3.390  -5.309  23.951  0.00  0.00    -0.166 F 
ENDBRANCH   7  14
ENDBRANCH   1  11
BRANCH   4  17
ATOM     17  C   UNL     1      10.212  -0.281  23.225  0.00  0.00    +0.035 A 
ATOM     18  C   UNL     1       9.796   0.432  22.091  0.00  0.00    +0.027 A 
ATOM     19  C   UNL     1       9.844   1.832  22.067  0.00  0.00    +0.048 A 
ATOM     20  C   UNL     1      10.331   2.521  23.174  0.00  0.00    +0.129 A 
ATOM     21  C   UNL     1      10.786   1.805  24.288  0.00  0.00    +0.048 A 
ATOM     22  C   UNL     1      10.754   0.407  24.308  0.00  0.00    +0.027 A 
BRANCH  20  23
ATOM     23  O   UNL     1      10.275   3.882  23.352  0.00  0.00    -0.456 OA
BRANCH  23  24
ATOM     24  C   UNL     1       9.123   4.525  23.730  0.00  0.00    +0.131 A 
ATOM     25  C   UNL     1       8.494   5.529  23.004  0.00  0.00    +0.066 A 
ATOM     26  C   UNL     1       7.407   6.162  23.587  0.00  0.00    +0.114 A 
ATOM     27  N   UNL     1       6.934   5.875  24.820  0.00  0.00    -0.263 NA
ATOM     28  C   UNL     1       7.578   4.910  25.507  0.00  0.00    +0.114 A 
ATOM     29  C   UNL     1       8.665   4.214  25.009  0.00  0.00    +0.066 A 
ENDBRANCH  23  24
ENDBRANCH  20  23
ENDBRANCH   4  17
TORSDOF 5
ENDMDL
MODEL 9
REMARK VINA RESULT:      -7.0      2.328      2.934
REMARK  Name = 
REMARK  5 active torsions:
REMARK  status: ('A' for Active; 'I' for Inactive)
REMARK    1  A    between atoms: C_2  and  C_5
REMARK    2  A    between atoms: C_7  and  N_8
REMARK    3  A    between atoms: N_11  and  C_12
REMARK    4  A    between atoms: C_15  and  O_16
REMARK    5  A    between atoms: O_16  and  C_17
REMARK                            x       y       z     vdW  Elec       q    Type
REMARK                         _______ _______ _______ _____ _____    ______ ____
ROOT
ATOM      1  N   UNL     1       8.199  -4.531  24.642  0.00  0.00    -0.269 N 
ATOM      2  H   UNL     1       8.880  -5.128  24.201  0.00  0.00    +0.156 HD
ATOM      3  C   UNL     1       8.298  -3.180  24.360  0.00  0.00    +0.308 C 
ATOM      4  N   UNL     1       9.557  -2.835  23.886  0.00  0.00    -0.269 N 
ATOM      5  H   UNL     1      10.311  -3.339  24.331  0.00  0.00    +0.156 HD
ATOM      6  O   UNL     1       7.401  -2.360  24.530  0.00  0.00    -0.252 OA
ENDROOT
BRANCH   1  11
ATOM      7  C   UNL     1       5.826  -5.982  27.172  0.00  0.00    +0.057 A 
ATOM      8  C   UNL     1       4.765  -6.335  26.330  0.00  0.00    +0.012 A 
ATOM      9  C   UNL     1       4.859  -6.124  24.957  0.00  0.00    +0.002 A 
ATOM     10  C   UNL     1       6.009  -5.532  24.409  0.00  0.00    +0.023 A 
ATOM     11  C   UNL     1       7.073  -5.161  25.232  0.00  0.00    +0.035 A 
ATOM     12  C   UNL     1       6.981  -5.423  26.602  0.00  0.00    +0.035 A 
BRANCH   7  14
ATOM     13  F   UNL     1       5.471  -5.021  29.354  0.00  0.00    -0.166 F 
ATOM     14  C   UNL     1       5.727  -6.168  28.666  0.00  0.00    +0.417 C 
ATOM     15  F   UNL     1       4.733  -7.035  29.012  0.00  0.00    -0.166 F 
ATOM     16  F   UNL     1       6.868  -6.677  29.206  0.00  0.00    -0.166 F 
ENDBRANCH   7  14
ENDBRANCH   1  11
BRANCH   4  17
ATOM     17  C   UNL     1       9.826  -1.490  23.531  0.00  0.00    +0.035 A 
ATOM     18  C   UNL     1       9.733  -1.050  22.202  0.00  0.00    +0.027 A 
ATOM     19  C   UNL     1       9.839   0.311  21.888  0.00  0.00    +0.048 A 
ATOM     20  C   UNL     1      10.060   1.235  22.906  0.00  0.00    +0.129 A 
ATOM     21  C   UNL     1      10.196   0.788  24.227  0.00  0.00    +0.048 A 
ATOM     22  C   UNL     1      10.107  -0.572  24.540  0.00  0.00    +0.027 A 
BRANCH  20  23
ATOM     23  O   UNL     1      10.013   2.600  22.766  0.00  0.00    -0.456 OA
BRANCH  23  24
ATOM     24  C   UNL     1       8.973   3.352  23.253  0.00  0.00    +0.131 A 
ATOM     25  C   UNL     1       9.023   4.137  24.398  0.00  0.00    +0.066 A 
ATOM     26  C   UNL     1       7.846   4.736  24.822  0.00  0.00    +0.114 A 
ATOM     27  N   UNL     1       6.655   4.589  24.202  0.00  0.00    -0.263 NA
ATOM     28  C   UNL     1       6.635   3.805  23.105  0.00  0.00    +0.114 A 
ATOM     29  C   UNL     1       7.756   3.173  22.598  0.00  0.00    +0.066 A 
ENDBRANCH  23  24
ENDBRANCH  20  23
ENDBRANCH   4  17
TORSDOF 5
ENDMDL
