MODEL 1
REMARK VINA RESULT:      -4.7      0.000      0.000
REMARK  Name = 
REMARK  5 active torsions:
REMARK  status: ('A' for Active; 'I' for Inactive)
REMARK    1  A    between atoms: O_1  and  C_2
REMARK    2  A    between atoms: C_2  and  C_4
REMARK    3  A    between atoms: C_4  and  C_5
REMARK    4  A    between atoms: CA_9  and  C_12
REMARK    5  A    between atoms: C_12  and  O_13
REMARK                            x       y       z     vdW  Elec       q    Type
REMARK                         _______ _______ _______ _____ _____    ______ ____
ROOT
ATOM      1  C   UNL     1       9.510  -0.375  24.263  0.00  0.00    +0.065 C 
ATOM      2  N   UNL     1       8.475   0.262  23.416  0.00  0.00    -0.301 NA
ATOM      3  H   UNL     1       7.554  -0.013  23.785  0.00  0.00    +0.123 HD
ATOM      4  CA  UNL     1       8.621   1.745  23.645  0.00  0.00    +0.164 C 
ATOM      5  C   UNL     1       9.981   1.955  24.298  0.00  0.00    +0.031 C 
ATOM      6  C   UNL     1      10.669   0.608  24.178  0.00  0.00    +0.021 C 
ENDROOT
BRANCH   4   7
ATOM      7  C   UNL     1       8.530   2.464  22.291  0.00  0.00    +0.322 C 
ATOM      8  OXT UNL     1       7.703   3.313  21.999  0.00  0.00    -0.249 OA
BRANCH   7   9
ATOM      9  O   UNL     1       9.501   2.045  21.441  0.00  0.00    -0.480 OA
ATOM     10  H   UNL     1       9.440   1.060  21.448  0.00  0.00    +0.295 HD
ENDBRANCH   7   9
ENDBRANCH   4   7
BRANCH   1  11
ATOM     11  C   UNL     1       9.897  -1.763  23.772  0.00  0.00    +0.139 C 
BRANCH  11  12
ATOM     12  C   UNL     1       9.336  -2.012  22.398  0.00  0.00    +0.306 C 
ATOM     13  O   UNL     1       8.256  -2.542  22.188  0.00  0.00    -0.251 OA
BRANCH  12  14
ATOM     14  O   UNL     1      10.118  -1.534  21.405  0.00  0.00    -0.481 OA
ATOM     15  H   UNL     1       9.800  -0.687  21.035  0.00  0.00    +0.295 HD
ENDBRANCH  12  14
ENDBRANCH  11  12
ENDBRANCH   1  11
TORSDOF 5
ENDMDL
MODEL 2
REMARK VINA RESULT:      -4.6      2.362      4.005
REMARK  Name = 
REMARK  5 active torsions:
REMARK  status: ('A' for Active; 'I' for Inactive)
REMARK    1  A    between atoms: O_1  and  C_2
REMARK    2  A    between atoms: C_2  and  C_4
REMARK    3  A    between atoms: C_4  and  C_5
REMARK    4  A    between atoms: CA_9  and  C_12
REMARK    5  A    between atoms: C_12  and  O_13
REMARK                            x       y       z     vdW  Elec       q    Type
REMARK                         _______ _______ _______ _____ _____    ______ ____
ROOT
ATOM      1  C   UNL     1       8.975  -0.922  22.379  0.00  0.00    +0.065 C 
ATOM      2  N   UNL     1       8.457  -0.266  23.603  0.00  0.00    -0.301 NA
ATOM      3  H   UNL     1       7.452  -0.096  23.467  0.00  0.00    +0.123 HD
ATOM      4  CA  UNL     1       8.591  -1.293  24.700  0.00  0.00    +0.164 C 
ATOM      5  C   UNL     1       9.541  -2.365  24.182  0.00  0.00    +0.031 C 
ATOM      6  C   UNL     1      10.118  -1.774  22.909  0.00  0.00    +0.021 C 
ENDROOT
BRANCH   4   7
ATOM      7  C   UNL     1       9.148  -0.605  25.954  0.00  0.00    +0.322 C 
ATOM      8  OXT UNL     1       8.906  -0.934  27.104  0.00  0.00    -0.249 OA
BRANCH   7   9
ATOM      9  O   UNL     1       9.967   0.428  25.631  0.00  0.00    -0.480 OA
ATOM     10  H   UNL     1       9.408   1.039  25.094  0.00  0.00    +0.295 HD
ENDBRANCH   7   9
ENDBRANCH   4   7
BRANCH   1  11
ATOM     11  C   UNL     1       9.440   0.078  21.331  0.00  0.00    +0.139 C 
BRANCH  11  12
ATOM     12  C   UNL     1       9.635   1.437  21.946  0.00  0.00    +0.306 C 
ATOM     13  O   UNL     1      10.494   1.694  22.775  0.00  0.00    -0.251 OA
BRANCH  12  14
ATOM     14  O   UNL     1       8.802   2.377  21.445  0.00  0.00    -0.481 OA
ATOM     15  H   UNL     1       8.067   2.003  20.920  0.00  0.00    +0.295 HD
ENDBRANCH  12  14
ENDBRANCH  11  12
ENDBRANCH   1  11
TORSDOF 5
ENDMDL
MODEL 3
REMARK VINA RESULT:      -4.6      1.911      4.305
REMARK  Name = 
REMARK  5 active torsions:
REMARK  status: ('A' for Active; 'I' for Inactive)
REMARK    1  A    between atoms: O_1  and  C_2
REMARK    2  A    between atoms: C_2  and  C_4
REMARK    3  A    between atoms: C_4  and  C_5
REMARK    4  A    between atoms: CA_9  and  C_12
REMARK    5  A    between atoms: C_12  and  O_13
REMARK                            x       y       z     vdW  Elec       q    Type
REMARK                         _______ _______ _______ _____ _____    ______ ____
ROOT
ATOM      1  C   UNL     1       7.845   0.172  23.590  0.00  0.00    +0.065 C 
ATOM      2  N   UNL     1       9.168  -0.431  23.872  0.00  0.00    -0.301 NA
ATOM      3  H   UNL     1       9.656   0.180  24.541  0.00  0.00    +0.123 HD
ATOM      4  CA  UNL     1       8.879  -1.729  24.584  0.00  0.00    +0.164 C 
ATOM      5  C   UNL     1       7.407  -2.040  24.344  0.00  0.00    +0.031 C 
ATOM      6  C   UNL     1       6.978  -1.041  23.286  0.00  0.00    +0.021 C 
ENDROOT
BRANCH   4   7
ATOM      7  C   UNL     1       9.787  -2.823  24.004  0.00  0.00    +0.322 C 
ATOM      8  OXT UNL     1       9.914  -3.948  24.461  0.00  0.00    -0.249 OA
BRANCH   7   9
ATOM      9  O   UNL     1      10.439  -2.390  22.895  0.00  0.00    -0.480 OA
ATOM     10  H   UNL     1      10.907  -3.185  22.546  0.00  0.00    +0.295 HD
ENDBRANCH   7   9
ENDBRANCH   4   7
BRANCH   1  11
ATOM     11  C   UNL     1       7.884   1.156  22.430  0.00  0.00    +0.139 C 
BRANCH  11  12
ATOM     12  C   UNL     1       9.145   0.979  21.630  0.00  0.00    +0.306 C 
ATOM     13  O   UNL     1       9.474  -0.070  21.098  0.00  0.00    -0.251 OA
BRANCH  12  14
ATOM     14  O   UNL     1       9.860   2.119  21.497  0.00  0.00    -0.481 OA
ATOM     15  H   UNL     1       9.305   2.909  21.345  0.00  0.00    +0.295 HD
ENDBRANCH  12  14
ENDBRANCH  11  12
ENDBRANCH   1  11
TORSDOF 5
ENDMDL
MODEL 4
REMARK VINA RESULT:      -4.5      5.423      6.326
REMARK  Name = 
REMARK  5 active torsions:
REMARK  status: ('A' for Active; 'I' for Inactive)
REMARK    1  A    between atoms: O_1  and  C_2
REMARK    2  A    between atoms: C_2  and  C_4
REMARK    3  A    between atoms: C_4  and  C_5
REMARK    4  A    between atoms: CA_9  and  C_12
REMARK    5  A    between atoms: C_12  and  O_13
REMARK                            x       y       z     vdW  Elec       q    Type
REMARK                         _______ _______ _______ _____ _____    ______ ____
ROOT
ATOM      1  C   UNL     1       7.840  -3.565  24.000  0.00  0.00    +0.065 C 
ATOM      2  N   UNL     1       7.155  -4.851  23.729  0.00  0.00    -0.301 NA
ATOM      3  H   UNL     1       6.676  -5.140  24.592  0.00  0.00    +0.123 HD
ATOM      4  CA  UNL     1       6.086  -4.534  22.713  0.00  0.00    +0.164 C 
ATOM      5  C   UNL     1       6.433  -3.172  22.124  0.00  0.00    +0.031 C 
ATOM      6  C   UNL     1       7.831  -2.883  22.640  0.00  0.00    +0.021 C 
ENDROOT
BRANCH   4   7
ATOM      7  C   UNL     1       6.089  -5.629  21.637  0.00  0.00    +0.322 C 
ATOM      8  OXT UNL     1       5.988  -5.437  20.435  0.00  0.00    -0.249 OA
BRANCH   7   9
ATOM      9  O   UNL     1       6.228  -6.863  22.185  0.00  0.00    -0.480 OA
ATOM     10  H   UNL     1       5.332  -7.271  22.128  0.00  0.00    +0.295 HD
ENDBRANCH   7   9
ENDBRANCH   4   7
BRANCH   1  11
ATOM     11  C   UNL     1       9.250  -3.756  24.539  0.00  0.00    +0.139 C 
BRANCH  11  12
ATOM     12  C   UNL     1       9.283  -4.862  25.557  0.00  0.00    +0.306 C 
ATOM     13  O   UNL     1       8.739  -4.801  26.648  0.00  0.00    -0.251 OA
BRANCH  12  14
ATOM     14  O   UNL     1       9.924  -5.971  25.123  0.00  0.00    -0.481 OA
ATOM     15  H   UNL     1      10.298  -5.876  24.225  0.00  0.00    +0.295 HD
ENDBRANCH  12  14
ENDBRANCH  11  12
ENDBRANCH   1  11
TORSDOF 5
ENDMDL
MODEL 5
REMARK VINA RESULT:      -4.5      2.070      2.578
REMARK  Name = 
REMARK  5 active torsions:
REMARK  status: ('A' for Active; 'I' for Inactive)
REMARK    1  A    between atoms: O_1  and  C_2
REMARK    2  A    between atoms: C_2  and  C_4
REMARK    3  A    between atoms: C_4  and  C_5
REMARK    4  A    between atoms: CA_9  and  C_12
REMARK    5  A    between atoms: C_12  and  O_13
REMARK                            x       y       z     vdW  Elec       q    Type
REMARK                         _______ _______ _______ _____ _____    ______ ____
ROOT
ATOM      1  C   UNL     1      10.047  -0.492  22.130  0.00  0.00    +0.065 C 
ATOM      2  N   UNL     1      10.215   0.011  23.514  0.00  0.00    -0.301 NA
ATOM      3  H   UNL     1      11.115  -0.339  23.868  0.00  0.00    +0.123 HD
ATOM      4  CA  UNL     1      10.337   1.509  23.388  0.00  0.00    +0.164 C 
ATOM      5  C   UNL     1       9.841   1.872  21.994  0.00  0.00    +0.031 C 
ATOM      6  C   UNL     1       9.208   0.594  21.474  0.00  0.00    +0.021 C 
ENDROOT
BRANCH   4   7
ATOM      7  C   UNL     1       9.482   2.167  24.480  0.00  0.00    +0.322 C 
ATOM      8  OXT UNL     1       9.161   3.344  24.508  0.00  0.00    -0.249 OA
BRANCH   7   9
ATOM      9  O   UNL     1       9.108   1.269  25.426  0.00  0.00    -0.480 OA
ATOM     10  H   UNL     1       9.336   1.694  26.286  0.00  0.00    +0.295 HD
ENDBRANCH   7   9
ENDBRANCH   4   7
BRANCH   1  11
ATOM     11  C   UNL     1       9.366  -1.853  22.081  0.00  0.00    +0.139 C 
BRANCH  11  12
ATOM     12  C   UNL     1       9.268  -2.446  23.459  0.00  0.00    +0.306 C 
ATOM     13  O   UNL     1      10.136  -3.138  23.967  0.00  0.00    -0.251 OA
BRANCH  12  14
ATOM     14  O   UNL     1       8.144  -2.085  24.119  0.00  0.00    -0.481 OA
ATOM     15  H   UNL     1       8.155  -2.330  25.065  0.00  0.00    +0.295 HD
ENDBRANCH  12  14
ENDBRANCH  11  12
ENDBRANCH   1  11
TORSDOF 5
ENDMDL
MODEL 6
REMARK VINA RESULT:      -4.5      1.420      1.905
REMARK  Name = 
REMARK  5 active torsions:
REMARK  status: ('A' for Active; 'I' for Inactive)
REMARK    1  A    between atoms: O_1  and  C_2
REMARK    2  A    between atoms: C_2  and  C_4
REMARK    3  A    between atoms: C_4  and  C_5
REMARK    4  A    between atoms: CA_9  and  C_12
REMARK    5  A    between atoms: C_12  and  O_13
REMARK                            x       y       z     vdW  Elec       q    Type
REMARK                         _______ _______ _______ _____ _____    ______ ____
ROOT
ATOM      1  C   UNL     1       8.863  -0.356  25.051  0.00  0.00    +0.065 C 
ATOM      2  N   UNL     1       8.380  -0.018  23.692  0.00  0.00    -0.301 NA
ATOM      3  H   UNL     1       7.372   0.176  23.756  0.00  0.00    +0.123 HD
ATOM      4  CA  UNL     1       9.060   1.279  23.331  0.00  0.00    +0.164 C 
ATOM      5  C   UNL     1      10.215   1.454  24.309  0.00  0.00    +0.031 C 
ATOM      6  C   UNL     1      10.308   0.119  25.025  0.00  0.00    +0.021 C 
ENDROOT
BRANCH   4   7
ATOM      7  C   UNL     1       9.559   1.187  21.882  0.00  0.00    +0.322 C 
ATOM      8  OXT UNL     1       9.372   0.243  21.131  0.00  0.00    -0.249 OA
BRANCH   7   9
ATOM      9  O   UNL     1      10.239   2.305  21.520  0.00  0.00    -0.480 OA
ATOM     10  H   UNL     1      10.922   1.993  20.880  0.00  0.00    +0.295 HD
ENDBRANCH   7   9
ENDBRANCH   4   7
BRANCH   1  11
ATOM     11  C   UNL     1       8.751  -1.841  25.361  0.00  0.00    +0.139 C 
BRANCH  11  12
ATOM     12  C   UNL     1       9.107  -2.661  24.151  0.00  0.00    +0.306 C 
ATOM     13  O   UNL     1      10.184  -3.213  23.993  0.00  0.00    -0.251 OA
BRANCH  12  14
ATOM     14  O   UNL     1       8.088  -2.787  23.270  0.00  0.00    -0.481 OA
ATOM     15  H   UNL     1       7.225  -2.507  23.634  0.00  0.00    +0.295 HD
ENDBRANCH  12  14
ENDBRANCH  11  12
ENDBRANCH   1  11
TORSDOF 5
ENDMDL
MODEL 7
REMARK VINA RESULT:      -4.5      2.133      4.717
REMARK  Name = 
REMARK  5 active torsions:
REMARK  status: ('A' for Active; 'I' for Inactive)
REMARK    1  A    between atoms: O_1  and  C_2
REMARK    2  A    between atoms: C_2  and  C_4
REMARK    3  A    between atoms: C_4  and  C_5
REMARK    4  A    between atoms: CA_9  and  C_12
REMARK    5  A    between atoms: C_12  and  O_13
REMARK                            x       y       z     vdW  Elec       q    Type
REMARK                         _______ _______ _______ _____ _____    ______ ____
ROOT
ATOM      1  C   UNL     1       9.102   3.883  23.885  0.00  0.00    +0.065 C 
ATOM      2  N   UNL     1       9.591   3.295  22.616  0.00  0.00    -0.301 NA
ATOM      3  H   UNL     1      10.368   3.879  22.278  0.00  0.00    +0.123 HD
ATOM      4  CA  UNL     1      10.172   1.954  22.988  0.00  0.00    +0.164 C 
ATOM      5  C   UNL     1       9.651   1.624  24.381  0.00  0.00    +0.031 C 
ATOM      6  C   UNL     1       8.583   2.670  24.642  0.00  0.00    +0.021 C 
ENDROOT
BRANCH   4   7
ATOM      7  C   UNL     1       9.714   0.915  21.955  0.00  0.00    +0.322 C 
ATOM      8  OXT UNL     1      10.080  -0.249  21.917  0.00  0.00    -0.249 OA
BRANCH   7   9
ATOM      9  O   UNL     1       8.829   1.447  21.074  0.00  0.00    -0.480 OA
ATOM     10  H   UNL     1       8.949   0.926  20.244  0.00  0.00    +0.295 HD
ENDBRANCH   7   9
ENDBRANCH   4   7
BRANCH   1  11
ATOM     11  C   UNL     1       8.020   4.930  23.667  0.00  0.00    +0.139 C 
BRANCH  11  12
ATOM     12  C   UNL     1       7.418   4.790  22.295  0.00  0.00    +0.306 C 
ATOM     13  O   UNL     1       6.768   3.823  21.931  0.00  0.00    -0.251 OA
BRANCH  12  14
ATOM     14  O   UNL     1       7.610   5.876  21.513  0.00  0.00    -0.481 OA
ATOM     15  H   UNL     1       7.768   6.697  22.020  0.00  0.00    +0.295 HD
ENDBRANCH  12  14
ENDBRANCH  11  12
ENDBRANCH   1  11
TORSDOF 5
ENDMDL
MODEL 8
REMARK VINA RESULT:      -4.4      3.236      5.848
REMARK  Name = 
REMARK  5 active torsions:
REMARK  status: ('A' for Active; 'I' for Inactive)
REMARK    1  A    between atoms: O_1  and  C_2
REMARK    2  A    between atoms: C_2  and  C_4
REMARK    3  A    between atoms: C_4  and  C_5
REMARK    4  A    between atoms: CA_9  and  C_12
REMARK    5  A    between atoms: C_12  and  O_13
REMARK                            x       y       z     vdW  Elec       q    Type
REMARK                         _______ _______ _______ _____ _____    ______ ____
ROOT
ATOM      1  C   UNL     1       7.384  -2.541  23.460  0.00  0.00    +0.065 C 
ATOM      2  N   UNL     1       7.927  -2.998  24.761  0.00  0.00    -0.301 NA
ATOM      3  H   UNL     1       7.466  -2.454  25.503  0.00  0.00    +0.123 HD
ATOM      4  CA  UNL     1       7.472  -4.428  24.910  0.00  0.00    +0.164 C 
ATOM      5  C   UNL     1       7.024  -4.890  23.530  0.00  0.00    +0.031 C 
ATOM      6  C   UNL     1       7.486  -3.788  22.594  0.00  0.00    +0.021 C 
ENDROOT
BRANCH   4   7
ATOM      7  C   UNL     1       8.648  -5.268  25.430  0.00  0.00    +0.322 C 
ATOM      8  OXT UNL     1       9.719  -5.408  24.861  0.00  0.00    -0.249 OA
BRANCH   7   9
ATOM      9  O   UNL     1       8.357  -5.842  26.625  0.00  0.00    -0.480 OA
ATOM     10  H   UNL     1       8.430  -6.813  26.467  0.00  0.00    +0.295 HD
ENDBRANCH   7   9
ENDBRANCH   4   7
BRANCH   1  11
ATOM     11  C   UNL     1       8.164  -1.371  22.879  0.00  0.00    +0.139 C 
BRANCH  11  12
ATOM     12  C   UNL     1       9.600  -1.755  22.650  0.00  0.00    +0.306 C 
ATOM     13  O   UNL     1      10.321  -2.240  23.508  0.00  0.00    -0.251 OA
BRANCH  12  14
ATOM     14  O   UNL     1      10.008  -1.569  21.375  0.00  0.00    -0.481 OA
ATOM     15  H   UNL     1      10.522  -2.321  21.019  0.00  0.00    +0.295 HD
ENDBRANCH  12  14
ENDBRANCH  11  12
ENDBRANCH   1  11
TORSDOF 5
ENDMDL
MODEL 9
REMARK VINA RESULT:      -4.4      3.271      4.435
REMARK  Name = 
REMARK  5 active torsions:
REMARK  status: ('A' for Active; 'I' for Inactive)
REMARK    1  A    between atoms: O_1  and  C_2
REMARK    2  A    between atoms: C_2  and  C_4
REMARK    3  A    between atoms: C_4  and  C_5
REMARK    4  A    between atoms: CA_9  and  C_12
REMARK    5  A    between atoms: C_12  and  O_13
REMARK                            x       y       z     vdW  Elec       q    Type
REMARK                         _______ _______ _______ _____ _____    ______ ____
ROOT
ATOM      1  C   UNL     1       8.480  -3.876  23.658  0.00  0.00    +0.065 C 
ATOM      2  N   UNL     1       9.717  -3.124  23.975  0.00  0.00    -0.301 NA
ATOM      3  H   UNL     1      10.518  -3.690  23.663  0.00  0.00    +0.123 HD
ATOM      4  CA  UNL     1       9.677  -1.894  23.103  0.00  0.00    +0.164 C 
ATOM      5  C   UNL     1       8.244  -1.759  22.604  0.00  0.00    +0.031 C 
ATOM      6  C   UNL     1       7.463  -2.770  23.421  0.00  0.00    +0.021 C 
ENDROOT
BRANCH   4   7
ATOM      7  C   UNL     1      10.096  -0.680  23.945  0.00  0.00    +0.322 C 
ATOM      8  OXT UNL     1      10.740   0.273  23.534  0.00  0.00    -0.249 OA
BRANCH   7   9
ATOM      9  O   UNL     1       9.652  -0.784  25.223  0.00  0.00    -0.480 OA
ATOM     10  H   UNL     1       8.678  -0.637  25.167  0.00  0.00    +0.295 HD
ENDBRANCH   7   9
ENDBRANCH   4   7
BRANCH   1  11
ATOM     11  C   UNL     1       8.061  -4.813  24.782  0.00  0.00    +0.139 C 
BRANCH  11  12
ATOM     12  C   UNL     1       9.169  -4.962  25.787  0.00  0.00    +0.306 C 
ATOM     13  O   UNL     1       9.158  -4.452  26.897  0.00  0.00    -0.251 OA
BRANCH  12  14
ATOM     14  O   UNL     1      10.166  -5.776  25.370  0.00  0.00    -0.481 OA
ATOM     15  H   UNL     1       9.856  -6.507  24.801  0.00  0.00    +0.295 HD
ENDBRANCH  12  14
ENDBRANCH  11  12
ENDBRANCH   1  11
TORSDOF 5
ENDMDL
