MODEL 1
REMARK VINA RESULT:      -4.8      0.000      0.000
REMARK  Name = 
REMARK  5 active torsions:
REMARK  status: ('A' for Active; 'I' for Inactive)
REMARK    1  A    between atoms: C_1  and  C_2
REMARK    2  A    between atoms: C_2  and  C_3
REMARK    3  A    between atoms: C_2  and  C_4
REMARK    4  A    between atoms: C_8  and  C_10
REMARK    5  A    between atoms: C_12  and  O_14
REMARK                            x       y       z     vdW  Elec       q    Type
REMARK                         _______ _______ _______ _____ _____    ______ ____
ROOT
ATOM      1  C   UNL     1       9.652   1.864  23.387  0.00  0.00    +0.020 C 
ATOM      2  C   UNL     1       9.854   1.101  22.059  0.00  0.00    +0.118 C 
ATOM      3  C   UNL     1       9.524  -0.390  22.225  0.00  0.00    +0.035 C 
ATOM      4  C   UNL     1      10.294  -1.059  23.367  0.00  0.00    -0.012 C 
ATOM      5  C   UNL     1       9.797  -2.489  23.587  0.00  0.00    +0.007 C 
ATOM      6  C   UNL     1      10.175  -0.258  24.667  0.00  0.00    +0.004 C 
ATOM      7  C   UNL     1      10.539   1.208  24.464  0.00  0.00    +0.006 C 
ENDROOT
BRANCH   1   9
ATOM      8  C   UNL     1      11.327   3.832  23.397  0.00  0.00    +0.007 C 
ATOM      9  C   UNL     1       9.856   3.408  23.365  0.00  0.00    -0.012 C 
ATOM     10  C   UNL     1       9.077   4.167  24.441  0.00  0.00    +0.007 C 
ENDBRANCH   1   9
BRANCH   2  11
ATOM     11  O   UNL     1       9.018   1.606  21.023  0.00  0.00    -0.391 OA
ATOM     12  H   UNL     1       8.300   0.966  20.877  0.00  0.00    +0.210 HD
ENDBRANCH   2  11
TORSDOF 2
ENDMDL
MODEL 2
REMARK VINA RESULT:      -4.7      1.128      4.341
REMARK  Name = 
REMARK  5 active torsions:
REMARK  status: ('A' for Active; 'I' for Inactive)
REMARK    1  A    between atoms: C_1  and  C_2
REMARK    2  A    between atoms: C_2  and  C_3
REMARK    3  A    between atoms: C_2  and  C_4
REMARK    4  A    between atoms: C_8  and  C_10
REMARK    5  A    between atoms: C_12  and  O_14
REMARK                            x       y       z     vdW  Elec       q    Type
REMARK                         _______ _______ _______ _____ _____    ______ ____
ROOT
ATOM      1  C   UNL     1       9.773  -0.952  23.148  0.00  0.00    +0.020 C 
ATOM      2  C   UNL     1       9.250   0.001  22.051  0.00  0.00    +0.118 C 
ATOM      3  C   UNL     1      10.030   1.324  22.054  0.00  0.00    +0.035 C 
ATOM      4  C   UNL     1      10.050   2.015  23.421  0.00  0.00    -0.012 C 
ATOM      5  C   UNL     1      10.979   3.230  23.398  0.00  0.00    +0.007 C 
ATOM      6  C   UNL     1      10.480   1.049  24.530  0.00  0.00    +0.004 C 
ATOM      7  C   UNL     1       9.661  -0.237  24.509  0.00  0.00    +0.006 C 
ENDROOT
BRANCH   1   9
ATOM      8  C   UNL     1       7.618  -2.378  23.164  0.00  0.00    +0.007 C 
ATOM      9  C   UNL     1       9.148  -2.377  23.217  0.00  0.00    -0.012 C 
ATOM     10  C   UNL     1       9.623  -3.223  24.400  0.00  0.00    +0.007 C 
ENDBRANCH   1   9
BRANCH   2  11
ATOM     11  O   UNL     1       9.380  -0.562  20.750  0.00  0.00    -0.391 OA
ATOM     12  H   UNL     1       9.418   0.168  20.109  0.00  0.00    +0.210 HD
ENDBRANCH   2  11
TORSDOF 2
ENDMDL
MODEL 3
REMARK VINA RESULT:      -4.5      1.711      2.601
REMARK  Name = 
REMARK  5 active torsions:
REMARK  status: ('A' for Active; 'I' for Inactive)
REMARK    1  A    between atoms: C_1  and  C_2
REMARK    2  A    between atoms: C_2  and  C_3
REMARK    3  A    between atoms: C_2  and  C_4
REMARK    4  A    between atoms: C_8  and  C_10
REMARK    5  A    between atoms: C_12  and  O_14
REMARK                            x       y       z     vdW  Elec       q    Type
REMARK                         _______ _______ _______ _____ _____    ______ ____
ROOT
ATOM      1  C   UNL     1       9.446  -0.181  23.358  0.00  0.00    +0.020 C 
ATOM      2  C   UNL     1      10.102  -1.514  22.933  0.00  0.00    +0.118 C 
ATOM      3  C   UNL     1       9.341  -2.713  23.516  0.00  0.00    +0.035 C 
ATOM      4  C   UNL     1       9.170  -2.643  25.037  0.00  0.00    -0.012 C 
ATOM      5  C   UNL     1       8.263  -3.771  25.530  0.00  0.00    +0.007 C 
ATOM      6  C   UNL     1       8.606  -1.288  25.475  0.00  0.00    +0.004 C 
ATOM      7  C   UNL     1       9.408  -0.127  24.898  0.00  0.00    +0.006 C 
ENDROOT
BRANCH   1   9
ATOM      8  C   UNL     1      10.570   2.096  23.839  0.00  0.00    +0.007 C 
ATOM      9  C   UNL     1      10.045   1.132  22.772  0.00  0.00    -0.012 C 
ATOM     10  C   UNL     1       9.118   1.880  21.813  0.00  0.00    +0.007 C 
ENDBRANCH   1   9
BRANCH   2  11
ATOM     11  O   UNL     1      10.118  -1.671  21.518  0.00  0.00    -0.391 OA
ATOM     12  H   UNL     1      10.712  -0.996  21.147  0.00  0.00    +0.210 HD
ENDBRANCH   2  11
TORSDOF 2
ENDMDL
MODEL 4
REMARK VINA RESULT:      -4.4      2.381      3.089
REMARK  Name = 
REMARK  5 active torsions:
REMARK  status: ('A' for Active; 'I' for Inactive)
REMARK    1  A    between atoms: C_1  and  C_2
REMARK    2  A    between atoms: C_2  and  C_3
REMARK    3  A    between atoms: C_2  and  C_4
REMARK    4  A    between atoms: C_8  and  C_10
REMARK    5  A    between atoms: C_12  and  O_14
REMARK                            x       y       z     vdW  Elec       q    Type
REMARK                         _______ _______ _______ _____ _____    ______ ____
ROOT
ATOM      1  C   UNL     1       9.103  -0.038  22.860  0.00  0.00    +0.020 C 
ATOM      2  C   UNL     1       9.436  -1.529  22.630  0.00  0.00    +0.118 C 
ATOM      3  C   UNL     1       8.182  -2.315  22.218  0.00  0.00    +0.035 C 
ATOM      4  C   UNL     1       7.015  -2.155  23.197  0.00  0.00    -0.012 C 
ATOM      5  C   UNL     1       5.754  -2.820  22.645  0.00  0.00    +0.007 C 
ATOM      6  C   UNL     1       6.739  -0.679  23.502  0.00  0.00    +0.004 C 
ATOM      7  C   UNL     1       8.002   0.055  23.935  0.00  0.00    +0.006 C 
ENDROOT
BRANCH   1   9
ATOM      8  C   UNL     1      10.849   0.726  24.604  0.00  0.00    +0.007 C 
ATOM      9  C   UNL     1      10.287   0.918  23.194  0.00  0.00    -0.012 C 
ATOM     10  C   UNL     1       9.995   2.400  22.952  0.00  0.00    +0.007 C 
ENDBRANCH   1   9
BRANCH   2  11
ATOM     11  O   UNL     1      10.403  -1.706  21.600  0.00  0.00    -0.391 OA
ATOM     12  H   UNL     1       9.929  -1.895  20.772  0.00  0.00    +0.210 HD
ENDBRANCH   2  11
TORSDOF 2
ENDMDL
MODEL 5
REMARK VINA RESULT:      -4.4      2.533      5.491
REMARK  Name = 
REMARK  5 active torsions:
REMARK  status: ('A' for Active; 'I' for Inactive)
REMARK    1  A    between atoms: C_1  and  C_2
REMARK    2  A    between atoms: C_2  and  C_3
REMARK    3  A    between atoms: C_2  and  C_4
REMARK    4  A    between atoms: C_8  and  C_10
REMARK    5  A    between atoms: C_12  and  O_14
REMARK                            x       y       z     vdW  Elec       q    Type
REMARK                         _______ _______ _______ _____ _____    ______ ____
ROOT
ATOM      1  C   UNL     1       8.311  -2.718  23.146  0.00  0.00    +0.020 C 
ATOM      2  C   UNL     1       7.428  -1.473  23.392  0.00  0.00    +0.118 C 
ATOM      3  C   UNL     1       7.953  -0.263  22.606  0.00  0.00    +0.035 C 
ATOM      4  C   UNL     1       9.429   0.045  22.878  0.00  0.00    -0.012 C 
ATOM      5  C   UNL     1       9.930   1.147  21.943  0.00  0.00    +0.007 C 
ATOM      6  C   UNL     1      10.299  -1.206  22.726  0.00  0.00    +0.004 C 
ATOM      7  C   UNL     1       9.760  -2.373  23.545  0.00  0.00    +0.006 C 
ENDROOT
BRANCH   1   9
ATOM      8  C   UNL     1       8.896  -4.653  24.756  0.00  0.00    +0.007 C 
ATOM      9  C   UNL     1       7.859  -4.057  23.800  0.00  0.00    -0.012 C 
ATOM     10  C   UNL     1       7.399  -5.126  22.807  0.00  0.00    +0.007 C 
ENDBRANCH   1   9
BRANCH   2  11
ATOM     11  O   UNL     1       6.081  -1.688  22.987  0.00  0.00    -0.391 OA
ATOM     12  H   UNL     1       5.710  -0.833  22.712  0.00  0.00    +0.210 HD
ENDBRANCH   2  11
TORSDOF 2
ENDMDL
MODEL 6
REMARK VINA RESULT:      -4.3      2.014      3.135
REMARK  Name = 
REMARK  5 active torsions:
REMARK  status: ('A' for Active; 'I' for Inactive)
REMARK    1  A    between atoms: C_1  and  C_2
REMARK    2  A    between atoms: C_2  and  C_3
REMARK    3  A    between atoms: C_2  and  C_4
REMARK    4  A    between atoms: C_8  and  C_10
REMARK    5  A    between atoms: C_12  and  O_14
REMARK                            x       y       z     vdW  Elec       q    Type
REMARK                         _______ _______ _______ _____ _____    ______ ____
ROOT
ATOM      1  C   UNL     1       8.850  -0.562  23.683  0.00  0.00    +0.020 C 
ATOM      2  C   UNL     1       7.626  -1.042  22.872  0.00  0.00    +0.118 C 
ATOM      3  C   UNL     1       7.130  -2.404  23.378  0.00  0.00    +0.035 C 
ATOM      4  C   UNL     1       8.225  -3.476  23.410  0.00  0.00    -0.012 C 
ATOM      5  C   UNL     1       7.711  -4.751  24.079  0.00  0.00    +0.007 C 
ATOM      6  C   UNL     1       9.478  -2.973  24.133  0.00  0.00    +0.004 C 
ATOM      7  C   UNL     1       9.953  -1.634  23.580  0.00  0.00    +0.006 C 
ENDROOT
BRANCH   1   9
ATOM      8  C   UNL     1       9.761   1.045  21.876  0.00  0.00    +0.007 C 
ATOM      9  C   UNL     1       9.418   0.851  23.355  0.00  0.00    -0.012 C 
ATOM     10  C   UNL     1      10.607   1.275  24.219  0.00  0.00    +0.007 C 
ENDBRANCH   1   9
BRANCH   2  11
ATOM     11  O   UNL     1       6.534  -0.133  22.968  0.00  0.00    -0.391 OA
ATOM     12  H   UNL     1       6.586   0.481  22.216  0.00  0.00    +0.210 HD
ENDBRANCH   2  11
TORSDOF 2
ENDMDL
MODEL 7
REMARK VINA RESULT:      -4.2      3.387      5.234
REMARK  Name = 
REMARK  5 active torsions:
REMARK  status: ('A' for Active; 'I' for Inactive)
REMARK    1  A    between atoms: C_1  and  C_2
REMARK    2  A    between atoms: C_2  and  C_3
REMARK    3  A    between atoms: C_2  and  C_4
REMARK    4  A    between atoms: C_8  and  C_10
REMARK    5  A    between atoms: C_12  and  O_14
REMARK                            x       y       z     vdW  Elec       q    Type
REMARK                         _______ _______ _______ _____ _____    ______ ____
ROOT
ATOM      1  C   UNL     1       8.853  -2.622  22.974  0.00  0.00    +0.020 C 
ATOM      2  C   UNL     1       8.719  -3.612  24.154  0.00  0.00    +0.118 C 
ATOM      3  C   UNL     1       7.769  -4.765  23.799  0.00  0.00    +0.035 C 
ATOM      4  C   UNL     1       6.394  -4.294  23.315  0.00  0.00    -0.012 C 
ATOM      5  C   UNL     1       5.562  -5.478  22.820  0.00  0.00    +0.007 C 
ATOM      6  C   UNL     1       6.520  -3.243  22.208  0.00  0.00    +0.004 C 
ATOM      7  C   UNL     1       7.447  -2.103  22.613  0.00  0.00    +0.006 C 
ENDROOT
BRANCH   1   9
ATOM      8  C   UNL     1       9.703  -0.690  24.464  0.00  0.00    +0.007 C 
ATOM      9  C   UNL     1       9.855  -1.442  23.139  0.00  0.00    -0.012 C 
ATOM     10  C   UNL     1       9.860  -0.445  21.978  0.00  0.00    +0.007 C 
ENDBRANCH   1   9
BRANCH   2  11
ATOM     11  O   UNL     1       9.970  -4.189  24.509  0.00  0.00    -0.391 OA
ATOM     12  H   UNL     1       9.870  -4.613  25.378  0.00  0.00    +0.210 HD
ENDBRANCH   2  11
TORSDOF 2
ENDMDL
MODEL 8
REMARK VINA RESULT:      -4.2      3.787      5.816
REMARK  Name = 
REMARK  5 active torsions:
REMARK  status: ('A' for Active; 'I' for Inactive)
REMARK    1  A    between atoms: C_1  and  C_2
REMARK    2  A    between atoms: C_2  and  C_3
REMARK    3  A    between atoms: C_2  and  C_4
REMARK    4  A    between atoms: C_8  and  C_10
REMARK    5  A    between atoms: C_12  and  O_14
REMARK                            x       y       z     vdW  Elec       q    Type
REMARK                         _______ _______ _______ _____ _____    ______ ____
ROOT
ATOM      1  C   UNL     1       8.808  -3.174  24.286  0.00  0.00    +0.020 C 
ATOM      2  C   UNL     1       9.239  -4.283  25.272  0.00  0.00    +0.118 C 
ATOM      3  C   UNL     1       8.134  -5.338  25.431  0.00  0.00    +0.035 C 
ATOM      4  C   UNL     1       6.779  -4.744  25.827  0.00  0.00    -0.012 C 
ATOM      5  C   UNL     1       5.692  -5.819  25.802  0.00  0.00    +0.007 C 
ATOM      6  C   UNL     1       6.388  -3.582  24.909  0.00  0.00    +0.004 C 
ATOM      7  C   UNL     1       7.499  -2.544  24.803  0.00  0.00    +0.006 C 
ENDROOT
BRANCH   1   9
ATOM      8  C   UNL     1       9.713  -0.806  24.789  0.00  0.00    +0.007 C 
ATOM      9  C   UNL     1       9.855  -2.073  23.942  0.00  0.00    -0.012 C 
ATOM     10  C   UNL     1       9.920  -1.698  22.461  0.00  0.00    +0.007 C 
ENDBRANCH   1   9
BRANCH   2  11
ATOM     11  O   UNL     1      10.410  -4.961  24.831  0.00  0.00    -0.391 OA
ATOM     12  H   UNL     1      11.178  -4.541  25.255  0.00  0.00    +0.210 HD
ENDBRANCH   2  11
TORSDOF 2
ENDMDL
MODEL 9
REMARK VINA RESULT:      -4.2      3.556      5.296
REMARK  Name = 
REMARK  5 active torsions:
REMARK  status: ('A' for Active; 'I' for Inactive)
REMARK    1  A    between atoms: C_1  and  C_2
REMARK    2  A    between atoms: C_2  and  C_3
REMARK    3  A    between atoms: C_2  and  C_4
REMARK    4  A    between atoms: C_8  and  C_10
REMARK    5  A    between atoms: C_12  and  O_14
REMARK                            x       y       z     vdW  Elec       q    Type
REMARK                         _______ _______ _______ _____ _____    ______ ____
ROOT
ATOM      1  C   UNL     1       7.516  -2.738  24.146  0.00  0.00    +0.020 C 
ATOM      2  C   UNL     1       7.068  -2.343  22.721  0.00  0.00    +0.118 C 
ATOM      3  C   UNL     1       6.292  -3.487  22.051  0.00  0.00    +0.035 C 
ATOM      4  C   UNL     1       7.056  -4.815  22.041  0.00  0.00    -0.012 C 
ATOM      5  C   UNL     1       6.166  -5.944  21.518  0.00  0.00    +0.007 C 
ATOM      6  C   UNL     1       7.584  -5.168  23.435  0.00  0.00    +0.004 C 
ATOM      7  C   UNL     1       8.372  -4.017  24.050  0.00  0.00    +0.006 C 
ENDROOT
BRANCH   1   9
ATOM      8  C   UNL     1       9.585  -1.214  24.419  0.00  0.00    +0.007 C 
ATOM      9  C   UNL     1       8.237  -1.651  24.997  0.00  0.00    -0.012 C 
ATOM     10  C   UNL     1       8.402  -2.008  26.476  0.00  0.00    +0.007 C 
ENDBRANCH   1   9
BRANCH   2  11
ATOM     11  O   UNL     1       6.216  -1.203  22.728  0.00  0.00    -0.391 OA
ATOM     12  H   UNL     1       6.386  -0.695  21.916  0.00  0.00    +0.210 HD
ENDBRANCH   2  11
TORSDOF 2
ENDMDL
