MODEL 1
REMARK VINA RESULT:      -5.8      0.000      0.000
REMARK  Name = 
REMARK  9 active torsions:
REMARK  status: ('A' for Active; 'I' for Inactive)
REMARK    1  A    between atoms: O_1  and  C_2
REMARK    2  A    between atoms: C_5  and  C_7
REMARK    3  A    between atoms: C_7  and  O_8
REMARK    4  A    between atoms: O_8  and  P_9
REMARK    5  A    between atoms: P_9  and  O_10
REMARK    6  A    between atoms: P_9  and  O_11
REMARK    7  A    between atoms: C_13  and  O_15
REMARK    8  A    between atoms: C_16  and  O_18
REMARK    9  A    between atoms: C_19  and  O_21
REMARK                            x       y       z     vdW  Elec       q    Type
REMARK                         _______ _______ _______ _____ _____    ______ ____
ROOT
ATOM      1  C   UNL     1      10.373   0.957  23.796  0.00  0.00    +0.279 C 
ATOM      2  C   UNL     1       9.242   1.515  22.903  0.00  0.00    +0.201 C 
ATOM      3  C   UNL     1       8.202   0.421  22.609  0.00  0.00    +0.179 C 
ATOM      4  C   UNL     1       8.898  -0.838  22.077  0.00  0.00    +0.177 C 
ATOM      5  C   UNL     1      10.021  -1.316  23.019  0.00  0.00    +0.179 C 
ATOM      6  O   UNL     1      10.944  -0.263  23.332  0.00  0.00    -0.341 OA
ENDROOT
BRANCH   1   7
ATOM      7  O   UNL     1       9.887   0.771  25.120  0.00  0.00    -0.365 OA
ATOM      8  H   UNL     1       9.983  -0.183  25.292  0.00  0.00    +0.213 HD
ENDBRANCH   1   7
BRANCH   2   9
ATOM      9  O   UNL     1       9.772   2.067  21.690  0.00  0.00    -0.384 OA
ATOM     10  H   UNL     1      10.519   2.654  21.943  0.00  0.00    +0.210 HD
ENDBRANCH   2   9
BRANCH   3  11
ATOM     11  O   UNL     1       7.400   0.116  23.751  0.00  0.00    -0.386 OA
ATOM     12  H   UNL     1       6.469   0.338  23.545  0.00  0.00    +0.210 HD
ENDBRANCH   3  11
BRANCH   4  13
ATOM     13  O   UNL     1       9.474  -0.510  20.791  0.00  0.00    -0.386 OA
ATOM     14  H   UNL     1       8.902   0.172  20.388  0.00  0.00    +0.210 HD
ENDBRANCH   4  13
BRANCH   5  15
ATOM     15  C   UNL     1       9.539  -2.084  24.261  0.00  0.00    +0.206 C 
BRANCH  15  16
ATOM     16  O   UNL     1      10.058  -3.404  24.223  0.00  0.00    -0.284 OA
BRANCH  16  17
ATOM     17  P   UNL     1       9.284  -4.531  25.044  0.00  0.00    +0.472 P 
ATOM     18  O   UNL     1       8.472  -4.090  26.211  0.00  0.00    -0.228 OA
BRANCH  17  19
ATOM     19  O   UNL     1      10.431  -5.559  25.461  0.00  0.00    -0.303 OA
ATOM     20  H   UNL     1      10.888  -5.230  26.263  0.00  0.00    +0.222 HD
ENDBRANCH  17  19
BRANCH  17  21
ATOM     21  O   UNL     1       8.520  -5.363  23.925  0.00  0.00    -0.303 OA
ATOM     22  H   UNL     1       7.659  -4.962  23.718  0.00  0.00    +0.222 HD
ENDBRANCH  17  21
ENDBRANCH  16  17
ENDBRANCH  15  16
ENDBRANCH   5  15
TORSDOF 9
ENDMDL
MODEL 2
REMARK VINA RESULT:      -5.7      2.819      5.815
REMARK  Name = 
REMARK  9 active torsions:
REMARK  status: ('A' for Active; 'I' for Inactive)
REMARK    1  A    between atoms: O_1  and  C_2
REMARK    2  A    between atoms: C_5  and  C_7
REMARK    3  A    between atoms: C_7  and  O_8
REMARK    4  A    between atoms: O_8  and  P_9
REMARK    5  A    between atoms: P_9  and  O_10
REMARK    6  A    between atoms: P_9  and  O_11
REMARK    7  A    between atoms: C_13  and  O_15
REMARK    8  A    between atoms: C_16  and  O_18
REMARK    9  A    between atoms: C_19  and  O_21
REMARK                            x       y       z     vdW  Elec       q    Type
REMARK                         _______ _______ _______ _____ _____    ______ ____
ROOT
ATOM      1  C   UNL     1       6.563  -4.765  25.742  0.00  0.00    +0.279 C 
ATOM      2  C   UNL     1       7.535  -4.680  26.940  0.00  0.00    +0.201 C 
ATOM      3  C   UNL     1       8.842  -3.984  26.522  0.00  0.00    +0.179 C 
ATOM      4  C   UNL     1       9.411  -4.646  25.261  0.00  0.00    +0.177 C 
ATOM      5  C   UNL     1       8.372  -4.704  24.123  0.00  0.00    +0.179 C 
ATOM      6  O   UNL     1       7.138  -5.298  24.552  0.00  0.00    -0.341 OA
ENDROOT
BRANCH   1   7
ATOM      7  O   UNL     1       6.033  -3.475  25.465  0.00  0.00    -0.365 OA
ATOM      8  H   UNL     1       6.708  -2.850  25.786  0.00  0.00    +0.213 HD
ENDBRANCH   1   7
BRANCH   2   9
ATOM      9  O   UNL     1       7.791  -5.981  27.485  0.00  0.00    -0.384 OA
ATOM     10  H   UNL     1       6.978  -6.515  27.349  0.00  0.00    +0.210 HD
ENDBRANCH   2   9
BRANCH   3  11
ATOM     11  O   UNL     1       8.669  -2.580  26.326  0.00  0.00    -0.386 OA
ATOM     12  H   UNL     1       8.685  -2.140  27.201  0.00  0.00    +0.210 HD
ENDBRANCH   3  11
BRANCH   4  13
ATOM     13  O   UNL     1       9.797  -5.995  25.611  0.00  0.00    -0.386 OA
ATOM     14  H   UNL     1       9.099  -6.350  26.196  0.00  0.00    +0.210 HD
ENDBRANCH   4  13
BRANCH   5  15
ATOM     15  C   UNL     1       8.173  -3.383  23.362  0.00  0.00    +0.206 C 
BRANCH  15  16
ATOM     16  O   UNL     1       9.314  -2.562  23.545  0.00  0.00    -0.284 OA
BRANCH  16  17
ATOM     17  P   UNL     1       9.382  -1.190  22.734  0.00  0.00    +0.472 P 
ATOM     18  O   UNL     1       8.098  -0.478  22.490  0.00  0.00    -0.228 OA
BRANCH  17  19
ATOM     19  O   UNL     1      10.121  -1.583  21.376  0.00  0.00    -0.303 OA
ATOM     20  H   UNL     1      10.369  -0.767  20.892  0.00  0.00    +0.222 HD
ENDBRANCH  17  19
BRANCH  17  21
ATOM     21  O   UNL     1      10.520  -0.364  23.475  0.00  0.00    -0.303 OA
ATOM     22  H   UNL     1      11.389  -0.787  23.361  0.00  0.00    +0.222 HD
ENDBRANCH  17  21
ENDBRANCH  16  17
ENDBRANCH  15  16
ENDBRANCH   5  15
TORSDOF 9
ENDMDL
MODEL 3
REMARK VINA RESULT:      -5.6      1.214      2.416
REMARK  Name = 
REMARK  9 active torsions:
REMARK  status: ('A' for Active; 'I' for Inactive)
REMARK    1  A    between atoms: O_1  and  C_2
REMARK    2  A    between atoms: C_5  and  C_7
REMARK    3  A    between atoms: C_7  and  O_8
REMARK    4  A    between atoms: O_8  and  P_9
REMARK    5  A    between atoms: P_9  and  O_10
REMARK    6  A    between atoms: P_9  and  O_11
REMARK    7  A    between atoms: C_13  and  O_15
REMARK    8  A    between atoms: C_16  and  O_18
REMARK    9  A    between atoms: C_19  and  O_21
REMARK                            x       y       z     vdW  Elec       q    Type
REMARK                         _______ _______ _______ _____ _____    ______ ____
ROOT
ATOM      1  C   UNL     1       9.477  -0.969  21.552  0.00  0.00    +0.279 C 
ATOM      2  C   UNL     1       9.702   0.549  21.732  0.00  0.00    +0.201 C 
ATOM      3  C   UNL     1       9.743   0.911  23.227  0.00  0.00    +0.179 C 
ATOM      4  C   UNL     1       8.512   0.341  23.942  0.00  0.00    +0.177 C 
ATOM      5  C   UNL     1       8.355  -1.174  23.696  0.00  0.00    +0.179 C 
ATOM      6  O   UNL     1       8.383  -1.496  22.298  0.00  0.00    -0.341 OA
ENDROOT
BRANCH   1   7
ATOM      7  O   UNL     1      10.663  -1.671  21.904  0.00  0.00    -0.365 OA
ATOM      8  H   UNL     1      11.371  -1.244  21.388  0.00  0.00    +0.213 HD
ENDBRANCH   1   7
BRANCH   2   9
ATOM      9  O   UNL     1       8.694   1.302  21.044  0.00  0.00    -0.384 OA
ATOM     10  H   UNL     1       9.160   1.931  20.450  0.00  0.00    +0.210 HD
ENDBRANCH   2   9
BRANCH   3  11
ATOM     11  O   UNL     1      10.947   0.472  23.857  0.00  0.00    -0.386 OA
ATOM     12  H   UNL     1      11.314   1.215  24.378  0.00  0.00    +0.210 HD
ENDBRANCH   3  11
BRANCH   4  13
ATOM     13  O   UNL     1       7.348   1.023  23.420  0.00  0.00    -0.386 OA
ATOM     14  H   UNL     1       6.819   1.315  24.189  0.00  0.00    +0.210 HD
ENDBRANCH   4  13
BRANCH   5  15
ATOM     15  C   UNL     1       9.280  -2.065  24.539  0.00  0.00    +0.206 C 
BRANCH  15  16
ATOM     16  O   UNL     1       9.294  -3.373  23.992  0.00  0.00    -0.284 OA
BRANCH  16  17
ATOM     17  P   UNL     1       8.865  -4.581  24.941  0.00  0.00    +0.472 P 
ATOM     18  O   UNL     1       7.574  -5.258  24.642  0.00  0.00    -0.228 OA
BRANCH  17  19
ATOM     19  O   UNL     1       8.888  -3.947  26.406  0.00  0.00    -0.303 OA
ATOM     20  H   UNL     1       9.065  -2.985  26.342  0.00  0.00    +0.222 HD
ENDBRANCH  17  19
BRANCH  17  21
ATOM     21  O   UNL     1      10.156  -5.507  24.989  0.00  0.00    -0.303 OA
ATOM     22  H   UNL     1      10.118  -6.121  25.742  0.00  0.00    +0.222 HD
ENDBRANCH  17  21
ENDBRANCH  16  17
ENDBRANCH  15  16
ENDBRANCH   5  15
TORSDOF 9
ENDMDL
MODEL 4
REMARK VINA RESULT:      -5.5      3.666      5.878
REMARK  Name = 
REMARK  9 active torsions:
REMARK  status: ('A' for Active; 'I' for Inactive)
REMARK    1  A    between atoms: O_1  and  C_2
REMARK    2  A    between atoms: C_5  and  C_7
REMARK    3  A    between atoms: C_7  and  O_8
REMARK    4  A    between atoms: O_8  and  P_9
REMARK    5  A    between atoms: P_9  and  O_10
REMARK    6  A    between atoms: P_9  and  O_11
REMARK    7  A    between atoms: C_13  and  O_15
REMARK    8  A    between atoms: C_16  and  O_18
REMARK    9  A    between atoms: C_19  and  O_21
REMARK                            x       y       z     vdW  Elec       q    Type
REMARK                         _______ _______ _______ _____ _____    ______ ____
ROOT
ATOM      1  C   UNL     1       4.800  -4.415  23.777  0.00  0.00    +0.279 C 
ATOM      2  C   UNL     1       5.470  -5.795  23.593  0.00  0.00    +0.201 C 
ATOM      3  C   UNL     1       6.844  -5.638  22.920  0.00  0.00    +0.179 C 
ATOM      4  C   UNL     1       6.713  -4.796  21.644  0.00  0.00    +0.177 C 
ATOM      5  C   UNL     1       6.021  -3.445  21.916  0.00  0.00    +0.179 C 
ATOM      6  O   UNL     1       4.771  -3.611  22.601  0.00  0.00    -0.341 OA
ENDROOT
BRANCH   1   7
ATOM      7  O   UNL     1       5.458  -3.700  24.815  0.00  0.00    -0.365 OA
ATOM      8  H   UNL     1       5.780  -4.385  25.429  0.00  0.00    +0.213 HD
ENDBRANCH   1   7
BRANCH   2   9
ATOM      9  O   UNL     1       4.624  -6.680  22.845  0.00  0.00    -0.384 OA
ATOM     10  H   UNL     1       3.697  -6.461  23.084  0.00  0.00    +0.210 HD
ENDBRANCH   2   9
BRANCH   3  11
ATOM     11  O   UNL     1       7.818  -5.078  23.803  0.00  0.00    -0.386 OA
ATOM     12  H   UNL     1       8.702  -5.180  23.395  0.00  0.00    +0.210 HD
ENDBRANCH   3  11
BRANCH   4  13
ATOM     13  O   UNL     1       5.916  -5.550  20.702  0.00  0.00    -0.386 OA
ATOM     14  H   UNL     1       6.476  -6.281  20.375  0.00  0.00    +0.210 HD
ENDBRANCH   4  13
BRANCH   5  15
ATOM     15  C   UNL     1       6.920  -2.374  22.553  0.00  0.00    +0.206 C 
BRANCH  15  16
ATOM     16  O   UNL     1       8.262  -2.588  22.146  0.00  0.00    -0.284 OA
BRANCH  16  17
ATOM     17  P   UNL     1       9.415  -1.856  22.968  0.00  0.00    +0.472 P 
ATOM     18  O   UNL     1       9.050  -0.606  23.691  0.00  0.00    -0.228 OA
BRANCH  17  19
ATOM     19  O   UNL     1      10.564  -1.613  21.887  0.00  0.00    -0.303 OA
ATOM     20  H   UNL     1      11.423  -1.915  22.251  0.00  0.00    +0.222 HD
ENDBRANCH  17  19
BRANCH  17  21
ATOM     21  O   UNL     1      10.058  -3.017  23.843  0.00  0.00    -0.303 OA
ATOM     22  H   UNL     1       9.372  -3.610  24.194  0.00  0.00    +0.222 HD
ENDBRANCH  17  21
ENDBRANCH  16  17
ENDBRANCH  15  16
ENDBRANCH   5  15
TORSDOF 9
ENDMDL
MODEL 5
REMARK VINA RESULT:      -5.3      1.196      2.305
REMARK  Name = 
REMARK  9 active torsions:
REMARK  status: ('A' for Active; 'I' for Inactive)
REMARK    1  A    between atoms: O_1  and  C_2
REMARK    2  A    between atoms: C_5  and  C_7
REMARK    3  A    between atoms: C_7  and  O_8
REMARK    4  A    between atoms: O_8  and  P_9
REMARK    5  A    between atoms: P_9  and  O_10
REMARK    6  A    between atoms: P_9  and  O_11
REMARK    7  A    between atoms: C_13  and  O_15
REMARK    8  A    between atoms: C_16  and  O_18
REMARK    9  A    between atoms: C_19  and  O_21
REMARK                            x       y       z     vdW  Elec       q    Type
REMARK                         _______ _______ _______ _____ _____    ______ ____
ROOT
ATOM      1  C   UNL     1       7.606  -0.387  23.294  0.00  0.00    +0.279 C 
ATOM      2  C   UNL     1       8.382   0.481  22.279  0.00  0.00    +0.201 C 
ATOM      3  C   UNL     1       9.793  -0.088  22.054  0.00  0.00    +0.179 C 
ATOM      4  C   UNL     1      10.494  -0.307  23.401  0.00  0.00    +0.177 C 
ATOM      5  C   UNL     1       9.645  -1.168  24.357  0.00  0.00    +0.179 C 
ATOM      6  O   UNL     1       8.313  -0.655  24.503  0.00  0.00    -0.341 OA
ENDROOT
BRANCH   1   7
ATOM      7  O   UNL     1       7.238  -1.618  22.686  0.00  0.00    -0.365 OA
ATOM      8  H   UNL     1       7.498  -1.526  21.751  0.00  0.00    +0.213 HD
ENDBRANCH   1   7
BRANCH   2   9
ATOM      9  O   UNL     1       8.437   1.848  22.709  0.00  0.00    -0.384 OA
ATOM     10  H   UNL     1       9.363   2.026  22.984  0.00  0.00    +0.210 HD
ENDBRANCH   2   9
BRANCH   3  11
ATOM     11  O   UNL     1       9.774  -1.294  21.287  0.00  0.00    -0.386 OA
ATOM     12  H   UNL     1      10.056  -1.085  20.374  0.00  0.00    +0.210 HD
ENDBRANCH   3  11
BRANCH   4  13
ATOM     13  O   UNL     1      10.703   0.992  24.001  0.00  0.00    -0.386 OA
ATOM     14  H   UNL     1      10.666   0.868  24.970  0.00  0.00    +0.210 HD
ENDBRANCH   4  13
BRANCH   5  15
ATOM     15  C   UNL     1       9.681  -2.678  24.072  0.00  0.00    +0.206 C 
BRANCH  15  16
ATOM     16  O   UNL     1       8.739  -3.334  24.905  0.00  0.00    -0.284 OA
BRANCH  16  17
ATOM     17  P   UNL     1       8.828  -4.922  25.023  0.00  0.00    +0.472 P 
ATOM     18  O   UNL     1       8.135  -5.560  26.176  0.00  0.00    -0.228 OA
BRANCH  17  19
ATOM     19  O   UNL     1      10.395  -5.221  25.021  0.00  0.00    -0.303 OA
ATOM     20  H   UNL     1      10.551  -6.145  24.734  0.00  0.00    +0.222 HD
ENDBRANCH  17  19
BRANCH  17  21
ATOM     21  O   UNL     1       8.416  -5.436  23.577  0.00  0.00    -0.303 OA
ATOM     22  H   UNL     1       9.093  -6.032  23.212  0.00  0.00    +0.222 HD
ENDBRANCH  17  21
ENDBRANCH  16  17
ENDBRANCH  15  16
ENDBRANCH   5  15
TORSDOF 9
ENDMDL
MODEL 6
REMARK VINA RESULT:      -5.3      3.362      6.076
REMARK  Name = 
REMARK  9 active torsions:
REMARK  status: ('A' for Active; 'I' for Inactive)
REMARK    1  A    between atoms: O_1  and  C_2
REMARK    2  A    between atoms: C_5  and  C_7
REMARK    3  A    between atoms: C_7  and  O_8
REMARK    4  A    between atoms: O_8  and  P_9
REMARK    5  A    between atoms: P_9  and  O_10
REMARK    6  A    between atoms: P_9  and  O_11
REMARK    7  A    between atoms: C_13  and  O_15
REMARK    8  A    between atoms: C_16  and  O_18
REMARK    9  A    between atoms: C_19  and  O_21
REMARK                            x       y       z     vdW  Elec       q    Type
REMARK                         _______ _______ _______ _____ _____    ______ ____
ROOT
ATOM      1  C   UNL     1       9.997   1.213  21.836  0.00  0.00    +0.279 C 
ATOM      2  C   UNL     1       9.222  -0.120  21.727  0.00  0.00    +0.201 C 
ATOM      3  C   UNL     1       8.182  -0.229  22.855  0.00  0.00    +0.179 C 
ATOM      4  C   UNL     1       8.846   0.035  24.212  0.00  0.00    +0.177 C 
ATOM      5  C   UNL     1       9.609   1.375  24.228  0.00  0.00    +0.179 C 
ATOM      6  O   UNL     1      10.528   1.483  23.131  0.00  0.00    -0.341 OA
ENDROOT
BRANCH   1   7
ATOM      7  O   UNL     1       9.153   2.288  21.445  0.00  0.00    -0.365 OA
ATOM      8  H   UNL     1       8.264   1.897  21.370  0.00  0.00    +0.213 HD
ENDBRANCH   1   7
BRANCH   2   9
ATOM      9  O   UNL     1      10.121  -1.237  21.740  0.00  0.00    -0.384 OA
ATOM     10  H   UNL     1       9.944  -1.758  20.926  0.00  0.00    +0.210 HD
ENDBRANCH   2   9
BRANCH   3  11
ATOM     11  O   UNL     1       7.071   0.646  22.652  0.00  0.00    -0.386 OA
ATOM     12  H   UNL     1       7.295   1.274  21.936  0.00  0.00    +0.210 HD
ENDBRANCH   3  11
BRANCH   4  13
ATOM     13  O   UNL     1       9.782  -1.040  24.458  0.00  0.00    -0.386 OA
ATOM     14  H   UNL     1      10.131  -0.914  25.362  0.00  0.00    +0.210 HD
ENDBRANCH   4  13
BRANCH   5  15
ATOM     15  C   UNL     1       8.725   2.621  24.398  0.00  0.00    +0.206 C 
BRANCH  15  16
ATOM     16  O   UNL     1       9.491   3.780  24.114  0.00  0.00    -0.284 OA
BRANCH  16  17
ATOM     17  P   UNL     1       8.709   5.103  23.687  0.00  0.00    +0.472 P 
ATOM     18  O   UNL     1       7.804   5.716  24.697  0.00  0.00    -0.228 OA
BRANCH  17  19
ATOM     19  O   UNL     1       7.932   4.679  22.359  0.00  0.00    -0.303 OA
ATOM     20  H   UNL     1       7.510   5.469  21.962  0.00  0.00    +0.222 HD
ENDBRANCH  17  19
BRANCH  17  21
ATOM     21  O   UNL     1       9.844   6.042  23.091  0.00  0.00    -0.303 OA
ATOM     22  H   UNL     1      10.638   6.032  23.653  0.00  0.00    +0.222 HD
ENDBRANCH  17  21
ENDBRANCH  16  17
ENDBRANCH  15  16
ENDBRANCH   5  15
TORSDOF 9
ENDMDL
MODEL 7
REMARK VINA RESULT:      -5.3      2.160      3.531
REMARK  Name = 
REMARK  9 active torsions:
REMARK  status: ('A' for Active; 'I' for Inactive)
REMARK    1  A    between atoms: O_1  and  C_2
REMARK    2  A    between atoms: C_5  and  C_7
REMARK    3  A    between atoms: C_7  and  O_8
REMARK    4  A    between atoms: O_8  and  P_9
REMARK    5  A    between atoms: P_9  and  O_10
REMARK    6  A    between atoms: P_9  and  O_11
REMARK    7  A    between atoms: C_13  and  O_15
REMARK    8  A    between atoms: C_16  and  O_18
REMARK    9  A    between atoms: C_19  and  O_21
REMARK                            x       y       z     vdW  Elec       q    Type
REMARK                         _______ _______ _______ _____ _____    ______ ____
ROOT
ATOM      1  C   UNL     1       6.806   2.219  23.204  0.00  0.00    +0.279 C 
ATOM      2  C   UNL     1       7.549   2.695  21.936  0.00  0.00    +0.201 C 
ATOM      3  C   UNL     1       8.919   2.004  21.826  0.00  0.00    +0.179 C 
ATOM      4  C   UNL     1       9.695   2.160  23.140  0.00  0.00    +0.177 C 
ATOM      5  C   UNL     1       8.875   1.677  24.353  0.00  0.00    +0.179 C 
ATOM      6  O   UNL     1       7.577   2.286  24.401  0.00  0.00    -0.341 OA
ENDROOT
BRANCH   1   7
ATOM      7  O   UNL     1       6.351   0.885  23.017  0.00  0.00    -0.365 OA
ATOM      8  H   UNL     1       6.043   0.850  22.093  0.00  0.00    +0.213 HD
ENDBRANCH   1   7
BRANCH   2   9
ATOM      9  O   UNL     1       7.687   4.123  21.928  0.00  0.00    -0.384 OA
ATOM     10  H   UNL     1       6.787   4.497  21.804  0.00  0.00    +0.210 HD
ENDBRANCH   2   9
BRANCH   3  11
ATOM     11  O   UNL     1       8.803   0.627  21.464  0.00  0.00    -0.386 OA
ATOM     12  H   UNL     1       8.147   0.204  22.054  0.00  0.00    +0.210 HD
ENDBRANCH   3  11
BRANCH   4  13
ATOM     13  O   UNL     1       9.995   3.565  23.306  0.00  0.00    -0.386 OA
ATOM     14  H   UNL     1      10.788   3.624  23.875  0.00  0.00    +0.210 HD
ENDBRANCH   4  13
BRANCH   5  15
ATOM     15  C   UNL     1       8.833   0.152  24.539  0.00  0.00    +0.206 C 
BRANCH  15  16
ATOM     16  O   UNL     1       9.948  -0.429  23.882  0.00  0.00    -0.284 OA
BRANCH  16  17
ATOM     17  P   UNL     1       9.738  -1.840  23.168  0.00  0.00    +0.472 P 
ATOM     18  O   UNL     1      10.211  -3.050  23.895  0.00  0.00    -0.228 OA
BRANCH  17  19
ATOM     19  O   UNL     1      10.458  -1.666  21.754  0.00  0.00    -0.303 OA
ATOM     20  H   UNL     1      10.141  -2.359  21.139  0.00  0.00    +0.222 HD
ENDBRANCH  17  19
BRANCH  17  21
ATOM     21  O   UNL     1       8.209  -1.826  22.736  0.00  0.00    -0.303 OA
ATOM     22  H   UNL     1       8.118  -1.714  21.774  0.00  0.00    +0.222 HD
ENDBRANCH  17  21
ENDBRANCH  16  17
ENDBRANCH  15  16
ENDBRANCH   5  15
TORSDOF 9
ENDMDL
MODEL 8
REMARK VINA RESULT:      -5.3      3.375      5.104
REMARK  Name = 
REMARK  9 active torsions:
REMARK  status: ('A' for Active; 'I' for Inactive)
REMARK    1  A    between atoms: O_1  and  C_2
REMARK    2  A    between atoms: C_5  and  C_7
REMARK    3  A    between atoms: C_7  and  O_8
REMARK    4  A    between atoms: O_8  and  P_9
REMARK    5  A    between atoms: P_9  and  O_10
REMARK    6  A    between atoms: P_9  and  O_11
REMARK    7  A    between atoms: C_13  and  O_15
REMARK    8  A    between atoms: C_16  and  O_18
REMARK    9  A    between atoms: C_19  and  O_21
REMARK                            x       y       z     vdW  Elec       q    Type
REMARK                         _______ _______ _______ _____ _____    ______ ____
ROOT
ATOM      1  C   UNL     1       8.465  -2.433  25.394  0.00  0.00    +0.279 C 
ATOM      2  C   UNL     1       8.783  -3.136  24.055  0.00  0.00    +0.201 C 
ATOM      3  C   UNL     1       8.306  -4.598  24.091  0.00  0.00    +0.179 C 
ATOM      4  C   UNL     1       8.846  -5.298  25.344  0.00  0.00    +0.177 C 
ATOM      5  C   UNL     1       8.498  -4.522  26.631  0.00  0.00    +0.179 C 
ATOM      6  O   UNL     1       8.894  -3.145  26.551  0.00  0.00    -0.341 OA
ENDROOT
BRANCH   1   7
ATOM      7  O   UNL     1       7.066  -2.193  25.486  0.00  0.00    -0.365 OA
ATOM      8  H   UNL     1       6.681  -2.641  24.711  0.00  0.00    +0.213 HD
ENDBRANCH   1   7
BRANCH   2   9
ATOM      9  O   UNL     1      10.182  -3.054  23.753  0.00  0.00    -0.384 OA
ATOM     10  H   UNL     1      10.260  -2.662  22.855  0.00  0.00    +0.210 HD
ENDBRANCH   2   9
BRANCH   3  11
ATOM     11  O   UNL     1       6.883  -4.705  24.020  0.00  0.00    -0.386 OA
ATOM     12  H   UNL     1       6.502  -3.804  24.034  0.00  0.00    +0.210 HD
ENDBRANCH   3  11
BRANCH   4  13
ATOM     13  O   UNL     1      10.285  -5.373  25.218  0.00  0.00    -0.386 OA
ATOM     14  H   UNL     1      10.661  -4.717  25.836  0.00  0.00    +0.210 HD
ENDBRANCH   4  13
BRANCH   5  15
ATOM     15  C   UNL     1       7.055  -4.707  27.127  0.00  0.00    +0.206 C 
BRANCH  15  16
ATOM     16  O   UNL     1       6.597  -5.998  26.759  0.00  0.00    -0.284 OA
BRANCH  16  17
ATOM     17  P   UNL     1       5.115  -6.410  27.183  0.00  0.00    +0.472 P 
ATOM     18  O   UNL     1       4.234  -5.335  27.715  0.00  0.00    -0.228 OA
BRANCH  17  19
ATOM     19  O   UNL     1       5.330  -7.590  28.235  0.00  0.00    -0.303 OA
ATOM     20  H   UNL     1       4.489  -8.078  28.354  0.00  0.00    +0.222 HD
ENDBRANCH  17  19
BRANCH  17  21
ATOM     21  O   UNL     1       4.569  -7.215  25.926  0.00  0.00    -0.303 OA
ATOM     22  H   UNL     1       4.338  -8.128  26.170  0.00  0.00    +0.222 HD
ENDBRANCH  17  21
ENDBRANCH  16  17
ENDBRANCH  15  16
ENDBRANCH   5  15
TORSDOF 9
ENDMDL
MODEL 9
REMARK VINA RESULT:      -5.2      1.739      3.261
REMARK  Name = 
REMARK  9 active torsions:
REMARK  status: ('A' for Active; 'I' for Inactive)
REMARK    1  A    between atoms: O_1  and  C_2
REMARK    2  A    between atoms: C_5  and  C_7
REMARK    3  A    between atoms: C_7  and  O_8
REMARK    4  A    between atoms: O_8  and  P_9
REMARK    5  A    between atoms: P_9  and  O_10
REMARK    6  A    between atoms: P_9  and  O_11
REMARK    7  A    between atoms: C_13  and  O_15
REMARK    8  A    between atoms: C_16  and  O_18
REMARK    9  A    between atoms: C_19  and  O_21
REMARK                            x       y       z     vdW  Elec       q    Type
REMARK                         _______ _______ _______ _____ _____    ______ ____
ROOT
ATOM      1  C   UNL     1       9.809  -0.356  22.068  0.00  0.00    +0.279 C 
ATOM      2  C   UNL     1      10.448  -0.342  23.475  0.00  0.00    +0.201 C 
ATOM      3  C   UNL     1       9.727  -1.339  24.400  0.00  0.00    +0.179 C 
ATOM      4  C   UNL     1       8.214  -1.092  24.364  0.00  0.00    +0.177 C 
ATOM      5  C   UNL     1       7.664  -1.106  22.923  0.00  0.00    +0.179 C 
ATOM      6  O   UNL     1       8.391  -0.217  22.062  0.00  0.00    -0.341 OA
ENDROOT
BRANCH   1   7
ATOM      7  O   UNL     1      10.164  -1.557  21.395  0.00  0.00    -0.365 OA
ATOM      8  H   UNL     1       9.329  -1.892  21.020  0.00  0.00    +0.213 HD
ENDBRANCH   1   7
BRANCH   2   9
ATOM      9  O   UNL     1      10.439   0.980  24.030  0.00  0.00    -0.384 OA
ATOM     10  H   UNL     1       9.531   1.144  24.368  0.00  0.00    +0.210 HD
ENDBRANCH   2   9
BRANCH   3  11
ATOM     11  O   UNL     1      10.031  -2.696  24.074  0.00  0.00    -0.386 OA
ATOM     12  H   UNL     1       9.190  -3.187  23.975  0.00  0.00    +0.210 HD
ENDBRANCH   3  11
BRANCH   4  13
ATOM     13  O   UNL     1       7.968   0.209  24.946  0.00  0.00    -0.386 OA
ATOM     14  H   UNL     1       8.676   0.803  24.628  0.00  0.00    +0.210 HD
ENDBRANCH   4  13
BRANCH   5  15
ATOM     15  C   UNL     1       7.469  -2.506  22.319  0.00  0.00    +0.206 C 
BRANCH  15  16
ATOM     16  O   UNL     1       7.066  -3.403  23.340  0.00  0.00    -0.284 OA
BRANCH  16  17
ATOM     17  P   UNL     1       7.273  -4.964  23.084  0.00  0.00    +0.472 P 
ATOM     18  O   UNL     1       7.197  -5.440  21.676  0.00  0.00    -0.228 OA
BRANCH  17  19
ATOM     19  O   UNL     1       6.175  -5.655  24.014  0.00  0.00    -0.303 OA
ATOM     20  H   UNL     1       5.327  -5.717  23.526  0.00  0.00    +0.222 HD
ENDBRANCH  17  19
BRANCH  17  21
ATOM     21  O   UNL     1       8.606  -5.308  23.877  0.00  0.00    -0.303 OA
ATOM     22  H   UNL     1       8.801  -4.628  24.545  0.00  0.00    +0.222 HD
ENDBRANCH  17  21
ENDBRANCH  16  17
ENDBRANCH  15  16
ENDBRANCH   5  15
TORSDOF 9
ENDMDL
