MODEL 1
REMARK VINA RESULT:      -6.5      0.000      0.000
REMARK  Name = 
REMARK  8 active torsions:
REMARK  status: ('A' for Active; 'I' for Inactive)
REMARK    1  A    between atoms: N_6  and  C_9
REMARK    2  A    between atoms: C_12  and  C_14
REMARK    3  A    between atoms: C_14  and  O_15
REMARK    4  A    between atoms: C_16  and  O_18
REMARK    5  A    between atoms: C_19  and  O_21
REMARK    6  A    between atoms: O_21  and  P_22
REMARK    7  A    between atoms: P_22  and  O_23
REMARK    8  A    between atoms: P_22  and  O_24
REMARK                            x       y       z     vdW  Elec       q    Type
REMARK                         _______ _______ _______ _____ _____    ______ ____
ROOT
ATOM      1  C   UNL     1       8.032  -3.715  23.441  0.00  0.00    +0.256 C 
ATOM      2  C   UNL     1       6.855  -4.122  24.350  0.00  0.00    +0.211 C 
ATOM      3  C   UNL     1       5.766  -4.583  23.388  0.00  0.00    +0.179 C 
ATOM      4  C   UNL     1       6.367  -4.447  21.995  0.00  0.00    +0.177 C 
ATOM      5  O   UNL     1       7.788  -4.299  22.144  0.00  0.00    -0.346 OA
ENDROOT
BRANCH   1  12
ATOM      6  N   UNL     1       9.098   1.699  23.415  0.00  0.00    -0.343 N 
ATOM      7  H   UNL     1       8.409   2.348  23.058  0.00  0.00    +0.144 HD
ATOM      8  H   UNL     1      10.044   1.891  23.098  0.00  0.00    +0.144 HD
ATOM      9  C   UNL     1       8.796   0.367  23.377  0.00  0.00    +0.123 A 
ATOM     10  C   UNL     1       7.390  -0.058  23.471  0.00  0.00    +0.061 A 
ATOM     11  C   UNL     1       7.178  -1.372  23.436  0.00  0.00    +0.096 A 
ATOM     12  N   UNL     1       8.219  -2.264  23.343  0.00  0.00    -0.270 N 
ATOM     13  C   UNL     1       9.542  -1.815  23.236  0.00  0.00    +0.352 A 
ATOM     14  O   UNL     1      10.471  -2.617  23.155  0.00  0.00    -0.244 OA
ATOM     15  N   UNL     1       9.782  -0.463  23.250  0.00  0.00    -0.178 NA
ENDBRANCH   1  12
BRANCH   3  16
ATOM     16  O   UNL     1       4.625  -3.731  23.498  0.00  0.00    -0.386 OA
ATOM     17  H   UNL     1       4.116  -4.003  24.281  0.00  0.00    +0.210 HD
ENDBRANCH   3  16
BRANCH   2  18
ATOM     18  O   UNL     1       7.262  -5.208  25.185  0.00  0.00    -0.276 OA
BRANCH  18  19
ATOM     19  P   UNL     1       8.419  -4.955  26.258  0.00  0.00    +0.473 P 
ATOM     20  O   UNL     1       8.716  -3.545  26.629  0.00  0.00    -0.228 OA
BRANCH  19  21
ATOM     21  O   UNL     1       9.676  -5.764  25.710  0.00  0.00    -0.303 OA
ATOM     22  H   UNL     1       9.638  -5.886  24.746  0.00  0.00    +0.222 HD
ENDBRANCH  19  21
BRANCH  19  23
ATOM     23  O   UNL     1       7.951  -5.836  27.504  0.00  0.00    -0.303 OA
ATOM     24  H   UNL     1       8.528  -5.709  28.276  0.00  0.00    +0.222 HD
ENDBRANCH  19  23
ENDBRANCH  18  19
ENDBRANCH   2  18
BRANCH   4  25
ATOM     25  C   UNL     1       6.088  -5.640  21.087  0.00  0.00    +0.190 C 
BRANCH  25  26
ATOM     26  O   UNL     1       6.071  -6.847  21.843  0.00  0.00    -0.392 OA
ATOM     27  H   UNL     1       6.523  -6.646  22.686  0.00  0.00    +0.210 HD
ENDBRANCH  25  26
ENDBRANCH   4  25
TORSDOF 8
ENDMDL
MODEL 2
REMARK VINA RESULT:      -6.5      2.876      5.247
REMARK  Name = 
REMARK  8 active torsions:
REMARK  status: ('A' for Active; 'I' for Inactive)
REMARK    1  A    between atoms: N_6  and  C_9
REMARK    2  A    between atoms: C_12  and  C_14
REMARK    3  A    between atoms: C_14  and  O_15
REMARK    4  A    between atoms: C_16  and  O_18
REMARK    5  A    between atoms: C_19  and  O_21
REMARK    6  A    between atoms: O_21  and  P_22
REMARK    7  A    between atoms: P_22  and  O_23
REMARK    8  A    between atoms: P_22  and  O_24
REMARK                            x       y       z     vdW  Elec       q    Type
REMARK                         _______ _______ _______ _____ _____    ______ ____
ROOT
ATOM      1  C   UNL     1       8.171  -4.368  24.081  0.00  0.00    +0.256 C 
ATOM      2  C   UNL     1       7.262  -3.789  22.978  0.00  0.00    +0.211 C 
ATOM      3  C   UNL     1       7.806  -2.387  22.728  0.00  0.00    +0.179 C 
ATOM      4  C   UNL     1       8.997  -2.237  23.664  0.00  0.00    +0.177 C 
ATOM      5  O   UNL     1       9.357  -3.549  24.126  0.00  0.00    -0.346 OA
ENDROOT
BRANCH   1  12
ATOM      6  N   UNL     1       5.722  -5.129  28.966  0.00  0.00    -0.343 N 
ATOM      7  H   UNL     1       5.235  -4.362  29.412  0.00  0.00    +0.144 HD
ATOM      8  H   UNL     1       6.310  -5.662  29.599  0.00  0.00    +0.144 HD
ATOM      9  C   UNL     1       6.332  -4.883  27.769  0.00  0.00    +0.123 A 
ATOM     10  C   UNL     1       5.780  -3.853  26.875  0.00  0.00    +0.061 A 
ATOM     11  C   UNL     1       6.425  -3.679  25.723  0.00  0.00    +0.096 A 
ATOM     12  N   UNL     1       7.522  -4.438  25.393  0.00  0.00    -0.270 N 
ATOM     13  C   UNL     1       8.027  -5.395  26.284  0.00  0.00    +0.352 A 
ATOM     14  O   UNL     1       9.008  -6.074  25.985  0.00  0.00    -0.244 OA
ATOM     15  N   UNL     1       7.388  -5.578  27.486  0.00  0.00    -0.178 NA
ENDBRANCH   1  12
BRANCH   3  16
ATOM     16  O   UNL     1       6.815  -1.414  23.061  0.00  0.00    -0.386 OA
ATOM     17  H   UNL     1       6.708  -0.815  22.302  0.00  0.00    +0.210 HD
ENDBRANCH   3  16
BRANCH   2  18
ATOM     18  O   UNL     1       7.395  -4.583  21.796  0.00  0.00    -0.276 OA
BRANCH  18  19
ATOM     19  P   UNL     1       6.176  -5.525  21.368  0.00  0.00    +0.473 P 
ATOM     20  O   UNL     1       5.925  -5.705  19.913  0.00  0.00    -0.228 OA
BRANCH  19  21
ATOM     21  O   UNL     1       4.923  -4.977  22.184  0.00  0.00    -0.303 OA
ATOM     22  H   UNL     1       4.655  -5.588  22.892  0.00  0.00    +0.222 HD
ENDBRANCH  19  21
BRANCH  19  23
ATOM     23  O   UNL     1       6.506  -6.897  22.114  0.00  0.00    -0.303 OA
ATOM     24  H   UNL     1       5.806  -7.148  22.740  0.00  0.00    +0.222 HD
ENDBRANCH  19  23
ENDBRANCH  18  19
ENDBRANCH   2  18
BRANCH   4  25
ATOM     25  C   UNL     1      10.215  -1.594  23.009  0.00  0.00    +0.190 C 
BRANCH  25  26
ATOM     26  O   UNL     1      10.156  -1.742  21.594  0.00  0.00    -0.392 OA
ATOM     27  H   UNL     1      10.880  -1.194  21.233  0.00  0.00    +0.210 HD
ENDBRANCH  25  26
ENDBRANCH   4  25
TORSDOF 8
ENDMDL
MODEL 3
REMARK VINA RESULT:      -6.3      2.156      4.030
REMARK  Name = 
REMARK  8 active torsions:
REMARK  status: ('A' for Active; 'I' for Inactive)
REMARK    1  A    between atoms: N_6  and  C_9
REMARK    2  A    between atoms: C_12  and  C_14
REMARK    3  A    between atoms: C_14  and  O_15
REMARK    4  A    between atoms: C_16  and  O_18
REMARK    5  A    between atoms: C_19  and  O_21
REMARK    6  A    between atoms: O_21  and  P_22
REMARK    7  A    between atoms: P_22  and  O_23
REMARK    8  A    between atoms: P_22  and  O_24
REMARK                            x       y       z     vdW  Elec       q    Type
REMARK                         _______ _______ _______ _____ _____    ______ ____
ROOT
ATOM      1  C   UNL     1       6.884  -2.074  23.561  0.00  0.00    +0.256 C 
ATOM      2  C   UNL     1       7.273  -3.500  23.124  0.00  0.00    +0.211 C 
ATOM      3  C   UNL     1       7.822  -4.154  24.387  0.00  0.00    +0.179 C 
ATOM      4  C   UNL     1       7.701  -3.100  25.479  0.00  0.00    +0.177 C 
ATOM      5  O   UNL     1       6.813  -2.077  25.002  0.00  0.00    -0.346 OA
ENDROOT
BRANCH   1  12
ATOM      6  N   UNL     1       9.967   2.019  21.514  0.00  0.00    -0.343 N 
ATOM      7  H   UNL     1      10.970   1.910  21.444  0.00  0.00    +0.144 HD
ATOM      8  H   UNL     1       9.679   2.922  21.881  0.00  0.00    +0.144 HD
ATOM      9  C   UNL     1       9.251   0.986  22.050  0.00  0.00    +0.123 A 
ATOM     10  C   UNL     1       9.748  -0.391  21.901  0.00  0.00    +0.061 A 
ATOM     11  C   UNL     1       8.990  -1.342  22.442  0.00  0.00    +0.096 A 
ATOM     12  N   UNL     1       7.808  -1.044  23.077  0.00  0.00    -0.270 N 
ATOM     13  C   UNL     1       7.382   0.285  23.213  0.00  0.00    +0.352 A 
ATOM     14  O   UNL     1       6.323   0.547  23.780  0.00  0.00    -0.244 OA
ATOM     15  N   UNL     1       8.158   1.283  22.679  0.00  0.00    -0.178 NA
ENDBRANCH   1  12
BRANCH   3  16
ATOM     16  O   UNL     1       9.197  -4.492  24.203  0.00  0.00    -0.386 OA
ATOM     17  H   UNL     1       9.700  -4.154  24.965  0.00  0.00    +0.210 HD
ENDBRANCH   3  16
BRANCH   2  18
ATOM     18  O   UNL     1       6.102  -4.192  22.685  0.00  0.00    -0.276 OA
BRANCH  18  19
ATOM     19  P   UNL     1       6.280  -5.573  21.900  0.00  0.00    +0.473 P 
ATOM     20  O   UNL     1       7.571  -6.295  22.063  0.00  0.00    -0.228 OA
BRANCH  19  21
ATOM     21  O   UNL     1       5.904  -5.241  20.389  0.00  0.00    -0.303 OA
ATOM     22  H   UNL     1       6.608  -5.505  19.772  0.00  0.00    +0.222 HD
ENDBRANCH  19  21
BRANCH  19  23
ATOM     23  O   UNL     1       5.026  -6.429  22.393  0.00  0.00    -0.303 OA
ATOM     24  H   UNL     1       4.548  -6.835  21.649  0.00  0.00    +0.222 HD
ENDBRANCH  19  23
ENDBRANCH  18  19
ENDBRANCH   2  18
BRANCH   4  25
ATOM     25  C   UNL     1       7.164  -3.642  26.799  0.00  0.00    +0.190 C 
BRANCH  25  26
ATOM     26  O   UNL     1       7.893  -4.800  27.194  0.00  0.00    -0.392 OA
ATOM     27  H   UNL     1       8.833  -4.607  27.008  0.00  0.00    +0.210 HD
ENDBRANCH  25  26
ENDBRANCH   4  25
TORSDOF 8
ENDMDL
MODEL 4
REMARK VINA RESULT:      -6.2      1.504      1.654
REMARK  Name = 
REMARK  8 active torsions:
REMARK  status: ('A' for Active; 'I' for Inactive)
REMARK    1  A    between atoms: N_6  and  C_9
REMARK    2  A    between atoms: C_12  and  C_14
REMARK    3  A    between atoms: C_14  and  O_15
REMARK    4  A    between atoms: C_16  and  O_18
REMARK    5  A    between atoms: C_19  and  O_21
REMARK    6  A    between atoms: O_21  and  P_22
REMARK    7  A    between atoms: P_22  and  O_23
REMARK    8  A    between atoms: P_22  and  O_24
REMARK                            x       y       z     vdW  Elec       q    Type
REMARK                         _______ _______ _______ _____ _____    ______ ____
ROOT
ATOM      1  C   UNL     1       7.689  -4.250  24.510  0.00  0.00    +0.256 C 
ATOM      2  C   UNL     1       6.225  -4.591  24.853  0.00  0.00    +0.211 C 
ATOM      3  C   UNL     1       5.573  -4.886  23.507  0.00  0.00    +0.179 C 
ATOM      4  C   UNL     1       6.680  -4.729  22.473  0.00  0.00    +0.177 C 
ATOM      5  O   UNL     1       7.935  -4.731  23.172  0.00  0.00    -0.346 OA
ENDROOT
BRANCH   1  12
ATOM      6  N   UNL     1       9.248   0.995  25.223  0.00  0.00    -0.343 N 
ATOM      7  H   UNL     1       8.583   1.744  25.076  0.00  0.00    +0.144 HD
ATOM      8  H   UNL     1      10.159   1.172  24.812  0.00  0.00    +0.144 HD
ATOM      9  C   UNL     1       8.819  -0.285  25.010  0.00  0.00    +0.123 A 
ATOM     10  C   UNL     1       7.403  -0.618  25.228  0.00  0.00    +0.061 A 
ATOM     11  C   UNL     1       7.066  -1.888  25.009  0.00  0.00    +0.096 A 
ATOM     12  N   UNL     1       7.998  -2.822  24.626  0.00  0.00    -0.270 N 
ATOM     13  C   UNL     1       9.333  -2.456  24.410  0.00  0.00    +0.352 A 
ATOM     14  O   UNL     1      10.165  -3.295  24.069  0.00  0.00    -0.244 OA
ATOM     15  N   UNL     1       9.699  -1.148  24.612  0.00  0.00    -0.178 NA
ENDBRANCH   1  12
BRANCH   3  16
ATOM     16  O   UNL     1       4.541  -3.934  23.246  0.00  0.00    -0.386 OA
ATOM     17  H   UNL     1       4.817  -3.076  23.611  0.00  0.00    +0.210 HD
ENDBRANCH   3  16
BRANCH   2  18
ATOM     18  O   UNL     1       6.196  -5.759  25.676  0.00  0.00    -0.276 OA
BRANCH  18  19
ATOM     19  P   UNL     1       6.364  -5.584  27.256  0.00  0.00    +0.473 P 
ATOM     20  O   UNL     1       5.868  -4.320  27.864  0.00  0.00    -0.228 OA
BRANCH  19  21
ATOM     21  O   UNL     1       7.900  -5.889  27.546  0.00  0.00    -0.303 OA
ATOM     22  H   UNL     1       8.189  -5.522  28.399  0.00  0.00    +0.222 HD
ENDBRANCH  19  21
BRANCH  19  23
ATOM     23  O   UNL     1       5.634  -6.878  27.839  0.00  0.00    -0.303 OA
ATOM     24  H   UNL     1       5.359  -7.489  27.134  0.00  0.00    +0.222 HD
ENDBRANCH  19  23
ENDBRANCH  18  19
ENDBRANCH   2  18
BRANCH   4  25
ATOM     25  C   UNL     1       6.699  -5.834  21.422  0.00  0.00    +0.190 C 
BRANCH  25  26
ATOM     26  O   UNL     1       5.374  -6.262  21.126  0.00  0.00    -0.392 OA
ATOM     27  H   UNL     1       5.374  -6.512  20.181  0.00  0.00    +0.210 HD
ENDBRANCH  25  26
ENDBRANCH   4  25
TORSDOF 8
ENDMDL
MODEL 5
REMARK VINA RESULT:      -6.0      2.233      3.019
REMARK  Name = 
REMARK  8 active torsions:
REMARK  status: ('A' for Active; 'I' for Inactive)
REMARK    1  A    between atoms: N_6  and  C_9
REMARK    2  A    between atoms: C_12  and  C_14
REMARK    3  A    between atoms: C_14  and  O_15
REMARK    4  A    between atoms: C_16  and  O_18
REMARK    5  A    between atoms: C_19  and  O_21
REMARK    6  A    between atoms: O_21  and  P_22
REMARK    7  A    between atoms: P_22  and  O_23
REMARK    8  A    between atoms: P_22  and  O_24
REMARK                            x       y       z     vdW  Elec       q    Type
REMARK                         _______ _______ _______ _____ _____    ______ ____
ROOT
ATOM      1  C   UNL     1       7.845  -2.695  23.896  0.00  0.00    +0.256 C 
ATOM      2  C   UNL     1       6.307  -2.662  23.794  0.00  0.00    +0.211 C 
ATOM      3  C   UNL     1       5.967  -3.729  22.759  0.00  0.00    +0.179 C 
ATOM      4  C   UNL     1       7.301  -4.333  22.341  0.00  0.00    +0.177 C 
ATOM      5  O   UNL     1       8.282  -3.940  23.313  0.00  0.00    -0.346 OA
ENDROOT
BRANCH   1  12
ATOM      6  N   UNL     1       9.922   1.900  21.655  0.00  0.00    -0.343 N 
ATOM      7  H   UNL     1      10.593   1.835  20.900  0.00  0.00    +0.144 HD
ATOM      8  H   UNL     1      10.171   2.581  22.365  0.00  0.00    +0.144 HD
ATOM      9  C   UNL     1       9.456   0.733  22.191  0.00  0.00    +0.123 A 
ATOM     10  C   UNL     1       9.373  -0.469  21.347  0.00  0.00    +0.061 A 
ATOM     11  C   UNL     1       8.900  -1.563  21.940  0.00  0.00    +0.096 A 
ATOM     12  N   UNL     1       8.496  -1.549  23.254  0.00  0.00    -0.270 N 
ATOM     13  C   UNL     1       8.612  -0.387  24.028  0.00  0.00    +0.352 A 
ATOM     14  O   UNL     1       8.248  -0.378  25.202  0.00  0.00    -0.244 OA
ATOM     15  N   UNL     1       9.115   0.748  23.441  0.00  0.00    -0.178 NA
ENDBRANCH   1  12
BRANCH   3  16
ATOM     16  O   UNL     1       5.342  -3.127  21.626  0.00  0.00    -0.386 OA
ATOM     17  H   UNL     1       4.895  -3.825  21.116  0.00  0.00    +0.210 HD
ENDBRANCH   3  16
BRANCH   2  18
ATOM     18  O   UNL     1       5.746  -3.013  25.061  0.00  0.00    -0.276 OA
BRANCH  18  19
ATOM     19  P   UNL     1       5.007  -1.878  25.910  0.00  0.00    +0.473 P 
ATOM     20  O   UNL     1       5.442  -1.681  27.319  0.00  0.00    -0.228 OA
BRANCH  19  21
ATOM     21  O   UNL     1       3.453  -2.181  25.744  0.00  0.00    -0.303 OA
ATOM     22  H   UNL     1       3.050  -1.641  25.042  0.00  0.00    +0.222 HD
ENDBRANCH  19  21
BRANCH  19  23
ATOM     23  O   UNL     1       5.207  -0.573  25.013  0.00  0.00    -0.303 OA
ATOM     24  H   UNL     1       4.577   0.129  25.247  0.00  0.00    +0.222 HD
ENDBRANCH  19  23
ENDBRANCH  18  19
ENDBRANCH   2  18
BRANCH   4  25
ATOM     25  C   UNL     1       7.283  -5.855  22.246  0.00  0.00    +0.190 C 
BRANCH  25  26
ATOM     26  O   UNL     1       5.980  -6.316  21.904  0.00  0.00    -0.392 OA
ATOM     27  H   UNL     1       5.692  -6.888  22.643  0.00  0.00    +0.210 HD
ENDBRANCH  25  26
ENDBRANCH   4  25
TORSDOF 8
ENDMDL
MODEL 6
REMARK VINA RESULT:      -6.0      3.480      6.067
REMARK  Name = 
REMARK  8 active torsions:
REMARK  status: ('A' for Active; 'I' for Inactive)
REMARK    1  A    between atoms: N_6  and  C_9
REMARK    2  A    between atoms: C_12  and  C_14
REMARK    3  A    between atoms: C_14  and  O_15
REMARK    4  A    between atoms: C_16  and  O_18
REMARK    5  A    between atoms: C_19  and  O_21
REMARK    6  A    between atoms: O_21  and  P_22
REMARK    7  A    between atoms: P_22  and  O_23
REMARK    8  A    between atoms: P_22  and  O_24
REMARK                            x       y       z     vdW  Elec       q    Type
REMARK                         _______ _______ _______ _____ _____    ______ ____
ROOT
ATOM      1  C   UNL     1       8.081  -1.270  24.025  0.00  0.00    +0.256 C 
ATOM      2  C   UNL     1       7.522   0.088  23.555  0.00  0.00    +0.211 C 
ATOM      3  C   UNL     1       6.726   0.610  24.747  0.00  0.00    +0.179 C 
ATOM      4  C   UNL     1       6.885  -0.442  25.837  0.00  0.00    +0.177 C 
ATOM      5  O   UNL     1       7.978  -1.296  25.464  0.00  0.00    -0.346 OA
ENDROOT
BRANCH   1  12
ATOM      6  N   UNL     1       5.954  -5.703  21.522  0.00  0.00    -0.343 N 
ATOM      7  H   UNL     1       4.950  -5.805  21.442  0.00  0.00    +0.144 HD
ATOM      8  H   UNL     1       6.430  -6.555  21.805  0.00  0.00    +0.144 HD
ATOM      9  C   UNL     1       6.430  -4.600  22.172  0.00  0.00    +0.123 A 
ATOM     10  C   UNL     1       5.648  -3.354  22.148  0.00  0.00    +0.061 A 
ATOM     11  C   UNL     1       6.183  -2.321  22.795  0.00  0.00    +0.096 A 
ATOM     12  N   UNL     1       7.401  -2.420  23.423  0.00  0.00    -0.270 N 
ATOM     13  C   UNL     1       8.104  -3.633  23.438  0.00  0.00    +0.352 A 
ATOM     14  O   UNL     1       9.195  -3.718  23.999  0.00  0.00    -0.244 OA
ATOM     15  N   UNL     1       7.561  -4.717  22.792  0.00  0.00    -0.178 NA
ENDBRANCH   1  12
BRANCH   3  16
ATOM     16  O   UNL     1       5.347   0.728  24.398  0.00  0.00    -0.386 OA
ATOM     17  H   UNL     1       4.872   1.111  25.156  0.00  0.00    +0.210 HD
ENDBRANCH   3  16
BRANCH   2  18
ATOM     18  O   UNL     1       8.610   0.970  23.270  0.00  0.00    -0.276 OA
BRANCH  18  19
ATOM     19  P   UNL     1       9.130   1.076  21.762  0.00  0.00    +0.473 P 
ATOM     20  O   UNL     1       9.506  -0.188  21.073  0.00  0.00    -0.228 OA
BRANCH  19  21
ATOM     21  O   UNL     1      10.289   2.168  21.800  0.00  0.00    -0.303 OA
ATOM     22  H   UNL     1      10.976   1.992  21.134  0.00  0.00    +0.222 HD
ENDBRANCH  19  21
BRANCH  19  23
ATOM     23  O   UNL     1       7.944   1.851  21.028  0.00  0.00    -0.303 OA
ATOM     24  H   UNL     1       7.540   2.525  21.601  0.00  0.00    +0.222 HD
ENDBRANCH  19  23
ENDBRANCH  18  19
ENDBRANCH   2  18
BRANCH   4  25
ATOM     25  C   UNL     1       7.164   0.143  27.217  0.00  0.00    +0.190 C 
BRANCH  25  26
ATOM     26  O   UNL     1       7.633   1.482  27.105  0.00  0.00    -0.392 OA
ATOM     27  H   UNL     1       8.593   1.421  26.934  0.00  0.00    +0.210 HD
ENDBRANCH  25  26
ENDBRANCH   4  25
TORSDOF 8
ENDMDL
MODEL 7
REMARK VINA RESULT:      -5.9      2.281      3.043
REMARK  Name = 
REMARK  8 active torsions:
REMARK  status: ('A' for Active; 'I' for Inactive)
REMARK    1  A    between atoms: N_6  and  C_9
REMARK    2  A    between atoms: C_12  and  C_14
REMARK    3  A    between atoms: C_14  and  O_15
REMARK    4  A    between atoms: C_16  and  O_18
REMARK    5  A    between atoms: C_19  and  O_21
REMARK    6  A    between atoms: O_21  and  P_22
REMARK    7  A    between atoms: P_22  and  O_23
REMARK    8  A    between atoms: P_22  and  O_24
REMARK                            x       y       z     vdW  Elec       q    Type
REMARK                         _______ _______ _______ _____ _____    ______ ____
ROOT
ATOM      1  C   UNL     1       6.258  -5.436  24.335  0.00  0.00    +0.256 C 
ATOM      2  C   UNL     1       5.541  -5.039  25.641  0.00  0.00    +0.211 C 
ATOM      3  C   UNL     1       4.156  -4.582  25.196  0.00  0.00    +0.179 C 
ATOM      4  C   UNL     1       4.133  -4.759  23.684  0.00  0.00    +0.177 C 
ATOM      5  O   UNL     1       5.241  -5.601  23.326  0.00  0.00    -0.346 OA
ENDROOT
BRANCH   1  12
ATOM      6  N   UNL     1      10.198  -1.735  23.227  0.00  0.00    -0.343 N 
ATOM      7  H   UNL     1      10.207  -1.259  22.334  0.00  0.00    +0.144 HD
ATOM      8  H   UNL     1      11.112  -2.064  23.524  0.00  0.00    +0.144 HD
ATOM      9  C   UNL     1       9.216  -2.660  23.443  0.00  0.00    +0.123 A 
ATOM     10  C   UNL     1       7.914  -2.501  22.776  0.00  0.00    +0.061 A 
ATOM     11  C   UNL     1       7.007  -3.438  23.045  0.00  0.00    +0.096 A 
ATOM     12  N   UNL     1       7.275  -4.469  23.912  0.00  0.00    -0.270 N 
ATOM     13  C   UNL     1       8.536  -4.593  24.511  0.00  0.00    +0.352 A 
ATOM     14  O   UNL     1       8.772  -5.517  25.288  0.00  0.00    -0.244 OA
ATOM     15  N   UNL     1       9.493  -3.649  24.232  0.00  0.00    -0.178 NA
ENDBRANCH   1  12
BRANCH   3  16
ATOM     16  O   UNL     1       3.972  -3.202  25.515  0.00  0.00    -0.386 OA
ATOM     17  H   UNL     1       4.530  -2.673  24.920  0.00  0.00    +0.210 HD
ENDBRANCH   3  16
BRANCH   2  18
ATOM     18  O   UNL     1       5.429  -6.189  26.483  0.00  0.00    -0.276 OA
BRANCH  18  19
ATOM     19  P   UNL     1       5.937  -6.080  27.995  0.00  0.00    +0.473 P 
ATOM     20  O   UNL     1       5.384  -4.979  28.829  0.00  0.00    -0.228 OA
BRANCH  19  21
ATOM     21  O   UNL     1       7.527  -6.091  27.898  0.00  0.00    -0.303 OA
ATOM     22  H   UNL     1       7.938  -5.567  28.608  0.00  0.00    +0.222 HD
ENDBRANCH  19  21
BRANCH  19  23
ATOM     23  O   UNL     1       5.613  -7.527  28.586  0.00  0.00    -0.303 OA
ATOM     24  H   UNL     1       4.664  -7.734  28.541  0.00  0.00    +0.222 HD
ENDBRANCH  19  23
ENDBRANCH  18  19
ENDBRANCH   2  18
BRANCH   4  25
ATOM     25  C   UNL     1       2.847  -5.388  23.159  0.00  0.00    +0.190 C 
BRANCH  25  26
ATOM     26  O   UNL     1       3.077  -6.736  22.764  0.00  0.00    -0.392 OA
ATOM     27  H   UNL     1       4.043  -6.821  22.638  0.00  0.00    +0.210 HD
ENDBRANCH  25  26
ENDBRANCH   4  25
TORSDOF 8
ENDMDL
MODEL 8
REMARK VINA RESULT:      -5.9      2.110      3.704
REMARK  Name = 
REMARK  8 active torsions:
REMARK  status: ('A' for Active; 'I' for Inactive)
REMARK    1  A    between atoms: N_6  and  C_9
REMARK    2  A    between atoms: C_12  and  C_14
REMARK    3  A    between atoms: C_14  and  O_15
REMARK    4  A    between atoms: C_16  and  O_18
REMARK    5  A    between atoms: C_19  and  O_21
REMARK    6  A    between atoms: O_21  and  P_22
REMARK    7  A    between atoms: P_22  and  O_23
REMARK    8  A    between atoms: P_22  and  O_24
REMARK                            x       y       z     vdW  Elec       q    Type
REMARK                         _______ _______ _______ _____ _____    ______ ____
ROOT
ATOM      1  C   UNL     1       7.839  -1.831  24.729  0.00  0.00    +0.256 C 
ATOM      2  C   UNL     1       6.829  -2.741  24.003  0.00  0.00    +0.211 C 
ATOM      3  C   UNL     1       7.511  -4.104  23.947  0.00  0.00    +0.179 C 
ATOM      4  C   UNL     1       8.847  -3.922  24.654  0.00  0.00    +0.177 C 
ATOM      5  O   UNL     1       8.786  -2.693  25.394  0.00  0.00    -0.346 OA
ENDROOT
BRANCH   1  12
ATOM      6  N   UNL     1      10.071   2.085  21.545  0.00  0.00    -0.343 N 
ATOM      7  H   UNL     1      10.625   1.825  20.740  0.00  0.00    +0.144 HD
ATOM      8  H   UNL     1      10.481   2.828  22.102  0.00  0.00    +0.144 HD
ATOM      9  C   UNL     1       9.560   1.078  22.315  0.00  0.00    +0.123 A 
ATOM     10  C   UNL     1       9.241  -0.217  21.693  0.00  0.00    +0.061 A 
ATOM     11  C   UNL     1       8.738  -1.143  22.507  0.00  0.00    +0.096 A 
ATOM     12  N   UNL     1       8.516  -0.884  23.838  0.00  0.00    -0.270 N 
ATOM     13  C   UNL     1       8.853   0.358  24.394  0.00  0.00    +0.352 A 
ATOM     14  O   UNL     1       8.650   0.587  25.585  0.00  0.00    -0.244 OA
ATOM     15  N   UNL     1       9.390   1.321  23.576  0.00  0.00    -0.178 NA
ENDBRANCH   1  12
BRANCH   3  16
ATOM     16  O   UNL     1       7.740  -4.478  22.588  0.00  0.00    -0.386 OA
ATOM     17  H   UNL     1       8.015  -3.686  22.094  0.00  0.00    +0.210 HD
ENDBRANCH   3  16
BRANCH   2  18
ATOM     18  O   UNL     1       5.631  -2.826  24.779  0.00  0.00    -0.276 OA
BRANCH  18  19
ATOM     19  P   UNL     1       4.549  -3.937  24.392  0.00  0.00    +0.473 P 
ATOM     20  O   UNL     1       4.694  -5.283  25.008  0.00  0.00    -0.228 OA
BRANCH  19  21
ATOM     21  O   UNL     1       4.518  -3.948  22.800  0.00  0.00    -0.303 OA
ATOM     22  H   UNL     1       3.711  -3.533  22.449  0.00  0.00    +0.222 HD
ENDBRANCH  19  21
BRANCH  19  23
ATOM     23  O   UNL     1       3.165  -3.233  24.764  0.00  0.00    -0.303 OA
ATOM     24  H   UNL     1       2.523  -3.285  24.035  0.00  0.00    +0.222 HD
ENDBRANCH  19  23
ENDBRANCH  18  19
ENDBRANCH   2  18
BRANCH   4  25
ATOM     25  C   UNL     1       9.193  -5.057  25.612  0.00  0.00    +0.190 C 
BRANCH  25  26
ATOM     26  O   UNL     1      10.526  -5.506  25.391  0.00  0.00    -0.392 OA
ATOM     27  H   UNL     1      11.110  -4.774  25.670  0.00  0.00    +0.210 HD
ENDBRANCH  25  26
ENDBRANCH   4  25
TORSDOF 8
ENDMDL
MODEL 9
REMARK VINA RESULT:      -5.9      2.752      5.429
REMARK  Name = 
REMARK  8 active torsions:
REMARK  status: ('A' for Active; 'I' for Inactive)
REMARK    1  A    between atoms: N_6  and  C_9
REMARK    2  A    between atoms: C_12  and  C_14
REMARK    3  A    between atoms: C_14  and  O_15
REMARK    4  A    between atoms: C_16  and  O_18
REMARK    5  A    between atoms: C_19  and  O_21
REMARK    6  A    between atoms: O_21  and  P_22
REMARK    7  A    between atoms: P_22  and  O_23
REMARK    8  A    between atoms: P_22  and  O_24
REMARK                            x       y       z     vdW  Elec       q    Type
REMARK                         _______ _______ _______ _____ _____    ______ ____
ROOT
ATOM      1  C   UNL     1       7.499  -1.203  23.669  0.00  0.00    +0.256 C 
ATOM      2  C   UNL     1       9.016  -1.316  23.918  0.00  0.00    +0.211 C 
ATOM      3  C   UNL     1       9.654  -0.561  22.758  0.00  0.00    +0.179 C 
ATOM      4  C   UNL     1       8.493  -0.035  21.924  0.00  0.00    +0.177 C 
ATOM      5  O   UNL     1       7.303  -0.132  22.723  0.00  0.00    -0.346 OA
ENDROOT
BRANCH   1  12
ATOM      6  N   UNL     1       5.093  -5.993  22.359  0.00  0.00    -0.343 N 
ATOM      7  H   UNL     1       5.307  -6.442  21.478  0.00  0.00    +0.144 HD
ATOM      8  H   UNL     1       4.102  -5.986  22.584  0.00  0.00    +0.144 HD
ATOM      9  C   UNL     1       5.696  -4.797  22.626  0.00  0.00    +0.123 A 
ATOM     10  C   UNL     1       7.023  -4.514  22.056  0.00  0.00    +0.061 A 
ATOM     11  C   UNL     1       7.549  -3.331  22.370  0.00  0.00    +0.096 A 
ATOM     12  N   UNL     1       6.892  -2.450  23.195  0.00  0.00    -0.270 N 
ATOM     13  C   UNL     1       5.619  -2.752  23.699  0.00  0.00    +0.352 A 
ATOM     14  O   UNL     1       5.036  -1.962  24.439  0.00  0.00    -0.244 OA
ATOM     15  N   UNL     1       5.051  -3.959  23.373  0.00  0.00    -0.178 NA
ENDBRANCH   1  12
BRANCH   3  16
ATOM     16  O   UNL     1      10.440  -1.454  21.968  0.00  0.00    -0.386 OA
ATOM     17  H   UNL     1      10.669  -2.225  22.515  0.00  0.00    +0.210 HD
ENDBRANCH   3  16
BRANCH   2  18
ATOM     18  O   UNL     1       9.338  -0.675  25.155  0.00  0.00    -0.276 OA
BRANCH  18  19
ATOM     19  P   UNL     1       8.452  -1.012  26.442  0.00  0.00    +0.473 P 
ATOM     20  O   UNL     1       8.005  -2.420  26.621  0.00  0.00    -0.228 OA
BRANCH  19  21
ATOM     21  O   UNL     1       7.266   0.051  26.419  0.00  0.00    -0.303 OA
ATOM     22  H   UNL     1       7.598   0.966  26.400  0.00  0.00    +0.222 HD
ENDBRANCH  19  21
BRANCH  19  23
ATOM     23  O   UNL     1       9.362  -0.494  27.647  0.00  0.00    -0.303 OA
ATOM     24  H   UNL     1       9.725  -1.229  28.170  0.00  0.00    +0.222 HD
ENDBRANCH  19  23
ENDBRANCH  18  19
ENDBRANCH   2  18
BRANCH   4  25
ATOM     25  C   UNL     1       8.667   1.411  21.473  0.00  0.00    +0.190 C 
BRANCH  25  26
ATOM     26  O   UNL     1      10.039   1.788  21.528  0.00  0.00    -0.392 OA
ATOM     27  H   UNL     1      10.530   1.097  21.041  0.00  0.00    +0.210 HD
ENDBRANCH  25  26
ENDBRANCH   4  25
TORSDOF 8
ENDMDL
