MODEL 1
REMARK VINA RESULT:      -8.8      0.000      0.000
REMARK  Name = 
REMARK  2 active torsions:
REMARK  status: ('A' for Active; 'I' for Inactive)
REMARK    1  A    between atoms: N_15  and  C_16
REMARK    2  A    between atoms: C_16  and  C_17
REMARK                            x       y       z     vdW  Elec       q    Type
REMARK                         _______ _______ _______ _____ _____    ______ ____
ROOT
ATOM      1  N   UNL     1      10.577   5.901  23.265  0.00  0.00    -0.329 N 
ATOM      2  H   UNL     1       9.924   6.631  23.014  0.00  0.00    +0.145 HD
ATOM      3  H   UNL     1      11.268   5.727  22.541  0.00  0.00    +0.145 HD
ATOM      4  C   UNL     1      10.054   4.748  23.749  0.00  0.00    +0.194 A 
ATOM      5  N   UNL     1       8.927   4.845  24.509  0.00  0.00    -0.295 N 
ATOM      6  H   UNL     1       8.548   5.749  24.732  0.00  0.00    +0.172 HD
ATOM      7  C   UNL     1       8.307   3.765  25.093  0.00  0.00    +0.260 A 
ATOM      8  O   UNL     1       7.324   3.900  25.816  0.00  0.00    -0.267 OA
ATOM      9  C   UNL     1       8.882   2.444  24.777  0.00  0.00    +0.067 A 
ATOM     10  C   UNL     1      10.022   2.441  23.967  0.00  0.00    +0.082 A 
ATOM     11  C   UNL     1      10.586   1.227  23.580  0.00  0.00    +0.056 A 
ATOM     12  C   UNL     1       9.935   0.062  23.983  0.00  0.00    +0.069 A 
ATOM     13  N   UNL     1      10.168  -1.251  23.690  0.00  0.00    -0.326 N 
ATOM     14  H   UNL     1      10.916  -1.616  23.123  0.00  0.00    +0.169 HD
ATOM     15  C   UNL     1       9.210  -2.017  24.292  0.00  0.00    +0.194 A 
ATOM     16  N   UNL     1       9.258  -3.341  24.050  0.00  0.00    -0.311 N 
ATOM     17  H   UNL     1       9.259  -3.632  23.077  0.00  0.00    +0.149 HD
ATOM     18  N   UNL     1       8.415  -1.275  25.030  0.00  0.00    -0.215 NA
ATOM     19  C   UNL     1       8.816   0.034  24.807  0.00  0.00    +0.092 A 
ATOM     20  C   UNL     1       8.276   1.256  25.243  0.00  0.00    +0.045 A 
ATOM     21  N   UNL     1      10.615   3.617  23.477  0.00  0.00    -0.216 NA
ENDROOT
BRANCH  16  22
ATOM     22  C   UNL     1       8.556  -4.286  24.894  0.00  0.00    +0.140 C 
BRANCH  22  23
ATOM     23  C   UNL     1       7.402  -4.879  24.091  0.00  0.00    -0.023 A 
ATOM     24  C   UNL     1       6.280  -5.536  24.677  0.00  0.00    -0.013 A 
ATOM     25  C   UNL     1       5.319  -6.135  23.818  0.00  0.00    -0.018 A 
ATOM     26  C   UNL     1       4.250  -6.872  24.353  0.00  0.00    +0.008 A 
ATOM     27  C   UNL     1       4.093  -7.014  25.730  0.00  0.00    +0.001 A 
ATOM     28  C   UNL     1       4.982  -6.381  26.586  0.00  0.00    +0.001 A 
ATOM     29  C   UNL     1       5.431  -6.003  22.429  0.00  0.00    +0.008 A 
ATOM     30  C   UNL     1       6.493  -5.304  21.866  0.00  0.00    +0.001 A 
ATOM     31  C   UNL     1       6.055  -5.647  26.069  0.00  0.00    +0.009 A 
ATOM     32  C   UNL     1       7.471  -4.756  22.688  0.00  0.00    +0.006 A 
ENDBRANCH  22  23
ENDBRANCH  16  22
TORSDOF 2
ENDMDL
MODEL 2
REMARK VINA RESULT:      -8.5      1.550      2.938
REMARK  Name = 
REMARK  2 active torsions:
REMARK  status: ('A' for Active; 'I' for Inactive)
REMARK    1  A    between atoms: N_15  and  C_16
REMARK    2  A    between atoms: C_16  and  C_17
REMARK                            x       y       z     vdW  Elec       q    Type
REMARK                         _______ _______ _______ _____ _____    ______ ____
ROOT
ATOM      1  N   UNL     1       8.849   5.464  24.320  0.00  0.00    -0.329 N 
ATOM      2  H   UNL     1       9.651   6.015  24.045  0.00  0.00    +0.145 HD
ATOM      3  H   UNL     1       8.491   5.722  25.235  0.00  0.00    +0.145 HD
ATOM      4  C   UNL     1       8.949   4.120  24.179  0.00  0.00    +0.194 A 
ATOM      5  N   UNL     1       9.674   3.655  23.123  0.00  0.00    -0.295 N 
ATOM      6  H   UNL     1      10.064   4.302  22.459  0.00  0.00    +0.172 HD
ATOM      7  C   UNL     1       9.832   2.320  22.837  0.00  0.00    +0.260 A 
ATOM      8  O   UNL     1      10.449   1.942  21.843  0.00  0.00    -0.267 OA
ATOM      9  C   UNL     1       9.240   1.378  23.805  0.00  0.00    +0.067 A 
ATOM     10  C   UNL     1       8.538   1.947  24.872  0.00  0.00    +0.082 A 
ATOM     11  C   UNL     1       7.999   1.121  25.857  0.00  0.00    +0.056 A 
ATOM     12  C   UNL     1       8.246  -0.247  25.750  0.00  0.00    +0.069 A 
ATOM     13  N   UNL     1       7.954  -1.285  26.587  0.00  0.00    -0.326 N 
ATOM     14  H   UNL     1       7.452  -1.233  27.458  0.00  0.00    +0.169 HD
ATOM     15  C   UNL     1       8.458  -2.439  26.054  0.00  0.00    +0.194 A 
ATOM     16  N   UNL     1       8.310  -3.557  26.791  0.00  0.00    -0.311 N 
ATOM     17  H   UNL     1       8.658  -3.530  27.745  0.00  0.00    +0.149 HD
ATOM     18  N   UNL     1       8.991  -2.214  24.874  0.00  0.00    -0.215 NA
ATOM     19  C   UNL     1       8.919  -0.841  24.690  0.00  0.00    +0.092 A 
ATOM     20  C   UNL     1       9.417  -0.016  23.667  0.00  0.00    +0.045 A 
ATOM     21  N   UNL     1       8.380   3.334  25.031  0.00  0.00    -0.216 NA
ENDROOT
BRANCH  16  22
ATOM     22  C   UNL     1       8.458  -4.872  26.201  0.00  0.00    +0.140 C 
BRANCH  22  23
ATOM     23  C   UNL     1       7.089  -5.331  25.709  0.00  0.00    -0.023 A 
ATOM     24  C   UNL     1       6.732  -5.436  24.332  0.00  0.00    -0.013 A 
ATOM     25  C   UNL     1       5.393  -5.779  24.001  0.00  0.00    -0.018 A 
ATOM     26  C   UNL     1       4.977  -5.803  22.660  0.00  0.00    +0.008 A 
ATOM     27  C   UNL     1       5.865  -5.515  21.626  0.00  0.00    +0.001 A 
ATOM     28  C   UNL     1       7.193  -5.244  21.925  0.00  0.00    +0.001 A 
ATOM     29  C   UNL     1       4.472  -6.091  25.009  0.00  0.00    +0.008 A 
ATOM     30  C   UNL     1       4.844  -6.050  26.347  0.00  0.00    +0.001 A 
ATOM     31  C   UNL     1       7.623  -5.212  23.256  0.00  0.00    +0.009 A 
ATOM     32  C   UNL     1       6.136  -5.666  26.693  0.00  0.00    +0.006 A 
ENDBRANCH  22  23
ENDBRANCH  16  22
TORSDOF 2
ENDMDL
MODEL 3
REMARK VINA RESULT:      -8.4      3.110      9.723
REMARK  Name = 
REMARK  2 active torsions:
REMARK  status: ('A' for Active; 'I' for Inactive)
REMARK    1  A    between atoms: N_15  and  C_16
REMARK    2  A    between atoms: C_16  and  C_17
REMARK                            x       y       z     vdW  Elec       q    Type
REMARK                         _______ _______ _______ _____ _____    ______ ____
ROOT
ATOM      1  N   UNL     1       4.162  -7.511  24.227  0.00  0.00    -0.329 N 
ATOM      2  H   UNL     1       3.363  -7.780  23.668  0.00  0.00    +0.145 HD
ATOM      3  H   UNL     1       3.932  -7.402  25.210  0.00  0.00    +0.145 HD
ATOM      4  C   UNL     1       4.915  -6.482  23.769  0.00  0.00    +0.194 A 
ATOM      5  N   UNL     1       5.049  -6.359  22.419  0.00  0.00    -0.295 N 
ATOM      6  H   UNL     1       4.640  -7.047  21.809  0.00  0.00    +0.172 HD
ATOM      7  C   UNL     1       5.809  -5.386  21.814  0.00  0.00    +0.260 A 
ATOM      8  O   UNL     1       5.949  -5.343  20.594  0.00  0.00    -0.267 OA
ATOM      9  C   UNL     1       6.421  -4.393  22.716  0.00  0.00    +0.067 A 
ATOM     10  C   UNL     1       6.206  -4.584  24.085  0.00  0.00    +0.082 A 
ATOM     11  C   UNL     1       6.706  -3.653  24.994  0.00  0.00    +0.056 A 
ATOM     12  C   UNL     1       7.354  -2.534  24.473  0.00  0.00    +0.069 A 
ATOM     13  N   UNL     1       7.852  -1.416  25.078  0.00  0.00    -0.326 N 
ATOM     14  H   UNL     1       7.862  -1.221  26.065  0.00  0.00    +0.169 HD
ATOM     15  C   UNL     1       8.348  -0.578  24.119  0.00  0.00    +0.194 A 
ATOM     16  N   UNL     1       8.825   0.608  24.544  0.00  0.00    -0.311 N 
ATOM     17  H   UNL     1       8.200   1.182  25.103  0.00  0.00    +0.149 HD
ATOM     18  N   UNL     1       8.271  -1.131  22.930  0.00  0.00    -0.215 NA
ATOM     19  C   UNL     1       7.602  -2.331  23.121  0.00  0.00    +0.092 A 
ATOM     20  C   UNL     1       7.146  -3.294  22.205  0.00  0.00    +0.045 A 
ATOM     21  N   UNL     1       5.463  -5.659  24.599  0.00  0.00    -0.216 NA
ENDROOT
BRANCH  16  22
ATOM     22  C   UNL     1       9.694   1.413  23.711  0.00  0.00    +0.140 C 
BRANCH  22  23
ATOM     23  C   UNL     1       9.378   2.883  23.972  0.00  0.00    -0.023 A 
ATOM     24  C   UNL     1      10.328   3.938  23.830  0.00  0.00    -0.013 A 
ATOM     25  C   UNL     1       9.941   5.255  24.199  0.00  0.00    -0.018 A 
ATOM     26  C   UNL     1      10.873   6.305  24.163  0.00  0.00    +0.008 A 
ATOM     27  C   UNL     1      12.184   6.089  23.746  0.00  0.00    +0.001 A 
ATOM     28  C   UNL     1      12.563   4.825  23.317  0.00  0.00    +0.001 A 
ATOM     29  C   UNL     1       8.628   5.518  24.610  0.00  0.00    +0.008 A 
ATOM     30  C   UNL     1       7.689   4.496  24.683  0.00  0.00    +0.001 A 
ATOM     31  C   UNL     1      11.648   3.767  23.351  0.00  0.00    +0.009 A 
ATOM     32  C   UNL     1       8.063   3.192  24.376  0.00  0.00    +0.006 A 
ENDBRANCH  22  23
ENDBRANCH  16  22
TORSDOF 2
ENDMDL
MODEL 4
REMARK VINA RESULT:      -8.4      3.551      8.711
REMARK  Name = 
REMARK  2 active torsions:
REMARK  status: ('A' for Active; 'I' for Inactive)
REMARK    1  A    between atoms: N_15  and  C_16
REMARK    2  A    between atoms: C_16  and  C_17
REMARK                            x       y       z     vdW  Elec       q    Type
REMARK                         _______ _______ _______ _____ _____    ______ ____
ROOT
ATOM      1  N   UNL     1       2.049  -8.186  24.322  0.00  0.00    -0.329 N 
ATOM      2  H   UNL     1       2.075  -9.130  24.683  0.00  0.00    +0.145 HD
ATOM      3  H   UNL     1       1.765  -8.147  23.348  0.00  0.00    +0.145 HD
ATOM      4  C   UNL     1       3.131  -7.406  24.562  0.00  0.00    +0.194 A 
ATOM      5  N   UNL     1       3.780  -7.587  25.746  0.00  0.00    -0.295 N 
ATOM      6  H   UNL     1       3.421  -8.241  26.421  0.00  0.00    +0.172 HD
ATOM      7  C   UNL     1       4.869  -6.845  26.139  0.00  0.00    +0.260 A 
ATOM      8  O   UNL     1       5.393  -7.002  27.239  0.00  0.00    -0.267 OA
ATOM      9  C   UNL     1       5.376  -5.873  25.152  0.00  0.00    +0.067 A 
ATOM     10  C   UNL     1       4.662  -5.777  23.954  0.00  0.00    +0.082 A 
ATOM     11  C   UNL     1       5.116  -4.921  22.951  0.00  0.00    +0.056 A 
ATOM     12  C   UNL     1       6.312  -4.242  23.183  0.00  0.00    +0.069 A 
ATOM     13  N   UNL     1       7.060  -3.430  22.379  0.00  0.00    -0.326 N 
ATOM     14  H   UNL     1       6.839  -3.148  21.438  0.00  0.00    +0.169 HD
ATOM     15  C   UNL     1       8.184  -3.051  23.057  0.00  0.00    +0.194 A 
ATOM     16  N   UNL     1       9.068  -2.292  22.379  0.00  0.00    -0.311 N 
ATOM     17  H   UNL     1       9.402  -2.656  21.492  0.00  0.00    +0.149 HD
ATOM     18  N   UNL     1       8.163  -3.507  24.289  0.00  0.00    -0.215 NA
ATOM     19  C   UNL     1       7.029  -4.300  24.372  0.00  0.00    +0.092 A 
ATOM     20  C   UNL     1       6.545  -5.121  25.405  0.00  0.00    +0.045 A 
ATOM     21  N   UNL     1       3.515  -6.541  23.683  0.00  0.00    -0.216 NA
ENDROOT
BRANCH  16  22
ATOM     22  C   UNL     1      10.090  -1.530  23.068  0.00  0.00    +0.140 C 
BRANCH  22  23
ATOM     23  C   UNL     1       9.637  -0.074  23.131  0.00  0.00    -0.023 A 
ATOM     24  C   UNL     1       8.920   0.489  24.228  0.00  0.00    -0.013 A 
ATOM     25  C   UNL     1       8.467   1.832  24.126  0.00  0.00    -0.018 A 
ATOM     26  C   UNL     1       7.678   2.394  25.143  0.00  0.00    +0.008 A 
ATOM     27  C   UNL     1       7.342   1.664  26.279  0.00  0.00    +0.001 A 
ATOM     28  C   UNL     1       7.831   0.374  26.429  0.00  0.00    +0.001 A 
ATOM     29  C   UNL     1       8.796   2.607  23.007  0.00  0.00    +0.008 A 
ATOM     30  C   UNL     1       9.551   2.071  21.970  0.00  0.00    +0.001 A 
ATOM     31  C   UNL     1       8.614  -0.203  25.424  0.00  0.00    +0.009 A 
ATOM     32  C   UNL     1       9.959   0.743  22.029  0.00  0.00    +0.006 A 
ENDBRANCH  22  23
ENDBRANCH  16  22
TORSDOF 2
ENDMDL
MODEL 5
REMARK VINA RESULT:      -8.4      3.566      9.099
REMARK  Name = 
REMARK  2 active torsions:
REMARK  status: ('A' for Active; 'I' for Inactive)
REMARK    1  A    between atoms: N_15  and  C_16
REMARK    2  A    between atoms: C_16  and  C_17
REMARK                            x       y       z     vdW  Elec       q    Type
REMARK                         _______ _______ _______ _____ _____    ______ ____
ROOT
ATOM      1  N   UNL     1       6.773  -6.317  28.239  0.00  0.00    -0.329 N 
ATOM      2  H   UNL     1       6.793  -7.300  28.005  0.00  0.00    +0.145 HD
ATOM      3  H   UNL     1       5.884  -6.027  28.636  0.00  0.00    +0.145 HD
ATOM      4  C   UNL     1       7.208  -5.451  27.292  0.00  0.00    +0.194 A 
ATOM      5  N   UNL     1       8.228  -5.865  26.489  0.00  0.00    -0.295 N 
ATOM      6  H   UNL     1       8.660  -6.759  26.647  0.00  0.00    +0.172 HD
ATOM      7  C   UNL     1       8.794  -5.081  25.511  0.00  0.00    +0.260 A 
ATOM      8  O   UNL     1       9.749  -5.472  24.844  0.00  0.00    -0.267 OA
ATOM      9  C   UNL     1       8.168  -3.763  25.300  0.00  0.00    +0.067 A 
ATOM     10  C   UNL     1       7.109  -3.435  26.152  0.00  0.00    +0.082 A 
ATOM     11  C   UNL     1       6.432  -2.230  25.974  0.00  0.00    +0.056 A 
ATOM     12  C   UNL     1       6.820  -1.431  24.900  0.00  0.00    +0.069 A 
ATOM     13  N   UNL     1       6.300  -0.270  24.404  0.00  0.00    -0.326 N 
ATOM     14  H   UNL     1       5.522   0.248  24.777  0.00  0.00    +0.169 HD
ATOM     15  C   UNL     1       7.010   0.094  23.294  0.00  0.00    +0.194 A 
ATOM     16  N   UNL     1       6.584   1.193  22.642  0.00  0.00    -0.311 N 
ATOM     17  H   UNL     1       5.611   1.210  22.353  0.00  0.00    +0.149 HD
ATOM     18  N   UNL     1       8.016  -0.727  23.092  0.00  0.00    -0.215 NA
ATOM     19  C   UNL     1       7.882  -1.720  24.052  0.00  0.00    +0.092 A 
ATOM     20  C   UNL     1       8.601  -2.909  24.261  0.00  0.00    +0.045 A 
ATOM     21  N   UNL     1       6.654  -4.291  27.170  0.00  0.00    -0.216 NA
ENDROOT
BRANCH  16  22
ATOM     22  C   UNL     1       7.438   1.887  21.698  0.00  0.00    +0.140 C 
BRANCH  22  23
ATOM     23  C   UNL     1       8.320   2.857  22.478  0.00  0.00    -0.023 A 
ATOM     24  C   UNL     1       7.909   4.165  22.873  0.00  0.00    -0.013 A 
ATOM     25  C   UNL     1       8.856   5.013  23.507  0.00  0.00    -0.018 A 
ATOM     26  C   UNL     1       8.520   6.338  23.828  0.00  0.00    +0.008 A 
ATOM     27  C   UNL     1       7.252   6.845  23.555  0.00  0.00    +0.001 A 
ATOM     28  C   UNL     1       6.292   6.013  22.997  0.00  0.00    +0.001 A 
ATOM     29  C   UNL     1      10.138   4.538  23.814  0.00  0.00    +0.008 A 
ATOM     30  C   UNL     1      10.511   3.241  23.484  0.00  0.00    +0.001 A 
ATOM     31  C   UNL     1       6.612   4.691  22.668  0.00  0.00    +0.009 A 
ATOM     32  C   UNL     1       9.615   2.413  22.816  0.00  0.00    +0.006 A 
ENDBRANCH  22  23
ENDBRANCH  16  22
TORSDOF 2
ENDMDL
MODEL 6
REMARK VINA RESULT:      -8.4      3.169      9.481
REMARK  Name = 
REMARK  2 active torsions:
REMARK  status: ('A' for Active; 'I' for Inactive)
REMARK    1  A    between atoms: N_15  and  C_16
REMARK    2  A    between atoms: C_16  and  C_17
REMARK                            x       y       z     vdW  Elec       q    Type
REMARK                         _______ _______ _______ _____ _____    ______ ____
ROOT
ATOM      1  N   UNL     1       3.151  -6.818  22.940  0.00  0.00    -0.329 N 
ATOM      2  H   UNL     1       3.328  -7.811  23.014  0.00  0.00    +0.145 HD
ATOM      3  H   UNL     1       2.844  -6.543  22.011  0.00  0.00    +0.145 HD
ATOM      4  C   UNL     1       4.104  -5.985  23.422  0.00  0.00    +0.194 A 
ATOM      5  N   UNL     1       4.797  -6.399  24.520  0.00  0.00    -0.295 N 
ATOM      6  H   UNL     1       4.556  -7.267  24.968  0.00  0.00    +0.172 HD
ATOM      7  C   UNL     1       5.767  -5.645  25.137  0.00  0.00    +0.260 A 
ATOM      8  O   UNL     1       6.331  -6.031  26.158  0.00  0.00    -0.267 OA
ATOM      9  C   UNL     1       6.099  -4.364  24.486  0.00  0.00    +0.067 A 
ATOM     10  C   UNL     1       5.355  -4.035  23.348  0.00  0.00    +0.082 A 
ATOM     11  C   UNL     1       5.652  -2.868  22.647  0.00  0.00    +0.056 A 
ATOM     12  C   UNL     1       6.733  -2.110  23.096  0.00  0.00    +0.069 A 
ATOM     13  N   UNL     1       7.332  -0.997  22.579  0.00  0.00    -0.326 N 
ATOM     14  H   UNL     1       7.052  -0.492  21.754  0.00  0.00    +0.169 HD
ATOM     15  C   UNL     1       8.398  -0.662  23.366  0.00  0.00    +0.194 A 
ATOM     16  N   UNL     1       9.141   0.385  22.959  0.00  0.00    -0.311 N 
ATOM     17  H   UNL     1       9.509   0.348  22.013  0.00  0.00    +0.149 HD
ATOM     18  N   UNL     1       8.472  -1.452  24.413  0.00  0.00    -0.215 NA
ATOM     19  C   UNL     1       7.475  -2.400  24.235  0.00  0.00    +0.092 A 
ATOM     20  C   UNL     1       7.143  -3.548  24.975  0.00  0.00    +0.045 A 
ATOM     21  N   UNL     1       4.334  -4.855  22.840  0.00  0.00    -0.216 NA
ENDROOT
BRANCH  16  22
ATOM     22  C   UNL     1      10.048   1.062  23.864  0.00  0.00    +0.140 C 
BRANCH  22  23
ATOM     23  C   UNL     1       9.502   2.463  24.125  0.00  0.00    -0.023 A 
ATOM     24  C   UNL     1      10.249   3.660  23.914  0.00  0.00    -0.013 A 
ATOM     25  C   UNL     1       9.666   4.900  24.290  0.00  0.00    -0.018 A 
ATOM     26  C   UNL     1      10.401   6.092  24.185  0.00  0.00    +0.008 A 
ATOM     27  C   UNL     1      11.704   6.091  23.693  0.00  0.00    +0.001 A 
ATOM     28  C   UNL     1      12.267   4.900  23.257  0.00  0.00    +0.001 A 
ATOM     29  C   UNL     1       8.353   4.947  24.775  0.00  0.00    +0.008 A 
ATOM     30  C   UNL     1       7.607   3.783  24.917  0.00  0.00    +0.001 A 
ATOM     31  C   UNL     1      11.550   3.704  23.359  0.00  0.00    +0.009 A 
ATOM     32  C   UNL     1       8.179   2.554  24.603  0.00  0.00    +0.006 A 
ENDBRANCH  22  23
ENDBRANCH  16  22
TORSDOF 2
ENDMDL
MODEL 7
REMARK VINA RESULT:      -8.3      3.381      8.409
REMARK  Name = 
REMARK  2 active torsions:
REMARK  status: ('A' for Active; 'I' for Inactive)
REMARK    1  A    between atoms: N_15  and  C_16
REMARK    2  A    between atoms: C_16  and  C_17
REMARK                            x       y       z     vdW  Elec       q    Type
REMARK                         _______ _______ _______ _____ _____    ______ ____
ROOT
ATOM      1  N   UNL     1       6.533  -6.924  29.091  0.00  0.00    -0.329 N 
ATOM      2  H   UNL     1       6.058  -6.743  29.965  0.00  0.00    +0.145 HD
ATOM      3  H   UNL     1       7.466  -7.303  29.224  0.00  0.00    +0.145 HD
ATOM      4  C   UNL     1       6.518  -5.934  28.166  0.00  0.00    +0.194 A 
ATOM      5  N   UNL     1       5.401  -5.157  28.102  0.00  0.00    -0.295 N 
ATOM      6  H   UNL     1       4.612  -5.362  28.690  0.00  0.00    +0.172 HD
ATOM      7  C   UNL     1       5.233  -4.139  27.192  0.00  0.00    +0.260 A 
ATOM      8  O   UNL     1       4.188  -3.497  27.130  0.00  0.00    -0.267 OA
ATOM      9  C   UNL     1       6.388  -3.858  26.319  0.00  0.00    +0.067 A 
ATOM     10  C   UNL     1       7.501  -4.689  26.476  0.00  0.00    +0.082 A 
ATOM     11  C   UNL     1       8.650  -4.447  25.725  0.00  0.00    +0.056 A 
ATOM     12  C   UNL     1       8.643  -3.332  24.888  0.00  0.00    +0.069 A 
ATOM     13  N   UNL     1       9.624  -2.775  24.119  0.00  0.00    -0.326 N 
ATOM     14  H   UNL     1      10.563  -3.119  24.000  0.00  0.00    +0.169 HD
ATOM     15  C   UNL     1       9.132  -1.649  23.520  0.00  0.00    +0.194 A 
ATOM     16  N   UNL     1       9.997  -0.939  22.770  0.00  0.00    -0.311 N 
ATOM     17  H   UNL     1      10.861  -0.647  23.216  0.00  0.00    +0.149 HD
ATOM     18  N   UNL     1       7.857  -1.493  23.796  0.00  0.00    -0.215 NA
ATOM     19  C   UNL     1       7.545  -2.503  24.694  0.00  0.00    +0.092 A 
ATOM     20  C   UNL     1       6.367  -2.777  25.410  0.00  0.00    +0.045 A 
ATOM     21  N   UNL     1       7.539  -5.749  27.397  0.00  0.00    -0.216 NA
ENDROOT
BRANCH  16  22
ATOM     22  C   UNL     1       9.532   0.038  21.807  0.00  0.00    +0.140 C 
BRANCH  22  23
ATOM     23  C   UNL     1       9.514   1.405  22.483  0.00  0.00    -0.023 A 
ATOM     24  C   UNL     1       8.348   2.217  22.606  0.00  0.00    -0.013 A 
ATOM     25  C   UNL     1       8.480   3.516  23.168  0.00  0.00    -0.018 A 
ATOM     26  C   UNL     1       7.376   4.382  23.222  0.00  0.00    +0.008 A 
ATOM     27  C   UNL     1       6.127   3.985  22.750  0.00  0.00    +0.001 A 
ATOM     28  C   UNL     1       5.962   2.698  22.259  0.00  0.00    +0.001 A 
ATOM     29  C   UNL     1       9.714   3.948  23.669  0.00  0.00    +0.008 A 
ATOM     30  C   UNL     1      10.833   3.126  23.605  0.00  0.00    +0.001 A 
ATOM     31  C   UNL     1       7.052   1.824  22.195  0.00  0.00    +0.009 A 
ATOM     32  C   UNL     1      10.735   1.872  23.011  0.00  0.00    +0.006 A 
ENDBRANCH  22  23
ENDBRANCH  16  22
TORSDOF 2
ENDMDL
MODEL 8
REMARK VINA RESULT:      -8.2      3.237      9.137
REMARK  Name = 
REMARK  2 active torsions:
REMARK  status: ('A' for Active; 'I' for Inactive)
REMARK    1  A    between atoms: N_15  and  C_16
REMARK    2  A    between atoms: C_16  and  C_17
REMARK                            x       y       z     vdW  Elec       q    Type
REMARK                         _______ _______ _______ _____ _____    ______ ____
ROOT
ATOM      1  N   UNL     1       5.330  -7.517  28.303  0.00  0.00    -0.329 N 
ATOM      2  H   UNL     1       4.345  -7.721  28.410  0.00  0.00    +0.145 HD
ATOM      3  H   UNL     1       5.772  -7.256  29.179  0.00  0.00    +0.145 HD
ATOM      4  C   UNL     1       5.680  -6.683  27.294  0.00  0.00    +0.194 A 
ATOM      5  N   UNL     1       4.944  -6.746  26.149  0.00  0.00    -0.295 N 
ATOM      6  H   UNL     1       4.210  -7.429  26.060  0.00  0.00    +0.172 HD
ATOM      7  C   UNL     1       5.204  -5.986  25.033  0.00  0.00    +0.260 A 
ATOM      8  O   UNL     1       4.551  -6.111  24.001  0.00  0.00    -0.267 OA
ATOM      9  C   UNL     1       6.294  -5.001  25.165  0.00  0.00    +0.067 A 
ATOM     10  C   UNL     1       6.975  -4.990  26.386  0.00  0.00    +0.082 A 
ATOM     11  C   UNL     1       7.979  -4.048  26.603  0.00  0.00    +0.056 A 
ATOM     12  C   UNL     1       8.212  -3.116  25.592  0.00  0.00    +0.069 A 
ATOM     13  N   UNL     1       9.033  -2.027  25.540  0.00  0.00    -0.326 N 
ATOM     14  H   UNL     1       9.669  -1.718  26.257  0.00  0.00    +0.169 HD
ATOM     15  C   UNL     1       8.859  -1.399  24.338  0.00  0.00    +0.194 A 
ATOM     16  N   UNL     1       9.555  -0.261  24.148  0.00  0.00    -0.311 N 
ATOM     17  H   UNL     1       9.448   0.467  24.847  0.00  0.00    +0.149 HD
ATOM     18  N   UNL     1       8.028  -2.072  23.576  0.00  0.00    -0.215 NA
ATOM     19  C   UNL     1       7.568  -3.119  24.361  0.00  0.00    +0.092 A 
ATOM     20  C   UNL     1       6.592  -4.101  24.118  0.00  0.00    +0.045 A 
ATOM     21  N   UNL     1       6.667  -5.864  27.442  0.00  0.00    -0.216 NA
ENDROOT
BRANCH  16  22
ATOM     22  C   UNL     1       9.749   0.290  22.822  0.00  0.00    +0.140 C 
BRANCH  22  23
ATOM     23  C   UNL     1       8.946   1.584  22.721  0.00  0.00    -0.023 A 
ATOM     24  C   UNL     1       9.477   2.874  23.019  0.00  0.00    -0.013 A 
ATOM     25  C   UNL     1       8.602   3.993  22.984  0.00  0.00    -0.018 A 
ATOM     26  C   UNL     1       9.061   5.266  23.360  0.00  0.00    +0.008 A 
ATOM     27  C   UNL     1      10.382   5.466  23.753  0.00  0.00    +0.001 A 
ATOM     28  C   UNL     1      11.269   4.400  23.728  0.00  0.00    +0.001 A 
ATOM     29  C   UNL     1       7.269   3.838  22.581  0.00  0.00    +0.008 A 
ATOM     30  C   UNL     1       6.776   2.587  22.229  0.00  0.00    +0.001 A 
ATOM     31  C   UNL     1      10.827   3.125  23.360  0.00  0.00    +0.009 A 
ATOM     32  C   UNL     1       7.603   1.472  22.307  0.00  0.00    +0.006 A 
ENDBRANCH  22  23
ENDBRANCH  16  22
TORSDOF 2
ENDMDL
MODEL 9
REMARK VINA RESULT:      -8.2      1.924      2.836
REMARK  Name = 
REMARK  2 active torsions:
REMARK  status: ('A' for Active; 'I' for Inactive)
REMARK    1  A    between atoms: N_15  and  C_16
REMARK    2  A    between atoms: C_16  and  C_17
REMARK                            x       y       z     vdW  Elec       q    Type
REMARK                         _______ _______ _______ _____ _____    ______ ____
ROOT
ATOM      1  N   UNL     1       8.622   6.869  23.380  0.00  0.00    -0.329 N 
ATOM      2  H   UNL     1       9.186   7.381  24.045  0.00  0.00    +0.145 HD
ATOM      3  H   UNL     1       7.632   7.083  23.460  0.00  0.00    +0.145 HD
ATOM      4  C   UNL     1       8.843   5.535  23.286  0.00  0.00    +0.194 A 
ATOM      5  N   UNL     1      10.122   5.101  23.461  0.00  0.00    -0.295 N 
ATOM      6  H   UNL     1      10.864   5.765  23.601  0.00  0.00    +0.172 HD
ATOM      7  C   UNL     1      10.499   3.782  23.360  0.00  0.00    +0.260 A 
ATOM      8  O   UNL     1      11.673   3.437  23.471  0.00  0.00    -0.267 OA
ATOM      9  C   UNL     1       9.408   2.816  23.135  0.00  0.00    +0.067 A 
ATOM     10  C   UNL     1       8.124   3.351  22.995  0.00  0.00    +0.082 A 
ATOM     11  C   UNL     1       7.036   2.495  22.838  0.00  0.00    +0.056 A 
ATOM     12  C   UNL     1       7.289   1.124  22.887  0.00  0.00    +0.069 A 
ATOM     13  N   UNL     1       6.447   0.050  22.871  0.00  0.00    -0.326 N 
ATOM     14  H   UNL     1       5.444   0.073  22.783  0.00  0.00    +0.169 HD
ATOM     15  C   UNL     1       7.185  -1.093  22.998  0.00  0.00    +0.194 A 
ATOM     16  N   UNL     1       6.498  -2.250  23.063  0.00  0.00    -0.311 N 
ATOM     17  H   UNL     1       5.777  -2.318  23.776  0.00  0.00    +0.149 HD
ATOM     18  N   UNL     1       8.470  -0.820  23.013  0.00  0.00    -0.215 NA
ATOM     19  C   UNL     1       8.556   0.564  23.001  0.00  0.00    +0.092 A 
ATOM     20  C   UNL     1       9.661   1.426  23.107  0.00  0.00    +0.045 A 
ATOM     21  N   UNL     1       7.861   4.730  23.050  0.00  0.00    -0.216 NA
ENDROOT
BRANCH  16  22
ATOM     22  C   UNL     1       7.145  -3.525  22.829  0.00  0.00    +0.140 C 
BRANCH  22  23
ATOM     23  C   UNL     1       7.344  -4.214  24.176  0.00  0.00    -0.023 A 
ATOM     24  C   UNL     1       6.390  -5.095  24.767  0.00  0.00    -0.013 A 
ATOM     25  C   UNL     1       6.646  -5.597  26.072  0.00  0.00    -0.018 A 
ATOM     26  C   UNL     1       5.692  -6.392  26.727  0.00  0.00    +0.008 A 
ATOM     27  C   UNL     1       4.489  -6.725  26.110  0.00  0.00    +0.001 A 
ATOM     28  C   UNL     1       4.249  -6.302  24.811  0.00  0.00    +0.001 A 
ATOM     29  C   UNL     1       7.850  -5.297  26.722  0.00  0.00    +0.008 A 
ATOM     30  C   UNL     1       8.804  -4.490  26.113  0.00  0.00    +0.001 A 
ATOM     31  C   UNL     1       5.187  -5.506  24.146  0.00  0.00    +0.009 A 
ATOM     32  C   UNL     1       8.549  -3.948  24.857  0.00  0.00    +0.006 A 
ENDBRANCH  22  23
ENDBRANCH  16  22
TORSDOF 2
ENDMDL
