MODEL 1
REMARK VINA RESULT:      -5.0      0.000      0.000
REMARK  Name = 
REMARK  5 active torsions:
REMARK  status: ('A' for Active; 'I' for Inactive)
REMARK    1  A    between atoms: C_2  and  C_3
REMARK    2  A    between atoms: C_3  and  N_4
REMARK    3  A    between atoms: N_4  and  C_5
REMARK    4  A    between atoms: N_4  and  P_8
REMARK    5  A    between atoms: C_5  and  C_6
REMARK                            x       y       z     vdW  Elec       q    Type
REMARK                         _______ _______ _______ _____ _____    ______ ____
ROOT
ATOM      1  P   UNL     1       8.982  -3.056  24.226  0.00  0.00    +0.346 P 
ATOM      2  O   UNL     1       9.976  -4.268  24.608  0.00  0.00    -0.305 OA
ATOM      3  C   UNL     1       9.403  -5.338  25.342  0.00  0.00    +0.171 C 
ATOM      4  C   UNL     1       8.829  -4.826  26.657  0.00  0.00    +0.044 C 
ATOM      5  C   UNL     1       7.725  -3.801  26.413  0.00  0.00    +0.093 C 
ATOM      6  N   UNL     1       8.235  -2.686  25.633  0.00  0.00    -0.232 NA
ATOM      7  H   UNL     1       7.484  -2.026  25.462  0.00  0.00    +0.133 HD
ATOM      8  O   UNL     1       8.046  -3.442  23.125  0.00  0.00    -0.254 OA
ENDROOT
BRANCH   1   9
ATOM      9  N   UNL     1       9.940  -1.749  23.949  0.00  0.00    -0.217 NA
BRANCH   9  10
ATOM     10  C   UNL     1      10.339  -1.507  22.554  0.00  0.00    +0.111 C 
BRANCH  10  12
ATOM     11 CL   UNL     1       9.350   0.697  21.303  0.00  0.00    -0.124 Cl
ATOM     12  C   UNL     1       9.220  -1.054  21.614  0.00  0.00    +0.124 C 
ENDBRANCH  10  12
ENDBRANCH   9  10
BRANCH   9  13
ATOM     13  C   UNL     1       9.664  -0.531  24.724  0.00  0.00    +0.111 C 
BRANCH  13  14
ATOM     14  C   UNL     1      10.762   0.532  24.681  0.00  0.00    +0.124 C 
ATOM     15 CL   UNL     1      10.064   2.127  24.300  0.00  0.00    -0.124 Cl
ENDBRANCH  13  14
ENDBRANCH   9  13
ENDBRANCH   1   9
TORSDOF 5
ENDMDL
MODEL 2
REMARK VINA RESULT:      -4.9      0.433      2.172
REMARK  Name = 
REMARK  5 active torsions:
REMARK  status: ('A' for Active; 'I' for Inactive)
REMARK    1  A    between atoms: C_2  and  C_3
REMARK    2  A    between atoms: C_3  and  N_4
REMARK    3  A    between atoms: N_4  and  C_5
REMARK    4  A    between atoms: N_4  and  P_8
REMARK    5  A    between atoms: C_5  and  C_6
REMARK                            x       y       z     vdW  Elec       q    Type
REMARK                         _______ _______ _______ _____ _____    ______ ____
ROOT
ATOM      1  P   UNL     1       8.598  -3.102  24.093  0.00  0.00    +0.346 P 
ATOM      2  O   UNL     1       9.847  -3.986  24.605  0.00  0.00    -0.305 OA
ATOM      3  C   UNL     1       9.525  -5.154  25.342  0.00  0.00    +0.171 C 
ATOM      4  C   UNL     1       8.723  -4.789  26.585  0.00  0.00    +0.044 C 
ATOM      5  C   UNL     1       7.408  -4.112  26.210  0.00  0.00    +0.093 C 
ATOM      6  N   UNL     1       7.660  -2.918  25.421  0.00  0.00    -0.232 NA
ATOM      7  H   UNL     1       6.776  -2.494  25.164  0.00  0.00    +0.133 HD
ATOM      8  O   UNL     1       7.899  -3.756  22.943  0.00  0.00    -0.254 OA
ENDROOT
BRANCH   1   9
ATOM      9  N   UNL     1       9.184  -1.589  23.830  0.00  0.00    -0.217 NA
BRANCH   9  10
ATOM     10  C   UNL     1       9.518  -0.793  25.023  0.00  0.00    +0.111 C 
BRANCH  10  12
ATOM     11 CL   UNL     1       9.610   1.893  24.604  0.00  0.00    -0.124 Cl
ATOM     12  C   UNL     1      10.498   0.359  24.796  0.00  0.00    +0.124 C 
ENDBRANCH  10  12
ENDBRANCH   9  10
BRANCH   9  13
ATOM     13  C   UNL     1      10.104  -1.406  22.700  0.00  0.00    +0.111 C 
BRANCH  13  14
ATOM     14  C   UNL     1       9.449  -0.963  21.391  0.00  0.00    +0.124 C 
ATOM     15 CL   UNL     1       9.296   0.812  21.348  0.00  0.00    -0.124 Cl
ENDBRANCH  13  14
ENDBRANCH   9  13
ENDBRANCH   1   9
TORSDOF 5
ENDMDL
MODEL 3
REMARK VINA RESULT:      -4.7      1.801      2.165
REMARK  Name = 
REMARK  5 active torsions:
REMARK  status: ('A' for Active; 'I' for Inactive)
REMARK    1  A    between atoms: C_2  and  C_3
REMARK    2  A    between atoms: C_3  and  N_4
REMARK    3  A    between atoms: N_4  and  C_5
REMARK    4  A    between atoms: N_4  and  P_8
REMARK    5  A    between atoms: C_5  and  C_6
REMARK                            x       y       z     vdW  Elec       q    Type
REMARK                         _______ _______ _______ _____ _____    ______ ____
ROOT
ATOM      1  P   UNL     1       8.734  -3.017  24.085  0.00  0.00    +0.346 P 
ATOM      2  O   UNL     1       7.839  -3.234  25.409  0.00  0.00    -0.305 OA
ATOM      3  C   UNL     1       7.329  -4.543  25.612  0.00  0.00    +0.171 C 
ATOM      4  C   UNL     1       6.456  -4.956  24.434  0.00  0.00    +0.044 C 
ATOM      5  C   UNL     1       7.259  -4.977  23.136  0.00  0.00    +0.093 C 
ATOM      6  N   UNL     1       7.840  -3.670  22.880  0.00  0.00    -0.232 NA
ATOM      7  H   UNL     1       8.387  -3.708  22.027  0.00  0.00    +0.133 HD
ATOM      8  O   UNL     1      10.091  -3.631  24.235  0.00  0.00    -0.254 OA
ENDROOT
BRANCH   1   9
ATOM      9  N   UNL     1       8.689  -1.406  23.760  0.00  0.00    -0.217 NA
BRANCH   9  10
ATOM     10  C   UNL     1       8.444  -1.021  22.361  0.00  0.00    +0.111 C 
BRANCH  10  12
ATOM     11 CL   UNL     1       9.690   1.307  21.708  0.00  0.00    -0.124 Cl
ATOM     12  C   UNL     1       9.655  -0.473  21.604  0.00  0.00    +0.124 C 
ENDBRANCH  10  12
ENDBRANCH   9  10
BRANCH   9  13
ATOM     13  C   UNL     1       8.051  -0.533  24.753  0.00  0.00    +0.111 C 
BRANCH  13  14
ATOM     14  C   UNL     1       8.872   0.686  25.175  0.00  0.00    +0.124 C 
ATOM     15 CL   UNL     1      10.614   0.343  25.012  0.00  0.00    -0.124 Cl
ENDBRANCH  13  14
ENDBRANCH   9  13
ENDBRANCH   1   9
TORSDOF 5
ENDMDL
MODEL 4
REMARK VINA RESULT:      -4.7      2.577      3.544
REMARK  Name = 
REMARK  5 active torsions:
REMARK  status: ('A' for Active; 'I' for Inactive)
REMARK    1  A    between atoms: C_2  and  C_3
REMARK    2  A    between atoms: C_3  and  N_4
REMARK    3  A    between atoms: N_4  and  C_5
REMARK    4  A    between atoms: N_4  and  P_8
REMARK    5  A    between atoms: C_5  and  C_6
REMARK                            x       y       z     vdW  Elec       q    Type
REMARK                         _______ _______ _______ _____ _____    ______ ____
ROOT
ATOM      1  P   UNL     1       7.864  -4.299  23.714  0.00  0.00    +0.346 P 
ATOM      2  O   UNL     1       6.542  -4.366  24.636  0.00  0.00    -0.305 OA
ATOM      3  C   UNL     1       5.738  -5.526  24.492  0.00  0.00    +0.171 C 
ATOM      4  C   UNL     1       5.261  -5.661  23.051  0.00  0.00    +0.044 C 
ATOM      5  C   UNL     1       6.441  -5.804  22.094  0.00  0.00    +0.093 C 
ATOM      6  N   UNL     1       7.329  -4.660  22.211  0.00  0.00    -0.232 NA
ATOM      7  H   UNL     1       8.116  -4.782  21.584  0.00  0.00    +0.133 HD
ATOM      8  O   UNL     1       8.929  -5.221  24.216  0.00  0.00    -0.254 OA
ENDROOT
BRANCH   1   9
ATOM      9  N   UNL     1       8.264  -2.708  23.602  0.00  0.00    -0.217 NA
BRANCH   9  10
ATOM     10  C   UNL     1       9.379  -2.247  24.445  0.00  0.00    +0.111 C 
BRANCH  10  12
ATOM     11 CL   UNL     1      10.216   0.277  25.019  0.00  0.00    -0.124 Cl
ATOM     12  C   UNL     1       9.073  -1.052  25.350  0.00  0.00    +0.124 C 
ENDBRANCH  10  12
ENDBRANCH   9  10
BRANCH   9  13
ATOM     13  C   UNL     1       8.210  -2.088  22.272  0.00  0.00    +0.111 C 
BRANCH  13  14
ATOM     14  C   UNL     1       9.524  -1.475  21.784  0.00  0.00    +0.124 C 
ATOM     15 CL   UNL     1       9.299   0.255  21.417  0.00  0.00    -0.124 Cl
ENDBRANCH  13  14
ENDBRANCH   9  13
ENDBRANCH   1   9
TORSDOF 5
ENDMDL
MODEL 5
REMARK VINA RESULT:      -4.7      2.219      2.453
REMARK  Name = 
REMARK  5 active torsions:
REMARK  status: ('A' for Active; 'I' for Inactive)
REMARK    1  A    between atoms: C_2  and  C_3
REMARK    2  A    between atoms: C_3  and  N_4
REMARK    3  A    between atoms: N_4  and  C_5
REMARK    4  A    between atoms: N_4  and  P_8
REMARK    5  A    between atoms: C_5  and  C_6
REMARK                            x       y       z     vdW  Elec       q    Type
REMARK                         _______ _______ _______ _____ _____    ______ ____
ROOT
ATOM      1  P   UNL     1       9.180  -1.656  23.177  0.00  0.00    +0.346 P 
ATOM      2  O   UNL     1       9.366  -2.431  24.579  0.00  0.00    -0.305 OA
ATOM      3  C   UNL     1       9.230  -3.843  24.535  0.00  0.00    +0.171 C 
ATOM      4  C   UNL     1       7.849  -4.223  24.017  0.00  0.00    +0.044 C 
ATOM      5  C   UNL     1       7.632  -3.702  22.599  0.00  0.00    +0.093 C 
ATOM      6  N   UNL     1       7.789  -2.258  22.561  0.00  0.00    -0.232 NA
ATOM      7  H   UNL     1       7.663  -1.932  21.610  0.00  0.00    +0.133 HD
ATOM      8  O   UNL     1      10.368  -1.842  22.286  0.00  0.00    -0.254 OA
ENDROOT
BRANCH   1   9
ATOM      9  N   UNL     1       8.786  -0.106  23.559  0.00  0.00    -0.217 NA
BRANCH   9  10
ATOM     10  C   UNL     1       7.361   0.253  23.478  0.00  0.00    +0.111 C 
BRANCH  10  12
ATOM     11 CL   UNL     1       8.343   1.583  21.317  0.00  0.00    -0.124 Cl
ATOM     12  C   UNL     1       7.014   1.365  22.487  0.00  0.00    +0.124 C 
ENDBRANCH  10  12
ENDBRANCH   9  10
BRANCH   9  13
ATOM     13  C   UNL     1       9.510   0.522  24.672  0.00  0.00    +0.111 C 
BRANCH  13  14
ATOM     14  C   UNL     1      10.893   1.073  24.323  0.00  0.00    +0.124 C 
ATOM     15 CL   UNL     1      10.746   2.689  23.586  0.00  0.00    -0.124 Cl
ENDBRANCH  13  14
ENDBRANCH   9  13
ENDBRANCH   1   9
TORSDOF 5
ENDMDL
MODEL 6
REMARK VINA RESULT:      -4.7      3.247      5.313
REMARK  Name = 
REMARK  5 active torsions:
REMARK  status: ('A' for Active; 'I' for Inactive)
REMARK    1  A    between atoms: C_2  and  C_3
REMARK    2  A    between atoms: C_3  and  N_4
REMARK    3  A    between atoms: N_4  and  C_5
REMARK    4  A    between atoms: N_4  and  P_8
REMARK    5  A    between atoms: C_5  and  C_6
REMARK                            x       y       z     vdW  Elec       q    Type
REMARK                         _______ _______ _______ _____ _____    ______ ____
ROOT
ATOM      1  P   UNL     1       9.632  -1.132  23.117  0.00  0.00    +0.346 P 
ATOM      2  O   UNL     1       9.083   0.101  22.234  0.00  0.00    -0.305 OA
ATOM      3  C   UNL     1       9.945   1.222  22.123  0.00  0.00    +0.171 C 
ATOM      4  C   UNL     1      10.253   1.789  23.504  0.00  0.00    +0.044 C 
ATOM      5  C   UNL     1      10.962   0.756  24.376  0.00  0.00    +0.093 C 
ATOM      6  N   UNL     1      10.146  -0.440  24.507  0.00  0.00    -0.232 NA
ATOM      7  H   UNL     1      10.640  -1.122  25.070  0.00  0.00    +0.133 HD
ATOM      8  O   UNL     1      10.695  -1.895  22.390  0.00  0.00    -0.254 OA
ENDROOT
BRANCH   1   9
ATOM      9  N   UNL     1       8.307  -1.986  23.585  0.00  0.00    -0.217 NA
BRANCH   9  10
ATOM     10  C   UNL     1       7.303  -1.262  24.381  0.00  0.00    +0.111 C 
BRANCH  10  12
ATOM     11 CL   UNL     1       8.354  -2.832  26.338  0.00  0.00    -0.124 Cl
ATOM     12  C   UNL     1       6.972  -1.874  25.744  0.00  0.00    +0.124 C 
ENDBRANCH  10  12
ENDBRANCH   9  10
BRANCH   9  13
ATOM     13  C   UNL     1       7.747  -2.947  22.626  0.00  0.00    +0.111 C 
BRANCH  13  14
ATOM     14  C   UNL     1       7.649  -4.388  23.128  0.00  0.00    +0.124 C 
ATOM     15 CL   UNL     1       7.201  -5.478  21.791  0.00  0.00    -0.124 Cl
ENDBRANCH  13  14
ENDBRANCH   9  13
ENDBRANCH   1   9
TORSDOF 5
ENDMDL
MODEL 7
REMARK VINA RESULT:      -4.7      3.461      5.044
REMARK  Name = 
REMARK  5 active torsions:
REMARK  status: ('A' for Active; 'I' for Inactive)
REMARK    1  A    between atoms: C_2  and  C_3
REMARK    2  A    between atoms: C_3  and  N_4
REMARK    3  A    between atoms: N_4  and  C_5
REMARK    4  A    between atoms: N_4  and  P_8
REMARK    5  A    between atoms: C_5  and  C_6
REMARK                            x       y       z     vdW  Elec       q    Type
REMARK                         _______ _______ _______ _____ _____    ______ ____
ROOT
ATOM      1  P   UNL     1       9.662  -1.107  23.096  0.00  0.00    +0.346 P 
ATOM      2  O   UNL     1       9.094   0.135  22.237  0.00  0.00    -0.305 OA
ATOM      3  C   UNL     1       9.945   1.266  22.136  0.00  0.00    +0.171 C 
ATOM      4  C   UNL     1      10.261   1.814  23.522  0.00  0.00    +0.044 C 
ATOM      5  C   UNL     1      10.987   0.774  24.371  0.00  0.00    +0.093 C 
ATOM      6  N   UNL     1      10.183  -0.430  24.492  0.00  0.00    -0.232 NA
ATOM      7  H   UNL     1      10.689  -1.117  25.040  0.00  0.00    +0.133 HD
ATOM      8  O   UNL     1      10.725  -1.849  22.348  0.00  0.00    -0.254 OA
ENDROOT
BRANCH   1   9
ATOM      9  N   UNL     1       8.350  -1.979  23.564  0.00  0.00    -0.217 NA
BRANCH   9  10
ATOM     10  C   UNL     1       7.629  -2.705  22.505  0.00  0.00    +0.111 C 
BRANCH  10  12
ATOM     11 CL   UNL     1       5.358  -4.093  23.069  0.00  0.00    -0.124 Cl
ATOM     12  C   UNL     1       6.105  -2.566  22.529  0.00  0.00    +0.124 C 
ENDBRANCH  10  12
ENDBRANCH   9  10
BRANCH   9  13
ATOM     13  C   UNL     1       8.433  -2.694  24.844  0.00  0.00    +0.111 C 
BRANCH  13  14
ATOM     14  C   UNL     1       8.975  -4.121  24.761  0.00  0.00    +0.124 C 
ATOM     15 CL   UNL     1       7.841  -5.260  25.530  0.00  0.00    -0.124 Cl
ENDBRANCH  13  14
ENDBRANCH   9  13
ENDBRANCH   1   9
TORSDOF 5
ENDMDL
MODEL 8
REMARK VINA RESULT:      -4.7      2.777      3.394
REMARK  Name = 
REMARK  5 active torsions:
REMARK  status: ('A' for Active; 'I' for Inactive)
REMARK    1  A    between atoms: C_2  and  C_3
REMARK    2  A    between atoms: C_3  and  N_4
REMARK    3  A    between atoms: N_4  and  C_5
REMARK    4  A    between atoms: N_4  and  P_8
REMARK    5  A    between atoms: C_5  and  C_6
REMARK                            x       y       z     vdW  Elec       q    Type
REMARK                         _______ _______ _______ _____ _____    ______ ____
ROOT
ATOM      1  P   UNL     1       8.549  -3.003  24.491  0.00  0.00    +0.346 P 
ATOM      2  O   UNL     1       7.192  -3.435  25.250  0.00  0.00    -0.305 OA
ATOM      3  C   UNL     1       7.354  -4.042  26.522  0.00  0.00    +0.171 C 
ATOM      4  C   UNL     1       8.196  -5.306  26.399  0.00  0.00    +0.044 C 
ATOM      5  C   UNL     1       9.590  -4.988  25.867  0.00  0.00    +0.093 C 
ATOM      6  N   UNL     1       9.500  -4.331  24.574  0.00  0.00    -0.232 NA
ATOM      7  H   UNL     1      10.433  -4.108  24.246  0.00  0.00    +0.133 HD
ATOM      8  O   UNL     1       9.156  -1.782  25.108  0.00  0.00    -0.254 OA
ENDROOT
BRANCH   1   9
ATOM      9  N   UNL     1       8.169  -2.906  22.895  0.00  0.00    -0.217 NA
BRANCH   9  10
ATOM     10  C   UNL     1       7.027  -3.714  22.438  0.00  0.00    +0.111 C 
BRANCH  10  12
ATOM     11 CL   UNL     1       6.078  -5.793  20.961  0.00  0.00    -0.124 Cl
ATOM     12  C   UNL     1       7.356  -5.151  22.027  0.00  0.00    +0.124 C 
ENDBRANCH  10  12
ENDBRANCH   9  10
BRANCH   9  13
ATOM     13  C   UNL     1       8.282  -1.591  22.251  0.00  0.00    +0.111 C 
BRANCH  13  14
ATOM     14  C   UNL     1       9.695  -1.192  21.823  0.00  0.00    +0.124 C 
ATOM     15 CL   UNL     1       9.818   0.579  21.673  0.00  0.00    -0.124 Cl
ENDBRANCH  13  14
ENDBRANCH   9  13
ENDBRANCH   1   9
TORSDOF 5
ENDMDL
MODEL 9
REMARK VINA RESULT:      -4.7      3.111      4.785
REMARK  Name = 
REMARK  5 active torsions:
REMARK  status: ('A' for Active; 'I' for Inactive)
REMARK    1  A    between atoms: C_2  and  C_3
REMARK    2  A    between atoms: C_3  and  N_4
REMARK    3  A    between atoms: N_4  and  C_5
REMARK    4  A    between atoms: N_4  and  P_8
REMARK    5  A    between atoms: C_5  and  C_6
REMARK                            x       y       z     vdW  Elec       q    Type
REMARK                         _______ _______ _______ _____ _____    ______ ____
ROOT
ATOM      1  P   UNL     1       9.610  -1.138  22.999  0.00  0.00    +0.346 P 
ATOM      2  O   UNL     1       9.125   0.155  22.165  0.00  0.00    -0.305 OA
ATOM      3  C   UNL     1       9.990   1.279  22.195  0.00  0.00    +0.171 C 
ATOM      4  C   UNL     1      10.194   1.748  23.631  0.00  0.00    +0.044 C 
ATOM      5  C   UNL     1      10.838   0.655  24.479  0.00  0.00    +0.093 C 
ATOM      6  N   UNL     1      10.018  -0.544  24.467  0.00  0.00    -0.232 NA
ATOM      7  H   UNL     1      10.471  -1.265  25.017  0.00  0.00    +0.133 HD
ATOM      8  O   UNL     1      10.725  -1.852  22.302  0.00  0.00    -0.254 OA
ENDROOT
BRANCH   1   9
ATOM      9  N   UNL     1       8.256  -2.018  23.307  0.00  0.00    -0.217 NA
BRANCH   9  10
ATOM     10  C   UNL     1       8.291  -2.889  24.494  0.00  0.00    +0.111 C 
BRANCH  10  12
ATOM     11 CL   UNL     1       9.628  -5.082  25.391  0.00  0.00    -0.124 Cl
ATOM     12  C   UNL     1       8.487  -4.380  24.214  0.00  0.00    +0.124 C 
ENDBRANCH  10  12
ENDBRANCH   9  10
BRANCH   9  13
ATOM     13  C   UNL     1       6.959  -1.374  23.063  0.00  0.00    +0.111 C 
BRANCH  13  14
ATOM     14  C   UNL     1       6.262  -0.818  24.306  0.00  0.00    +0.124 C 
ATOM     15 CL   UNL     1       6.693   0.895  24.541  0.00  0.00    -0.124 Cl
ENDBRANCH  13  14
ENDBRANCH   9  13
ENDBRANCH   1   9
TORSDOF 5
ENDMDL
