MODEL 1
REMARK VINA RESULT:      -6.3      0.000      0.000
REMARK  Name = 
REMARK  5 active torsions:
REMARK  status: ('A' for Active; 'I' for Inactive)
REMARK    1  A    between atoms: C_2  and  C_3
REMARK    2  A    between atoms: C_2  and  C_5
REMARK    3  A    between atoms: C_2  and  C_14
REMARK    4  A    between atoms: C_3  and  C_4
REMARK    5  A    between atoms: N_7  and  C_8
REMARK                            x       y       z     vdW  Elec       q    Type
REMARK                         _______ _______ _______ _____ _____    ______ ____
ROOT
ATOM      1  C   UNL     1       9.336  -2.411  23.789  0.00  0.00    +0.225 C 
ATOM      2  N   UNL     1       8.816  -1.152  24.062  0.00  0.00    -0.285 N 
ATOM      3  H   UNL     1       8.198  -1.076  24.854  0.00  0.00    +0.155 HD
ATOM      4  O   UNL     1      10.402  -2.599  23.204  0.00  0.00    -0.275 OA
ENDROOT
BRANCH   2   5
ATOM      5  C   UNL     1       9.419   0.039  23.612  0.00  0.00    +0.036 A 
ATOM      6  C   UNL     1       9.233   0.422  22.288  0.00  0.00    +0.043 A 
ATOM      7  C   UNL     1       9.769   1.634  21.884  0.00  0.00    +0.112 A 
ATOM      8  N   UNL     1      10.518   2.429  22.677  0.00  0.00    -0.263 NA
ATOM      9  C   UNL     1      10.723   2.003  23.942  0.00  0.00    +0.112 A 
ATOM     10  C   UNL     1      10.195   0.831  24.453  0.00  0.00    +0.043 A 
ENDBRANCH   2   5
BRANCH   1  11
ATOM     11  C   UNL     1       8.505  -3.599  24.285  0.00  0.00    +0.105 C 
BRANCH  11  12
ATOM     12  C   UNL     1       7.655  -4.237  23.190  0.00  0.00    -0.036 A 
ATOM     13  C   UNL     1       7.724  -5.622  22.989  0.00  0.00    +0.004 A 
ATOM     14  C   UNL     1       6.972  -6.245  21.984  0.00  0.00    +0.000 A 
ATOM     15  C   UNL     1       6.124  -5.489  21.180  0.00  0.00    +0.000 A 
ATOM     16  C   UNL     1       6.041  -4.112  21.366  0.00  0.00    +0.000 A 
ATOM     17  C   UNL     1       6.808  -3.489  22.354  0.00  0.00    +0.004 A 
ENDBRANCH  11  12
BRANCH  11  18
ATOM     18  C   UNL     1       9.330  -4.633  25.069  0.00  0.00    +0.014 C 
ATOM     19  C   UNL     1       8.871  -4.774  26.517  0.00  0.00    +0.005 C 
ENDBRANCH  11  18
ENDBRANCH   1  11
TORSDOF 4
ENDMDL
MODEL 2
REMARK VINA RESULT:      -6.1      1.565      3.083
REMARK  Name = 
REMARK  5 active torsions:
REMARK  status: ('A' for Active; 'I' for Inactive)
REMARK    1  A    between atoms: C_2  and  C_3
REMARK    2  A    between atoms: C_2  and  C_5
REMARK    3  A    between atoms: C_2  and  C_14
REMARK    4  A    between atoms: C_3  and  C_4
REMARK    5  A    between atoms: N_7  and  C_8
REMARK                            x       y       z     vdW  Elec       q    Type
REMARK                         _______ _______ _______ _____ _____    ______ ____
ROOT
ATOM      1  C   UNL     1       7.999  -2.409  23.119  0.00  0.00    +0.225 C 
ATOM      2  N   UNL     1       9.320  -2.008  22.961  0.00  0.00    -0.285 N 
ATOM      3  H   UNL     1       9.937  -2.650  22.489  0.00  0.00    +0.155 HD
ATOM      4  O   UNL     1       7.056  -1.628  23.230  0.00  0.00    -0.275 OA
ENDROOT
BRANCH   2   5
ATOM      5  C   UNL     1       9.720  -0.659  23.003  0.00  0.00    +0.036 A 
ATOM      6  C   UNL     1       9.627   0.102  21.842  0.00  0.00    +0.043 A 
ATOM      7  C   UNL     1       9.953   1.446  21.922  0.00  0.00    +0.112 A 
ATOM      8  N   UNL     1      10.420   2.043  23.038  0.00  0.00    -0.263 NA
ATOM      9  C   UNL     1      10.547   1.266  24.134  0.00  0.00    +0.112 A 
ATOM     10  C   UNL     1      10.208  -0.074  24.169  0.00  0.00    +0.043 A 
ENDBRANCH   2   5
BRANCH   1  11
ATOM     11  C   UNL     1       7.756  -3.922  23.129  0.00  0.00    +0.105 C 
BRANCH  11  12
ATOM     12  C   UNL     1       7.435  -4.470  24.517  0.00  0.00    -0.036 A 
ATOM     13  C   UNL     1       8.466  -4.601  25.457  0.00  0.00    +0.004 A 
ATOM     14  C   UNL     1       8.216  -5.115  26.737  0.00  0.00    +0.000 A 
ATOM     15  C   UNL     1       6.924  -5.485  27.098  0.00  0.00    +0.000 A 
ATOM     16  C   UNL     1       5.887  -5.361  26.177  0.00  0.00    +0.000 A 
ATOM     17  C   UNL     1       6.141  -4.870  24.894  0.00  0.00    +0.004 A 
ENDBRANCH  11  12
BRANCH  11  18
ATOM     18  C   UNL     1       6.748  -4.383  22.064  0.00  0.00    +0.014 C 
ATOM     19  C   UNL     1       7.079  -5.761  21.500  0.00  0.00    +0.005 C 
ENDBRANCH  11  18
ENDBRANCH   1  11
TORSDOF 4
ENDMDL
MODEL 3
REMARK VINA RESULT:      -5.8      2.275      3.914
REMARK  Name = 
REMARK  5 active torsions:
REMARK  status: ('A' for Active; 'I' for Inactive)
REMARK    1  A    between atoms: C_2  and  C_3
REMARK    2  A    between atoms: C_2  and  C_5
REMARK    3  A    between atoms: C_2  and  C_14
REMARK    4  A    between atoms: C_3  and  C_4
REMARK    5  A    between atoms: N_7  and  C_8
REMARK                            x       y       z     vdW  Elec       q    Type
REMARK                         _______ _______ _______ _____ _____    ______ ____
ROOT
ATOM      1  C   UNL     1       7.215  -3.568  23.351  0.00  0.00    +0.225 C 
ATOM      2  N   UNL     1       8.566  -3.329  23.133  0.00  0.00    -0.285 N 
ATOM      3  H   UNL     1       9.103  -4.081  22.731  0.00  0.00    +0.155 HD
ATOM      4  O   UNL     1       6.361  -2.684  23.383  0.00  0.00    -0.275 OA
ENDROOT
BRANCH   2   5
ATOM      5  C   UNL     1       9.105  -2.033  23.016  0.00  0.00    +0.036 A 
ATOM      6  C   UNL     1       9.606  -1.413  24.156  0.00  0.00    +0.043 A 
ATOM      7  C   UNL     1      10.201  -0.170  24.008  0.00  0.00    +0.112 A 
ATOM      8  N   UNL     1      10.260   0.502  22.839  0.00  0.00    -0.263 NA
ATOM      9  C   UNL     1       9.719  -0.105  21.762  0.00  0.00    +0.112 A 
ATOM     10  C   UNL     1       9.142  -1.361  21.797  0.00  0.00    +0.043 A 
ENDBRANCH   2   5
BRANCH   1  11
ATOM     11  C   UNL     1       6.818  -5.036  23.536  0.00  0.00    +0.105 C 
BRANCH  11  12
ATOM     12  C   UNL     1       6.455  -5.383  24.978  0.00  0.00    -0.036 A 
ATOM     13  C   UNL     1       5.263  -6.074  25.237  0.00  0.00    +0.004 A 
ATOM     14  C   UNL     1       4.884  -6.398  26.547  0.00  0.00    +0.000 A 
ATOM     15  C   UNL     1       5.708  -6.052  27.614  0.00  0.00    +0.000 A 
ATOM     16  C   UNL     1       6.896  -5.367  27.376  0.00  0.00    +0.000 A 
ATOM     17  C   UNL     1       7.261  -5.025  26.071  0.00  0.00    +0.004 A 
ENDBRANCH  11  12
BRANCH  11  18
ATOM     18  C   UNL     1       5.756  -5.510  22.530  0.00  0.00    +0.014 C 
ATOM     19  C   UNL     1       6.322  -5.702  21.127  0.00  0.00    +0.005 C 
ENDBRANCH  11  18
ENDBRANCH   1  11
TORSDOF 4
ENDMDL
MODEL 4
REMARK VINA RESULT:      -5.7      1.300      1.720
REMARK  Name = 
REMARK  5 active torsions:
REMARK  status: ('A' for Active; 'I' for Inactive)
REMARK    1  A    between atoms: C_2  and  C_3
REMARK    2  A    between atoms: C_2  and  C_5
REMARK    3  A    between atoms: C_2  and  C_14
REMARK    4  A    between atoms: C_3  and  C_4
REMARK    5  A    between atoms: N_7  and  C_8
REMARK                            x       y       z     vdW  Elec       q    Type
REMARK                         _______ _______ _______ _____ _____    ______ ____
ROOT
ATOM      1  C   UNL     1       8.115  -1.958  24.009  0.00  0.00    +0.225 C 
ATOM      2  N   UNL     1       9.395  -1.426  23.917  0.00  0.00    -0.285 N 
ATOM      3  H   UNL     1      10.153  -2.081  23.802  0.00  0.00    +0.155 HD
ATOM      4  O   UNL     1       7.095  -1.346  23.694  0.00  0.00    -0.275 OA
ENDROOT
BRANCH   2   5
ATOM      5  C   UNL     1       9.644  -0.094  23.535  0.00  0.00    +0.036 A 
ATOM      6  C   UNL     1       9.795   0.868  24.527  0.00  0.00    +0.043 A 
ATOM      7  C   UNL     1      10.115   2.158  24.135  0.00  0.00    +0.112 A 
ATOM      8  N   UNL     1      10.221   2.550  22.848  0.00  0.00    -0.263 NA
ATOM      9  C   UNL     1      10.018   1.603  21.907  0.00  0.00    +0.112 A 
ATOM     10  C   UNL     1       9.737   0.280  22.197  0.00  0.00    +0.043 A 
ENDBRANCH   2   5
BRANCH   1  11
ATOM     11  C   UNL     1       8.025  -3.399  24.521  0.00  0.00    +0.105 C 
BRANCH  11  12
ATOM     12  C   UNL     1       7.125  -4.286  23.664  0.00  0.00    -0.036 A 
ATOM     13  C   UNL     1       7.586  -4.726  22.416  0.00  0.00    +0.004 A 
ATOM     14  C   UNL     1       6.785  -5.529  21.591  0.00  0.00    +0.000 A 
ATOM     15  C   UNL     1       5.519  -5.918  22.018  0.00  0.00    +0.000 A 
ATOM     16  C   UNL     1       5.045  -5.492  23.255  0.00  0.00    +0.000 A 
ATOM     17  C   UNL     1       5.836  -4.674  24.066  0.00  0.00    +0.004 A 
ENDBRANCH  11  12
BRANCH  11  18
ATOM     18  C   UNL     1       9.398  -4.036  24.788  0.00  0.00    +0.014 C 
ATOM     19  C   UNL     1       9.372  -5.019  25.955  0.00  0.00    +0.005 C 
ENDBRANCH  11  18
ENDBRANCH   1  11
TORSDOF 4
ENDMDL
MODEL 5
REMARK VINA RESULT:      -5.6      1.981      6.175
REMARK  Name = 
REMARK  5 active torsions:
REMARK  status: ('A' for Active; 'I' for Inactive)
REMARK    1  A    between atoms: C_2  and  C_3
REMARK    2  A    between atoms: C_2  and  C_5
REMARK    3  A    between atoms: C_2  and  C_14
REMARK    4  A    between atoms: C_3  and  C_4
REMARK    5  A    between atoms: N_7  and  C_8
REMARK                            x       y       z     vdW  Elec       q    Type
REMARK                         _______ _______ _______ _____ _____    ______ ____
ROOT
ATOM      1  C   UNL     1       9.097  -2.510  24.371  0.00  0.00    +0.225 C 
ATOM      2  N   UNL     1       7.743  -2.608  24.079  0.00  0.00    -0.285 N 
ATOM      3  H   UNL     1       7.244  -1.744  23.937  0.00  0.00    +0.155 HD
ATOM      4  O   UNL     1       9.917  -3.393  24.122  0.00  0.00    -0.275 OA
ENDROOT
BRANCH   2   5
ATOM      5  C   UNL     1       7.157  -3.773  23.548  0.00  0.00    +0.036 A 
ATOM      6  C   UNL     1       6.509  -4.648  24.412  0.00  0.00    +0.043 A 
ATOM      7  C   UNL     1       5.873  -5.750  23.861  0.00  0.00    +0.112 A 
ATOM      8  N   UNL     1       5.905  -6.059  22.548  0.00  0.00    -0.263 NA
ATOM      9  C   UNL     1       6.586  -5.216  21.742  0.00  0.00    +0.112 A 
ATOM     10  C   UNL     1       7.217  -4.069  22.188  0.00  0.00    +0.043 A 
ENDBRANCH   2   5
BRANCH   1  11
ATOM     11  C   UNL     1       9.548  -1.198  25.022  0.00  0.00    +0.105 C 
BRANCH  11  12
ATOM     12  C   UNL     1       9.774  -0.074  24.015  0.00  0.00    -0.036 A 
ATOM     13  C   UNL     1      10.360   1.125  24.446  0.00  0.00    +0.004 A 
ATOM     14  C   UNL     1      10.571   2.188  23.557  0.00  0.00    +0.000 A 
ATOM     15  C   UNL     1      10.216   2.055  22.218  0.00  0.00    +0.000 A 
ATOM     16  C   UNL     1       9.635   0.872  21.771  0.00  0.00    +0.000 A 
ATOM     17  C   UNL     1       9.405  -0.179  22.663  0.00  0.00    +0.004 A 
ENDBRANCH  11  12
BRANCH  11  18
ATOM     18  C   UNL     1       8.657  -0.765  26.198  0.00  0.00    +0.014 C 
ATOM     19  C   UNL     1       7.500   0.128  25.761  0.00  0.00    +0.005 C 
ENDBRANCH  11  18
ENDBRANCH   1  11
TORSDOF 4
ENDMDL
MODEL 6
REMARK VINA RESULT:      -5.4      2.317      6.185
REMARK  Name = 
REMARK  5 active torsions:
REMARK  status: ('A' for Active; 'I' for Inactive)
REMARK    1  A    between atoms: C_2  and  C_3
REMARK    2  A    between atoms: C_2  and  C_5
REMARK    3  A    between atoms: C_2  and  C_14
REMARK    4  A    between atoms: C_3  and  C_4
REMARK    5  A    between atoms: N_7  and  C_8
REMARK                            x       y       z     vdW  Elec       q    Type
REMARK                         _______ _______ _______ _____ _____    ______ ____
ROOT
ATOM      1  C   UNL     1       8.370  -2.234  23.495  0.00  0.00    +0.225 C 
ATOM      2  N   UNL     1       7.573  -2.589  22.415  0.00  0.00    -0.285 N 
ATOM      3  H   UNL     1       7.870  -2.273  21.505  0.00  0.00    +0.155 HD
ATOM      4  O   UNL     1       8.432  -2.879  24.541  0.00  0.00    -0.275 OA
ENDROOT
BRANCH   2   5
ATOM      5  C   UNL     1       6.683  -3.680  22.446  0.00  0.00    +0.036 A 
ATOM      6  C   UNL     1       7.118  -4.910  21.963  0.00  0.00    +0.043 A 
ATOM      7  C   UNL     1       6.256  -5.989  22.072  0.00  0.00    +0.112 A 
ATOM      8  N   UNL     1       4.998  -5.903  22.554  0.00  0.00    -0.263 NA
ATOM      9  C   UNL     1       4.589  -4.685  22.967  0.00  0.00    +0.112 A 
ATOM     10  C   UNL     1       5.387  -3.556  22.939  0.00  0.00    +0.043 A 
ENDBRANCH   2   5
BRANCH   1  11
ATOM     11  C   UNL     1       9.216  -0.970  23.315  0.00  0.00    +0.105 C 
BRANCH  11  12
ATOM     12  C   UNL     1       8.393   0.253  22.919  0.00  0.00    -0.036 A 
ATOM     13  C   UNL     1       7.309   0.637  23.719  0.00  0.00    +0.004 A 
ATOM     14  C   UNL     1       6.517   1.744  23.382  0.00  0.00    +0.000 A 
ATOM     15  C   UNL     1       6.817   2.494  22.248  0.00  0.00    +0.000 A 
ATOM     16  C   UNL     1       7.891   2.128  21.442  0.00  0.00    +0.000 A 
ATOM     17  C   UNL     1       8.665   1.011  21.767  0.00  0.00    +0.004 A 
ENDBRANCH  11  12
BRANCH  11  18
ATOM     18  C   UNL     1      10.154  -0.690  24.502  0.00  0.00    +0.014 C 
ATOM     19  C   UNL     1      10.862   0.656  24.385  0.00  0.00    +0.005 C 
ENDBRANCH  11  18
ENDBRANCH   1  11
TORSDOF 4
ENDMDL
MODEL 7
REMARK VINA RESULT:      -5.2      1.646      2.173
REMARK  Name = 
REMARK  5 active torsions:
REMARK  status: ('A' for Active; 'I' for Inactive)
REMARK    1  A    between atoms: C_2  and  C_3
REMARK    2  A    between atoms: C_2  and  C_5
REMARK    3  A    between atoms: C_2  and  C_14
REMARK    4  A    between atoms: C_3  and  C_4
REMARK    5  A    between atoms: N_7  and  C_8
REMARK                            x       y       z     vdW  Elec       q    Type
REMARK                         _______ _______ _______ _____ _____    ______ ____
ROOT
ATOM      1  C   UNL     1       7.806  -2.972  25.336  0.00  0.00    +0.225 C 
ATOM      2  N   UNL     1       8.115  -2.480  24.074  0.00  0.00    -0.285 N 
ATOM      3  H   UNL     1       7.669  -2.928  23.289  0.00  0.00    +0.155 HD
ATOM      4  O   UNL     1       7.870  -2.302  26.366  0.00  0.00    -0.275 OA
ENDROOT
BRANCH   2   5
ATOM      5  C   UNL     1       8.621  -1.183  23.861  0.00  0.00    +0.036 A 
ATOM      6  C   UNL     1       9.984  -0.963  24.025  0.00  0.00    +0.043 A 
ATOM      7  C   UNL     1      10.474   0.301  23.737  0.00  0.00    +0.112 A 
ATOM      8  N   UNL     1       9.700   1.345  23.376  0.00  0.00    -0.263 NA
ATOM      9  C   UNL     1       8.374   1.111  23.276  0.00  0.00    +0.112 A 
ATOM     10  C   UNL     1       7.793  -0.124  23.500  0.00  0.00    +0.043 A 
ENDBRANCH   2   5
BRANCH   1  11
ATOM     11  C   UNL     1       7.347  -4.433  25.390  0.00  0.00    +0.105 C 
BRANCH  11  12
ATOM     12  C   UNL     1       6.833  -4.952  24.050  0.00  0.00    -0.036 A 
ATOM     13  C   UNL     1       5.456  -4.941  23.793  0.00  0.00    +0.004 A 
ATOM     14  C   UNL     1       4.941  -5.423  22.582  0.00  0.00    +0.000 A 
ATOM     15  C   UNL     1       5.806  -5.903  21.602  0.00  0.00    +0.000 A 
ATOM     16  C   UNL     1       7.177  -5.920  21.838  0.00  0.00    +0.000 A 
ATOM     17  C   UNL     1       7.686  -5.459  23.055  0.00  0.00    +0.004 A 
ENDBRANCH  11  12
BRANCH  11  18
ATOM     18  C   UNL     1       8.382  -5.373  26.029  0.00  0.00    +0.014 C 
ATOM     19  C   UNL     1       9.812  -5.039  25.616  0.00  0.00    +0.005 C 
ENDBRANCH  11  18
ENDBRANCH   1  11
TORSDOF 4
ENDMDL
MODEL 8
REMARK VINA RESULT:      -5.2      2.773      3.922
REMARK  Name = 
REMARK  5 active torsions:
REMARK  status: ('A' for Active; 'I' for Inactive)
REMARK    1  A    between atoms: C_2  and  C_3
REMARK    2  A    between atoms: C_2  and  C_5
REMARK    3  A    between atoms: C_2  and  C_14
REMARK    4  A    between atoms: C_3  and  C_4
REMARK    5  A    between atoms: N_7  and  C_8
REMARK                            x       y       z     vdW  Elec       q    Type
REMARK                         _______ _______ _______ _____ _____    ______ ____
ROOT
ATOM      1  C   UNL     1       7.579  -4.407  23.749  0.00  0.00    +0.225 C 
ATOM      2  N   UNL     1       7.363  -3.063  23.472  0.00  0.00    -0.285 N 
ATOM      3  H   UNL     1       6.446  -2.698  23.677  0.00  0.00    +0.155 HD
ATOM      4  O   UNL     1       8.684  -4.885  24.000  0.00  0.00    -0.275 OA
ENDROOT
BRANCH   2   5
ATOM      5  C   UNL     1       8.409  -2.127  23.363  0.00  0.00    +0.036 A 
ATOM      6  C   UNL     1       8.862  -1.494  24.515  0.00  0.00    +0.043 A 
ATOM      7  C   UNL     1       9.942  -0.634  24.400  0.00  0.00    +0.112 A 
ATOM      8  N   UNL     1      10.533  -0.321  23.228  0.00  0.00    -0.263 NA
ATOM      9  C   UNL     1      10.037  -0.913  22.121  0.00  0.00    +0.112 A 
ATOM     10  C   UNL     1       8.992  -1.818  22.137  0.00  0.00    +0.043 A 
ENDBRANCH   2   5
BRANCH   1  11
ATOM     11  C   UNL     1       6.333  -5.299  23.749  0.00  0.00    +0.105 C 
BRANCH  11  12
ATOM     12  C   UNL     1       5.264  -4.839  24.737  0.00  0.00    -0.036 A 
ATOM     13  C   UNL     1       5.491  -4.993  26.112  0.00  0.00    +0.004 A 
ATOM     14  C   UNL     1       4.530  -4.599  27.053  0.00  0.00    +0.000 A 
ATOM     15  C   UNL     1       3.336  -4.025  26.627  0.00  0.00    +0.000 A 
ATOM     16  C   UNL     1       3.093  -3.863  25.266  0.00  0.00    +0.000 A 
ATOM     17  C   UNL     1       4.043  -4.276  24.329  0.00  0.00    +0.004 A 
ENDBRANCH  11  12
BRANCH  11  18
ATOM     18  C   UNL     1       5.765  -5.551  22.342  0.00  0.00    +0.014 C 
ATOM     19  C   UNL     1       6.852  -5.865  21.319  0.00  0.00    +0.005 C 
ENDBRANCH  11  18
ENDBRANCH   1  11
TORSDOF 4
ENDMDL
MODEL 9
REMARK VINA RESULT:      -5.2      2.427      6.307
REMARK  Name = 
REMARK  5 active torsions:
REMARK  status: ('A' for Active; 'I' for Inactive)
REMARK    1  A    between atoms: C_2  and  C_3
REMARK    2  A    between atoms: C_2  and  C_5
REMARK    3  A    between atoms: C_2  and  C_14
REMARK    4  A    between atoms: C_3  and  C_4
REMARK    5  A    between atoms: N_7  and  C_8
REMARK                            x       y       z     vdW  Elec       q    Type
REMARK                         _______ _______ _______ _____ _____    ______ ____
ROOT
ATOM      1  C   UNL     1       7.959  -2.252  24.400  0.00  0.00    +0.225 C 
ATOM      2  N   UNL     1       8.139  -3.628  24.466  0.00  0.00    -0.285 N 
ATOM      3  H   UNL     1       8.798  -3.969  25.148  0.00  0.00    +0.155 HD
ATOM      4  O   UNL     1       6.928  -1.715  23.998  0.00  0.00    -0.275 OA
ENDROOT
BRANCH   2   5
ATOM      5  C   UNL     1       7.184  -4.548  23.992  0.00  0.00    +0.036 A 
ATOM      6  C   UNL     1       7.283  -4.996  22.679  0.00  0.00    +0.043 A 
ATOM      7  C   UNL     1       6.381  -5.958  22.254  0.00  0.00    +0.112 A 
ATOM      8  N   UNL     1       5.372  -6.433  23.015  0.00  0.00    -0.263 NA
ATOM      9  C   UNL     1       5.273  -5.940  24.268  0.00  0.00    +0.112 A 
ATOM     10  C   UNL     1       6.148  -5.011  24.799  0.00  0.00    +0.043 A 
ENDBRANCH   2   5
BRANCH   1  11
ATOM     11  C   UNL     1       9.136  -1.399  24.885  0.00  0.00    +0.105 C 
BRANCH  11  12
ATOM     12  C   UNL     1       9.481  -0.254  23.937  0.00  0.00    -0.036 A 
ATOM     13  C   UNL     1       9.815   0.999  24.469  0.00  0.00    +0.004 A 
ATOM     14  C   UNL     1      10.122   2.081  23.633  0.00  0.00    +0.000 A 
ATOM     15  C   UNL     1      10.119   1.915  22.251  0.00  0.00    +0.000 A 
ATOM     16  C   UNL     1       9.791   0.677  21.705  0.00  0.00    +0.000 A 
ATOM     17  C   UNL     1       9.464  -0.395  22.539  0.00  0.00    +0.004 A 
ENDBRANCH  11  12
BRANCH  11  18
ATOM     18  C   UNL     1       8.990  -0.934  26.343  0.00  0.00    +0.014 C 
ATOM     19  C   UNL     1       7.533  -0.845  26.787  0.00  0.00    +0.005 C 
ENDBRANCH  11  18
ENDBRANCH   1  11
TORSDOF 4
ENDMDL
