MODEL 1
REMARK VINA RESULT:      -7.6      0.000      0.000
REMARK  Name = 
REMARK  5 active torsions:
REMARK  status: ('A' for Active; 'I' for Inactive)
REMARK    1  A    between atoms: C_1  and  O_2
REMARK    2  A    between atoms: O_2  and  C_3
REMARK    3  A    between atoms: C_5  and  C_10
REMARK    4  A    between atoms: C_8  and  O_9
REMARK    5  A    between atoms: C_17  and  C_18
REMARK                            x       y       z     vdW  Elec       q    Type
REMARK                         _______ _______ _______ _____ _____    ______ ____
ROOT
ATOM      1  C   UNL     1       9.389   2.031  23.467  0.00  0.00    -0.016 A 
ATOM      2  C   UNL     1       8.255   1.845  22.630  0.00  0.00    +0.009 A 
ATOM      3  C   UNL     1       7.674   0.572  22.398  0.00  0.00    +0.011 A 
ATOM      4  C   UNL     1       8.230  -0.533  23.014  0.00  0.00    +0.008 A 
ATOM      5  C   UNL     1       7.977  -1.998  23.007  0.00  0.00    +0.048 C 
ATOM      6  C   UNL     1       9.062  -2.601  23.880  0.00  0.00    +0.249 C 
ATOM      7  N   UNL     1       9.789  -1.539  24.361  0.00  0.00    -0.281 N 
ATOM      8  H   UNL     1      10.595  -1.661  24.953  0.00  0.00    +0.155 HD
ATOM      9  O   UNL     1       9.328  -3.768  24.091  0.00  0.00    -0.270 OA
ATOM     10  C   UNL     1       6.971  -2.639  22.377  0.00  0.00    +0.039 C 
ATOM     11  C   UNL     1       9.334  -0.340  23.844  0.00  0.00    +0.042 A 
ATOM     12  C   UNL     1       9.921   0.887  24.079  0.00  0.00    +0.032 A 
ENDROOT
BRANCH   1  17
ATOM     13  C   UNL     1      11.941   4.897  23.593  0.00  0.00    +0.162 A 
ATOM     14  C   UNL     1      11.200   5.888  24.243  0.00  0.00    +0.158 A 
ATOM     15  C   UNL     1       9.885   5.637  24.618  0.00  0.00    +0.050 A 
ATOM     16  C   UNL     1       9.305   4.397  24.334  0.00  0.00    +0.012 A 
ATOM     17  C   UNL     1      10.023   3.358  23.708  0.00  0.00    -0.014 A 
ATOM     18  C   UNL     1      11.358   3.636  23.362  0.00  0.00    +0.058 A 
BRANCH  13  20
ATOM     19  C   UNL     1      13.430   5.669  21.935  0.00  0.00    +0.277 C 
ATOM     20  O   UNL     1      13.245   5.009  23.184  0.00  0.00    -0.491 OA
ENDBRANCH  13  20
BRANCH  14  21
ATOM     21  O   UNL     1      11.747   7.102  24.545  0.00  0.00    -0.503 OA
ATOM     22  H   UNL     1      11.048   7.775  24.562  0.00  0.00    +0.292 HD
ENDBRANCH  14  21
ENDBRANCH   1  17
BRANCH  10  23
ATOM     23  C   UNL     1       6.712  -4.042  22.409  0.00  0.00    +0.040 A 
ATOM     24  N   UNL     1       6.145  -4.649  23.509  0.00  0.00    -0.361 N 
ATOM     25  H   UNL     1       5.797  -4.161  24.326  0.00  0.00    +0.165 HD
ATOM     26  C   UNL     1       5.927  -5.980  23.268  0.00  0.00    +0.083 A 
ATOM     27  C   UNL     1       6.436  -6.269  22.027  0.00  0.00    +0.019 A 
ATOM     28  C   UNL     1       6.961  -5.059  21.500  0.00  0.00    +0.027 A 
ENDBRANCH  10  23
TORSDOF 4
ENDMDL
MODEL 2
REMARK VINA RESULT:      -7.5      2.553      9.235
REMARK  Name = 
REMARK  5 active torsions:
REMARK  status: ('A' for Active; 'I' for Inactive)
REMARK    1  A    between atoms: C_1  and  O_2
REMARK    2  A    between atoms: O_2  and  C_3
REMARK    3  A    between atoms: C_5  and  C_10
REMARK    4  A    between atoms: C_8  and  O_9
REMARK    5  A    between atoms: C_17  and  C_18
REMARK                            x       y       z     vdW  Elec       q    Type
REMARK                         _______ _______ _______ _____ _____    ______ ____
ROOT
ATOM      1  C   UNL     1       7.794  -2.142  23.294  0.00  0.00    -0.016 A 
ATOM      2  C   UNL     1       8.775  -1.825  22.315  0.00  0.00    +0.009 A 
ATOM      3  C   UNL     1       9.450  -0.578  22.281  0.00  0.00    +0.011 A 
ATOM      4  C   UNL     1       9.144   0.368  23.241  0.00  0.00    +0.008 A 
ATOM      5  C   UNL     1       9.559   1.765  23.533  0.00  0.00    +0.048 C 
ATOM      6  C   UNL     1       8.724   2.197  24.724  0.00  0.00    +0.249 C 
ATOM      7  N   UNL     1       7.975   1.098  25.074  0.00  0.00    -0.281 N 
ATOM      8  H   UNL     1       7.308   1.120  25.828  0.00  0.00    +0.155 HD
ATOM      9  O   UNL     1       8.637   3.286  25.256  0.00  0.00    -0.270 OA
ATOM     10  C   UNL     1      10.505   2.476  22.885  0.00  0.00    +0.039 C 
ATOM     11  C   UNL     1       8.190   0.044  24.206  0.00  0.00    +0.042 A 
ATOM     12  C   UNL     1       7.516  -1.159  24.255  0.00  0.00    +0.032 A 
ENDROOT
BRANCH   1  17
ATOM     13  C   UNL     1       6.134  -5.367  24.550  0.00  0.00    +0.162 A 
ATOM     14  C   UNL     1       5.717  -5.942  23.346  0.00  0.00    +0.158 A 
ATOM     15  C   UNL     1       5.953  -5.282  22.145  0.00  0.00    +0.050 A 
ATOM     16  C   UNL     1       6.599  -4.043  22.147  0.00  0.00    +0.012 A 
ATOM     17  C   UNL     1       7.064  -3.440  23.333  0.00  0.00    -0.014 A 
ATOM     18  C   UNL     1       6.828  -4.143  24.529  0.00  0.00    +0.058 A 
BRANCH  13  20
ATOM     19  C   UNL     1       6.874  -5.425  26.790  0.00  0.00    +0.277 C 
ATOM     20  O   UNL     1       5.975  -5.915  25.798  0.00  0.00    -0.491 OA
ENDBRANCH  13  20
BRANCH  14  21
ATOM     21  O   UNL     1       5.097  -7.158  23.316  0.00  0.00    -0.503 OA
ATOM     22  H   UNL     1       5.765  -7.858  23.237  0.00  0.00    +0.292 HD
ENDBRANCH  14  21
ENDBRANCH   1  17
BRANCH  10  23
ATOM     23  C   UNL     1      10.926   3.803  23.198  0.00  0.00    +0.040 A 
ATOM     24  N   UNL     1      10.023   4.837  23.332  0.00  0.00    -0.361 N 
ATOM     25  H   UNL     1       9.016   4.733  23.306  0.00  0.00    +0.165 HD
ATOM     26  C   UNL     1      10.660   5.990  23.709  0.00  0.00    +0.083 A 
ATOM     27  C   UNL     1      12.007   5.732  23.739  0.00  0.00    +0.019 A 
ATOM     28  C   UNL     1      12.179   4.367  23.384  0.00  0.00    +0.027 A 
ENDBRANCH  10  23
TORSDOF 4
ENDMDL
MODEL 3
REMARK VINA RESULT:      -7.4      2.742      9.402
REMARK  Name = 
REMARK  5 active torsions:
REMARK  status: ('A' for Active; 'I' for Inactive)
REMARK    1  A    between atoms: C_1  and  O_2
REMARK    2  A    between atoms: O_2  and  C_3
REMARK    3  A    between atoms: C_5  and  C_10
REMARK    4  A    between atoms: C_8  and  O_9
REMARK    5  A    between atoms: C_17  and  C_18
REMARK                            x       y       z     vdW  Elec       q    Type
REMARK                         _______ _______ _______ _____ _____    ______ ____
ROOT
ATOM      1  C   UNL     1       7.341  -2.429  23.936  0.00  0.00    -0.016 A 
ATOM      2  C   UNL     1       8.603  -2.245  24.564  0.00  0.00    +0.009 A 
ATOM      3  C   UNL     1       9.298  -1.008  24.540  0.00  0.00    +0.011 A 
ATOM      4  C   UNL     1       8.723   0.063  23.883  0.00  0.00    +0.008 A 
ATOM      5  C   UNL     1       9.114   1.466  23.585  0.00  0.00    +0.048 C 
ATOM      6  C   UNL     1       7.990   2.028  22.734  0.00  0.00    +0.249 C 
ATOM      7  N   UNL     1       7.052   1.028  22.644  0.00  0.00    -0.281 N 
ATOM      8  H   UNL     1       6.206   1.129  22.107  0.00  0.00    +0.155 HD
ATOM      9  O   UNL     1       7.909   3.100  22.166  0.00  0.00    -0.270 OA
ATOM     10  C   UNL     1      10.223   2.101  24.014  0.00  0.00    +0.039 C 
ATOM     11  C   UNL     1       7.479  -0.123  23.281  0.00  0.00    +0.042 A 
ATOM     12  C   UNL     1       6.787  -1.318  23.285  0.00  0.00    +0.032 A 
ENDROOT
BRANCH   1  17
ATOM     13  C   UNL     1       5.793  -5.756  25.066  0.00  0.00    +0.162 A 
ATOM     14  C   UNL     1       5.242  -6.217  23.867  0.00  0.00    +0.158 A 
ATOM     15  C   UNL     1       5.354  -5.450  22.713  0.00  0.00    +0.050 A 
ATOM     16  C   UNL     1       6.009  -4.216  22.757  0.00  0.00    +0.012 A 
ATOM     17  C   UNL     1       6.606  -3.725  23.936  0.00  0.00    -0.014 A 
ATOM     18  C   UNL     1       6.494  -4.535  25.081  0.00  0.00    +0.058 A 
BRANCH  13  20
ATOM     19  C   UNL     1       6.298  -5.686  27.369  0.00  0.00    +0.277 C 
ATOM     20  O   UNL     1       5.765  -6.416  26.268  0.00  0.00    -0.491 OA
ENDBRANCH  13  20
BRANCH  14  21
ATOM     21  O   UNL     1       4.610  -7.425  23.793  0.00  0.00    -0.503 OA
ATOM     22  H   UNL     1       3.649  -7.287  23.814  0.00  0.00    +0.292 HD
ENDBRANCH  14  21
ENDBRANCH   1  17
BRANCH  10  23
ATOM     23  C   UNL     1      10.571   3.461  23.756  0.00  0.00    +0.040 A 
ATOM     24  N   UNL     1       9.689   4.493  23.998  0.00  0.00    -0.361 N 
ATOM     25  H   UNL     1       8.784   4.389  24.442  0.00  0.00    +0.165 HD
ATOM     26  C   UNL     1      10.279   5.703  23.746  0.00  0.00    +0.083 A 
ATOM     27  C   UNL     1      11.535   5.460  23.251  0.00  0.00    +0.019 A 
ATOM     28  C   UNL     1      11.707   4.050  23.223  0.00  0.00    +0.027 A 
ENDBRANCH  10  23
TORSDOF 4
ENDMDL
MODEL 4
REMARK VINA RESULT:      -7.3      1.360      1.583
REMARK  Name = 
REMARK  5 active torsions:
REMARK  status: ('A' for Active; 'I' for Inactive)
REMARK    1  A    between atoms: C_1  and  O_2
REMARK    2  A    between atoms: O_2  and  C_3
REMARK    3  A    between atoms: C_5  and  C_10
REMARK    4  A    between atoms: C_8  and  O_9
REMARK    5  A    between atoms: C_17  and  C_18
REMARK                            x       y       z     vdW  Elec       q    Type
REMARK                         _______ _______ _______ _____ _____    ______ ____
ROOT
ATOM      1  C   UNL     1       9.391   1.719  23.344  0.00  0.00    -0.016 A 
ATOM      2  C   UNL     1      10.159   0.705  22.710  0.00  0.00    +0.009 A 
ATOM      3  C   UNL     1       9.661  -0.604  22.480  0.00  0.00    +0.011 A 
ATOM      4  C   UNL     1       8.375  -0.904  22.884  0.00  0.00    +0.008 A 
ATOM      5  C   UNL     1       7.511  -2.114  22.883  0.00  0.00    +0.048 C 
ATOM      6  C   UNL     1       6.228  -1.698  23.577  0.00  0.00    +0.249 C 
ATOM      7  N   UNL     1       6.373  -0.362  23.864  0.00  0.00    -0.281 N 
ATOM      8  H   UNL     1       5.668   0.164  24.354  0.00  0.00    +0.155 HD
ATOM      9  O   UNL     1       5.269  -2.370  23.902  0.00  0.00    -0.270 OA
ATOM     10  C   UNL     1       7.808  -3.315  22.344  0.00  0.00    +0.039 C 
ATOM     11  C   UNL     1       7.623   0.100  23.494  0.00  0.00    +0.042 A 
ATOM     12  C   UNL     1       8.088   1.377  23.734  0.00  0.00    +0.032 A 
ENDROOT
BRANCH   1  17
ATOM     13  C   UNL     1      11.703   4.772  23.604  0.00  0.00    +0.162 A 
ATOM     14  C   UNL     1      10.846   5.710  24.188  0.00  0.00    +0.158 A 
ATOM     15  C   UNL     1       9.531   5.362  24.475  0.00  0.00    +0.050 A 
ATOM     16  C   UNL     1       9.068   4.079  24.169  0.00  0.00    +0.012 A 
ATOM     17  C   UNL     1       9.904   3.092  23.608  0.00  0.00    -0.014 A 
ATOM     18  C   UNL     1      11.234   3.469  23.351  0.00  0.00    +0.058 A 
BRANCH  13  20
ATOM     19  C   UNL     1      13.244   5.559  22.001  0.00  0.00    +0.277 C 
ATOM     20  O   UNL     1      13.020   4.980  23.284  0.00  0.00    -0.491 OA
ENDBRANCH  13  20
BRANCH  14  21
ATOM     21  O   UNL     1      11.277   6.965  24.509  0.00  0.00    -0.503 OA
ATOM     22  H   UNL     1      11.110   7.132  25.451  0.00  0.00    +0.292 HD
ENDBRANCH  14  21
ENDBRANCH   1  17
BRANCH  10  23
ATOM     23  C   UNL     1       6.957  -4.460  22.312  0.00  0.00    +0.040 A 
ATOM     24  N   UNL     1       6.576  -5.112  23.465  0.00  0.00    -0.361 N 
ATOM     25  H   UNL     1       6.789  -4.799  24.405  0.00  0.00    +0.165 HD
ATOM     26  C   UNL     1       5.700  -6.127  23.181  0.00  0.00    +0.083 A 
ATOM     27  C   UNL     1       5.571  -6.196  21.817  0.00  0.00    +0.019 A 
ATOM     28  C   UNL     1       6.388  -5.172  21.267  0.00  0.00    +0.027 A 
ENDBRANCH  10  23
TORSDOF 4
ENDMDL
MODEL 5
REMARK VINA RESULT:      -7.2      2.666      9.312
REMARK  Name = 
REMARK  5 active torsions:
REMARK  status: ('A' for Active; 'I' for Inactive)
REMARK    1  A    between atoms: C_1  and  O_2
REMARK    2  A    between atoms: O_2  and  C_3
REMARK    3  A    between atoms: C_5  and  C_10
REMARK    4  A    between atoms: C_8  and  O_9
REMARK    5  A    between atoms: C_17  and  C_18
REMARK                            x       y       z     vdW  Elec       q    Type
REMARK                         _______ _______ _______ _____ _____    ______ ____
ROOT
ATOM      1  C   UNL     1       7.388  -2.403  23.979  0.00  0.00    -0.016 A 
ATOM      2  C   UNL     1       8.625  -2.194  24.647  0.00  0.00    +0.009 A 
ATOM      3  C   UNL     1       9.310  -0.952  24.623  0.00  0.00    +0.011 A 
ATOM      4  C   UNL     1       8.749   0.100  23.926  0.00  0.00    +0.008 A 
ATOM      5  C   UNL     1       9.138   1.501  23.613  0.00  0.00    +0.048 C 
ATOM      6  C   UNL     1       8.040   2.036  22.713  0.00  0.00    +0.249 C 
ATOM      7  N   UNL     1       7.115   1.025  22.609  0.00  0.00    -0.281 N 
ATOM      8  H   UNL     1       6.288   1.108  22.041  0.00  0.00    +0.155 HD
ATOM      9  O   UNL     1       7.970   3.095  22.121  0.00  0.00    -0.270 OA
ATOM     10  C   UNL     1      10.226   2.155  24.069  0.00  0.00    +0.039 C 
ATOM     11  C   UNL     1       7.529  -0.108  23.284  0.00  0.00    +0.042 A 
ATOM     12  C   UNL     1       6.848  -1.310  23.287  0.00  0.00    +0.032 A 
ENDROOT
BRANCH   1  17
ATOM     13  C   UNL     1       5.605  -5.596  22.812  0.00  0.00    +0.162 A 
ATOM     14  C   UNL     1       5.234  -6.160  24.036  0.00  0.00    +0.158 A 
ATOM     15  C   UNL     1       5.575  -5.523  25.223  0.00  0.00    +0.050 A 
ATOM     16  C   UNL     1       6.296  -4.326  25.190  0.00  0.00    +0.012 A 
ATOM     17  C   UNL     1       6.665  -3.706  23.979  0.00  0.00    -0.014 A 
ATOM     18  C   UNL     1       6.286  -4.364  22.794  0.00  0.00    +0.058 A 
BRANCH  13  20
ATOM     19  C   UNL     1       6.233  -5.739  20.542  0.00  0.00    +0.277 C 
ATOM     20  O   UNL     1       5.322  -6.112  21.572  0.00  0.00    -0.491 OA
ENDBRANCH  13  20
BRANCH  14  21
ATOM     21  O   UNL     1       4.518  -7.321  24.096  0.00  0.00    -0.503 OA
ATOM     22  H   UNL     1       4.017  -7.433  23.272  0.00  0.00    +0.292 HD
ENDBRANCH  14  21
ENDBRANCH   1  17
BRANCH  10  23
ATOM     23  C   UNL     1      10.571   3.513  23.796  0.00  0.00    +0.040 A 
ATOM     24  N   UNL     1       9.691   4.546  24.038  0.00  0.00    -0.361 N 
ATOM     25  H   UNL     1       8.791   4.446  24.492  0.00  0.00    +0.165 HD
ATOM     26  C   UNL     1      10.278   5.755  23.771  0.00  0.00    +0.083 A 
ATOM     27  C   UNL     1      11.529   5.508  23.265  0.00  0.00    +0.019 A 
ATOM     28  C   UNL     1      11.702   4.098  23.248  0.00  0.00    +0.027 A 
ENDBRANCH  10  23
TORSDOF 4
ENDMDL
MODEL 6
REMARK VINA RESULT:      -7.2      0.938      1.896
REMARK  Name = 
REMARK  5 active torsions:
REMARK  status: ('A' for Active; 'I' for Inactive)
REMARK    1  A    between atoms: C_1  and  O_2
REMARK    2  A    between atoms: O_2  and  C_3
REMARK    3  A    between atoms: C_5  and  C_10
REMARK    4  A    between atoms: C_8  and  O_9
REMARK    5  A    between atoms: C_17  and  C_18
REMARK                            x       y       z     vdW  Elec       q    Type
REMARK                         _______ _______ _______ _____ _____    ______ ____
ROOT
ATOM      1  C   UNL     1       9.463   2.074  23.386  0.00  0.00    -0.016 A 
ATOM      2  C   UNL     1       8.190   2.046  22.753  0.00  0.00    +0.009 A 
ATOM      3  C   UNL     1       7.452   0.849  22.566  0.00  0.00    +0.011 A 
ATOM      4  C   UNL     1       7.989  -0.339  23.023  0.00  0.00    +0.008 A 
ATOM      5  C   UNL     1       7.592  -1.771  22.991  0.00  0.00    +0.048 C 
ATOM      6  C   UNL     1       8.742  -2.526  23.631  0.00  0.00    +0.249 C 
ATOM      7  N   UNL     1       9.644  -1.568  24.028  0.00  0.00    -0.281 N 
ATOM      8  H   UNL     1      10.522  -1.801  24.463  0.00  0.00    +0.155 HD
ATOM      9  O   UNL     1       8.920  -3.724  23.738  0.00  0.00    -0.270 OA
ATOM     10  C   UNL     1       6.433  -2.275  22.518  0.00  0.00    +0.039 C 
ATOM     11  C   UNL     1       9.232  -0.302  23.655  0.00  0.00    +0.042 A 
ATOM     12  C   UNL     1       9.971   0.849  23.841  0.00  0.00    +0.032 A 
ENDROOT
BRANCH   1  17
ATOM     13  C   UNL     1      10.450   5.701  24.161  0.00  0.00    +0.162 A 
ATOM     14  C   UNL     1      11.815   5.678  23.861  0.00  0.00    +0.158 A 
ATOM     15  C   UNL     1      12.411   4.498  23.433  0.00  0.00    +0.050 A 
ATOM     16  C   UNL     1      11.644   3.335  23.313  0.00  0.00    +0.012 A 
ATOM     17  C   UNL     1      10.259   3.318  23.575  0.00  0.00    -0.014 A 
ATOM     18  C   UNL     1       9.682   4.534  23.985  0.00  0.00    +0.058 A 
BRANCH  13  20
ATOM     19  C   UNL     1       8.546   7.058  23.844  0.00  0.00    +0.277 C 
ATOM     20  O   UNL     1       9.739   6.798  24.579  0.00  0.00    -0.491 OA
ENDBRANCH  13  20
BRANCH  14  21
ATOM     21  O   UNL     1      12.583   6.803  23.957  0.00  0.00    -0.503 OA
ATOM     22  H   UNL     1      12.007   7.582  24.021  0.00  0.00    +0.292 HD
ENDBRANCH  14  21
ENDBRANCH   1  17
BRANCH  10  23
ATOM     23  C   UNL     1       6.043  -3.648  22.528  0.00  0.00    +0.040 A 
ATOM     24  N   UNL     1       6.672  -4.586  21.737  0.00  0.00    -0.361 N 
ATOM     25  H   UNL     1       7.489  -4.407  21.165  0.00  0.00    +0.165 HD
ATOM     26  C   UNL     1       6.173  -5.838  21.981  0.00  0.00    +0.083 A 
ATOM     27  C   UNL     1       5.145  -5.710  22.881  0.00  0.00    +0.019 A 
ATOM     28  C   UNL     1       5.039  -4.329  23.199  0.00  0.00    +0.027 A 
ENDBRANCH  10  23
TORSDOF 4
ENDMDL
MODEL 7
REMARK VINA RESULT:      -6.7      2.308      3.341
REMARK  Name = 
REMARK  5 active torsions:
REMARK  status: ('A' for Active; 'I' for Inactive)
REMARK    1  A    between atoms: C_1  and  O_2
REMARK    2  A    between atoms: O_2  and  C_3
REMARK    3  A    between atoms: C_5  and  C_10
REMARK    4  A    between atoms: C_8  and  O_9
REMARK    5  A    between atoms: C_17  and  C_18
REMARK                            x       y       z     vdW  Elec       q    Type
REMARK                         _______ _______ _______ _____ _____    ______ ____
ROOT
ATOM      1  C   UNL     1       8.887   0.856  24.361  0.00  0.00    -0.016 A 
ATOM      2  C   UNL     1       9.665  -0.297  24.650  0.00  0.00    +0.009 A 
ATOM      3  C   UNL     1       9.093  -1.581  24.841  0.00  0.00    +0.011 A 
ATOM      4  C   UNL     1       7.721  -1.718  24.737  0.00  0.00    +0.008 A 
ATOM      5  C   UNL     1       6.744  -2.825  24.905  0.00  0.00    +0.048 C 
ATOM      6  C   UNL     1       5.378  -2.194  24.708  0.00  0.00    +0.249 C 
ATOM      7  N   UNL     1       5.615  -0.876  24.398  0.00  0.00    -0.281 N 
ATOM      8  H   UNL     1       4.870  -0.217  24.241  0.00  0.00    +0.155 HD
ATOM      9  O   UNL     1       4.272  -2.678  24.850  0.00  0.00    -0.270 OA
ATOM     10  C   UNL     1       7.029  -4.121  25.149  0.00  0.00    +0.039 C 
ATOM     11  C   UNL     1       6.966  -0.584  24.440  0.00  0.00    +0.042 A 
ATOM     12  C   UNL     1       7.500   0.676  24.257  0.00  0.00    +0.032 A 
ENDROOT
BRANCH   1  17
ATOM     13  C   UNL     1       9.340   4.668  24.325  0.00  0.00    +0.162 A 
ATOM     14  C   UNL     1      10.606   4.783  23.744  0.00  0.00    +0.158 A 
ATOM     15  C   UNL     1      11.311   3.639  23.388  0.00  0.00    +0.050 A 
ATOM     16  C   UNL     1      10.755   2.378  23.619  0.00  0.00    +0.012 A 
ATOM     17  C   UNL     1       9.470   2.214  24.175  0.00  0.00    -0.014 A 
ATOM     18  C   UNL     1       8.773   3.392  24.504  0.00  0.00    +0.058 A 
BRANCH  13  20
ATOM     19  C   UNL     1       8.634   6.071  26.085  0.00  0.00    +0.277 C 
ATOM     20  O   UNL     1       8.536   5.711  24.710  0.00  0.00    -0.491 OA
ENDBRANCH  13  20
BRANCH  14  21
ATOM     21  O   UNL     1      11.165   6.003  23.494  0.00  0.00    -0.503 OA
ATOM     22  H   UNL     1      10.791   6.367  22.675  0.00  0.00    +0.292 HD
ENDBRANCH  14  21
ENDBRANCH   1  17
BRANCH  10  23
ATOM     23  C   UNL     1       6.086  -5.185  25.269  0.00  0.00    +0.040 A 
ATOM     24  N   UNL     1       5.392  -5.664  24.178  0.00  0.00    -0.361 N 
ATOM     25  H   UNL     1       5.546  -5.373  23.220  0.00  0.00    +0.165 HD
ATOM     26  C   UNL     1       4.609  -6.731  24.533  0.00  0.00    +0.083 A 
ATOM     27  C   UNL     1       4.725  -6.901  25.889  0.00  0.00    +0.019 A 
ATOM     28  C   UNL     1       5.625  -5.907  26.359  0.00  0.00    +0.027 A 
ENDBRANCH  10  23
TORSDOF 4
ENDMDL
MODEL 8
REMARK VINA RESULT:      -6.6      2.812      4.476
REMARK  Name = 
REMARK  5 active torsions:
REMARK  status: ('A' for Active; 'I' for Inactive)
REMARK    1  A    between atoms: C_1  and  O_2
REMARK    2  A    between atoms: O_2  and  C_3
REMARK    3  A    between atoms: C_5  and  C_10
REMARK    4  A    between atoms: C_8  and  O_9
REMARK    5  A    between atoms: C_17  and  C_18
REMARK                            x       y       z     vdW  Elec       q    Type
REMARK                         _______ _______ _______ _____ _____    ______ ____
ROOT
ATOM      1  C   UNL     1       7.485  -0.877  23.153  0.00  0.00    -0.016 A 
ATOM      2  C   UNL     1       7.608  -1.926  22.201  0.00  0.00    +0.009 A 
ATOM      3  C   UNL     1       6.776  -3.074  22.213  0.00  0.00    +0.011 A 
ATOM      4  C   UNL     1       5.802  -3.177  23.189  0.00  0.00    +0.008 A 
ATOM      5  C   UNL     1       4.789  -4.191  23.583  0.00  0.00    +0.048 C 
ATOM      6  C   UNL     1       4.119  -3.635  24.825  0.00  0.00    +0.249 C 
ATOM      7  N   UNL     1       4.685  -2.400  25.035  0.00  0.00    -0.281 N 
ATOM      8  H   UNL     1       4.437  -1.820  25.820  0.00  0.00    +0.155 HD
ATOM      9  O   UNL     1       3.302  -4.151  25.563  0.00  0.00    -0.270 OA
ATOM     10  C   UNL     1       4.513  -5.345  22.940  0.00  0.00    +0.039 C 
ATOM     11  C   UNL     1       5.680  -2.138  24.111  0.00  0.00    +0.042 A 
ATOM     12  C   UNL     1       6.482  -1.015  24.123  0.00  0.00    +0.032 A 
ENDROOT
BRANCH   1  17
ATOM     13  C   UNL     1       9.028   2.514  24.077  0.00  0.00    +0.162 A 
ATOM     14  C   UNL     1      10.026   2.630  23.105  0.00  0.00    +0.158 A 
ATOM     15  C   UNL     1      10.208   1.613  22.175  0.00  0.00    +0.050 A 
ATOM     16  C   UNL     1       9.400   0.474  22.221  0.00  0.00    +0.012 A 
ATOM     17  C   UNL     1       8.362   0.327  23.164  0.00  0.00    -0.014 A 
ATOM     18  C   UNL     1       8.189   1.384  24.077  0.00  0.00    +0.058 A 
BRANCH  13  20
ATOM     19  C   UNL     1       7.597   3.145  25.843  0.00  0.00    +0.277 C 
ATOM     20  O   UNL     1       8.735   3.446  25.040  0.00  0.00    -0.491 OA
ENDBRANCH  13  20
BRANCH  14  21
ATOM     21  O   UNL     1      10.820   3.738  23.029  0.00  0.00    -0.503 OA
ATOM     22  H   UNL     1      10.265   4.534  23.064  0.00  0.00    +0.292 HD
ENDBRANCH  14  21
ENDBRANCH   1  17
BRANCH  10  23
ATOM     23  C   UNL     1       3.510  -6.294  23.302  0.00  0.00    +0.040 A 
ATOM     24  N   UNL     1       3.740  -7.263  24.255  0.00  0.00    -0.361 N 
ATOM     25  H   UNL     1       4.578  -7.331  24.821  0.00  0.00    +0.165 HD
ATOM     26  C   UNL     1       2.607  -7.999  24.481  0.00  0.00    +0.083 A 
ATOM     27  C   UNL     1       1.645  -7.564  23.604  0.00  0.00    +0.019 A 
ATOM     28  C   UNL     1       2.222  -6.516  22.838  0.00  0.00    +0.027 A 
ENDBRANCH  10  23
TORSDOF 4
ENDMDL
MODEL 9
REMARK VINA RESULT:      -6.6      2.621      3.963
REMARK  Name = 
REMARK  5 active torsions:
REMARK  status: ('A' for Active; 'I' for Inactive)
REMARK    1  A    between atoms: C_1  and  O_2
REMARK    2  A    between atoms: O_2  and  C_3
REMARK    3  A    between atoms: C_5  and  C_10
REMARK    4  A    between atoms: C_8  and  O_9
REMARK    5  A    between atoms: C_17  and  C_18
REMARK                            x       y       z     vdW  Elec       q    Type
REMARK                         _______ _______ _______ _____ _____    ______ ____
ROOT
ATOM      1  C   UNL     1       7.436  -0.021  23.851  0.00  0.00    -0.016 A 
ATOM      2  C   UNL     1       6.466  -0.166  24.880  0.00  0.00    +0.009 A 
ATOM      3  C   UNL     1       5.592  -1.280  24.960  0.00  0.00    +0.011 A 
ATOM      4  C   UNL     1       5.689  -2.269  23.999  0.00  0.00    +0.008 A 
ATOM      5  C   UNL     1       4.966  -3.530  23.688  0.00  0.00    +0.048 C 
ATOM      6  C   UNL     1       5.592  -4.053  22.409  0.00  0.00    +0.249 C 
ATOM      7  N   UNL     1       6.605  -3.176  22.102  0.00  0.00    -0.281 N 
ATOM      8  H   UNL     1       7.172  -3.277  21.276  0.00  0.00    +0.155 HD
ATOM      9  O   UNL     1       5.267  -4.998  21.717  0.00  0.00    -0.270 OA
ATOM     10  C   UNL     1       3.982  -4.095  24.419  0.00  0.00    +0.039 C 
ATOM     11  C   UNL     1       6.651  -2.126  22.999  0.00  0.00    +0.042 A 
ATOM     12  C   UNL     1       7.508  -1.047  22.898  0.00  0.00    +0.032 A 
ENDROOT
BRANCH   1  17
ATOM     13  C   UNL     1       8.773   3.536  23.309  0.00  0.00    +0.162 A 
ATOM     14  C   UNL     1      10.145   3.339  23.493  0.00  0.00    +0.158 A 
ATOM     15  C   UNL     1      10.626   2.074  23.808  0.00  0.00    +0.050 A 
ATOM     16  C   UNL     1       9.737   1.005  23.949  0.00  0.00    +0.012 A 
ATOM     17  C   UNL     1       8.350   1.150  23.743  0.00  0.00    -0.014 A 
ATOM     18  C   UNL     1       7.896   2.438  23.404  0.00  0.00    +0.058 A 
BRANCH  13  20
ATOM     19  C   UNL     1       6.849   4.607  22.463  0.00  0.00    +0.277 C 
ATOM     20  O   UNL     1       8.170   4.725  22.983  0.00  0.00    -0.491 OA
ENDBRANCH  13  20
BRANCH  14  21
ATOM     21  O   UNL     1      11.036   4.363  23.347  0.00  0.00    -0.503 OA
ATOM     22  H   UNL     1      11.834   4.034  22.902  0.00  0.00    +0.292 HD
ENDBRANCH  14  21
ENDBRANCH   1  17
BRANCH  10  23
ATOM     23  C   UNL     1       3.321  -5.327  24.135  0.00  0.00    +0.040 A 
ATOM     24  N   UNL     1       2.385  -5.431  23.129  0.00  0.00    -0.361 N 
ATOM     25  H   UNL     1       2.155  -4.695  22.472  0.00  0.00    +0.165 HD
ATOM     26  C   UNL     1       1.953  -6.725  23.002  0.00  0.00    +0.083 A 
ATOM     27  C   UNL     1       2.548  -7.463  23.993  0.00  0.00    +0.019 A 
ATOM     28  C   UNL     1       3.381  -6.578  24.729  0.00  0.00    +0.027 A 
ENDBRANCH  10  23
TORSDOF 4
ENDMDL
