MODEL 1
REMARK VINA RESULT:      -5.3      0.000      0.000
REMARK  Name = 
REMARK  10 active torsions:
REMARK  status: ('A' for Active; 'I' for Inactive)
REMARK    1  A    between atoms: C_2  and  N_3
REMARK    2  A    between atoms: C_2  and  C_11
REMARK    3  A    between atoms: C_2  and  C_14
REMARK    4  A    between atoms: C_4  and  O_6
REMARK    5  A    between atoms: O_6  and  C_7
REMARK    6  A    between atoms: C_7  and  C_8
REMARK    7  A    between atoms: C_7  and  C_9
REMARK    8  A    between atoms: C_7  and  C_10
REMARK    9  A    between atoms: C_11  and  C_12
REMARK   10  A    between atoms: C_11  and  C_13
REMARK                            x       y       z     vdW  Elec       q    Type
REMARK                         _______ _______ _______ _____ _____    ______ ____
ROOT
ATOM      1  C   UNL     1       8.685  -1.904  24.338  0.00  0.00    +0.166 C 
ENDROOT
BRANCH   1   2
ATOM      2  C   UNL     1       9.130  -3.206  24.940  0.00  0.00    +0.237 A 
ATOM      3  O   UNL     1       8.666  -3.535  26.188  0.00  0.00    -0.425 OA
ATOM      4  C   UNL     1       9.271  -4.741  26.390  0.00  0.00    +0.332 A 
ATOM      5  N   UNL     1      10.025  -5.123  25.388  0.00  0.00    -0.116 NA
ATOM      6  N   UNL     1       9.950  -4.116  24.450  0.00  0.00    -0.111 NA
ENDBRANCH   1   2
BRANCH   1   7
ATOM      7  N   UNL     1       9.884  -1.105  24.073  0.00  0.00    -0.269 N 
ATOM      8  H   UNL     1      10.749  -1.618  24.204  0.00  0.00    +0.153 HD
ATOM      9  C   UNL     1      10.023   0.163  24.551  0.00  0.00    +0.401 C 
ATOM     10  O   UNL     1      11.040   0.486  25.150  0.00  0.00    -0.226 OA
BRANCH   9  11
ATOM     11  O   UNL     1       8.988   0.982  24.236  0.00  0.00    -0.445 OA
BRANCH  11  12
ATOM     12  C   UNL     1       9.148   2.001  23.206  0.00  0.00    +0.107 C 
ATOM     13  C   UNL     1       9.567   3.323  23.857  0.00  0.00    +0.055 C 
ATOM     14  C   UNL     1       7.759   2.186  22.571  0.00  0.00    +0.055 C 
ATOM     15  C   UNL     1      10.112   1.596  22.077  0.00  0.00    +0.055 C 
ENDBRANCH  11  12
ENDBRANCH   9  11
ENDBRANCH   1   7
BRANCH   1  16
ATOM     16  C   UNL     1       7.836  -2.104  23.063  0.00  0.00    +0.012 C 
ATOM     17  C   UNL     1       8.645  -1.779  21.797  0.00  0.00    +0.009 C 
ATOM     18  C   UNL     1       6.518  -1.317  23.043  0.00  0.00    +0.009 C 
ENDBRANCH   1  16
TORSDOF 5
ENDMDL
MODEL 2
REMARK VINA RESULT:      -5.2      3.057      3.803
REMARK  Name = 
REMARK  10 active torsions:
REMARK  status: ('A' for Active; 'I' for Inactive)
REMARK    1  A    between atoms: C_2  and  N_3
REMARK    2  A    between atoms: C_2  and  C_11
REMARK    3  A    between atoms: C_2  and  C_14
REMARK    4  A    between atoms: C_4  and  O_6
REMARK    5  A    between atoms: O_6  and  C_7
REMARK    6  A    between atoms: C_7  and  C_8
REMARK    7  A    between atoms: C_7  and  C_9
REMARK    8  A    between atoms: C_7  and  C_10
REMARK    9  A    between atoms: C_11  and  C_12
REMARK   10  A    between atoms: C_11  and  C_13
REMARK                            x       y       z     vdW  Elec       q    Type
REMARK                         _______ _______ _______ _____ _____    ______ ____
ROOT
ATOM      1  C   UNL     1       7.745  -3.466  23.344  0.00  0.00    +0.166 C 
ENDROOT
BRANCH   1   2
ATOM      2  C   UNL     1       7.046  -4.354  22.354  0.00  0.00    +0.237 A 
ATOM      3  O   UNL     1       7.410  -5.676  22.301  0.00  0.00    -0.425 OA
ATOM      4  C   UNL     1       6.590  -6.140  21.315  0.00  0.00    +0.332 A 
ATOM      5  N   UNL     1       5.805  -5.219  20.809  0.00  0.00    -0.116 NA
ATOM      6  N   UNL     1       6.115  -4.051  21.471  0.00  0.00    -0.111 NA
ENDBRANCH   1   2
BRANCH   1   7
ATOM      7  N   UNL     1       8.266  -2.310  22.612  0.00  0.00    -0.269 N 
ATOM      8  H   UNL     1       8.077  -2.343  21.616  0.00  0.00    +0.153 HD
ATOM      9  C   UNL     1       9.522  -1.829  22.828  0.00  0.00    +0.401 C 
ATOM     10  O   UNL     1      10.273  -1.625  21.884  0.00  0.00    -0.226 OA
BRANCH   9  11
ATOM     11  O   UNL     1       9.787  -1.559  24.131  0.00  0.00    -0.445 OA
BRANCH  11  12
ATOM     12  C   UNL     1       9.572  -0.218  24.659  0.00  0.00    +0.107 C 
ATOM     13  C   UNL     1      10.918   0.507  24.774  0.00  0.00    +0.055 C 
ATOM     14  C   UNL     1       8.994  -0.404  26.073  0.00  0.00    +0.055 C 
ATOM     15  C   UNL     1       8.551   0.609  23.858  0.00  0.00    +0.055 C 
ENDBRANCH  11  12
ENDBRANCH   9  11
ENDBRANCH   1   7
BRANCH   1  16
ATOM     16  C   UNL     1       6.820  -3.039  24.507  0.00  0.00    +0.012 C 
ATOM     17  C   UNL     1       6.011  -4.231  25.043  0.00  0.00    +0.009 C 
ATOM     18  C   UNL     1       5.866  -1.883  24.173  0.00  0.00    +0.009 C 
ENDBRANCH   1  16
TORSDOF 5
ENDMDL
MODEL 3
REMARK VINA RESULT:      -5.1      2.763      3.581
REMARK  Name = 
REMARK  10 active torsions:
REMARK  status: ('A' for Active; 'I' for Inactive)
REMARK    1  A    between atoms: C_2  and  N_3
REMARK    2  A    between atoms: C_2  and  C_11
REMARK    3  A    between atoms: C_2  and  C_14
REMARK    4  A    between atoms: C_4  and  O_6
REMARK    5  A    between atoms: O_6  and  C_7
REMARK    6  A    between atoms: C_7  and  C_8
REMARK    7  A    between atoms: C_7  and  C_9
REMARK    8  A    between atoms: C_7  and  C_10
REMARK    9  A    between atoms: C_11  and  C_12
REMARK   10  A    between atoms: C_11  and  C_13
REMARK                            x       y       z     vdW  Elec       q    Type
REMARK                         _______ _______ _______ _____ _____    ______ ____
ROOT
ATOM      1  C   UNL     1       6.691  -4.621  24.094  0.00  0.00    +0.166 C 
ENDROOT
BRANCH   1   2
ATOM      2  C   UNL     1       6.829  -4.931  25.558  0.00  0.00    +0.237 A 
ATOM      3  O   UNL     1       6.015  -4.268  26.440  0.00  0.00    -0.425 OA
ATOM      4  C   UNL     1       6.423  -4.794  27.630  0.00  0.00    +0.332 A 
ATOM      5  N   UNL     1       7.379  -5.684  27.509  0.00  0.00    -0.116 NA
ATOM      6  N   UNL     1       7.659  -5.760  26.162  0.00  0.00    -0.111 NA
ENDBRANCH   1   2
BRANCH   1   7
ATOM      7  N   UNL     1       8.035  -4.383  23.564  0.00  0.00    -0.269 N 
ATOM      8  H   UNL     1       8.573  -5.231  23.430  0.00  0.00    +0.153 HD
ATOM      9  C   UNL     1       8.839  -3.400  24.057  0.00  0.00    +0.401 C 
ATOM     10  O   UNL     1       9.991  -3.652  24.379  0.00  0.00    -0.226 OA
BRANCH   9  11
ATOM     11  O   UNL     1       8.254  -2.175  24.077  0.00  0.00    -0.445 OA
BRANCH  11  12
ATOM     12  C   UNL     1       8.794  -1.093  23.261  0.00  0.00    +0.107 C 
ATOM     13  C   UNL     1       9.853  -0.329  24.063  0.00  0.00    +0.055 C 
ATOM     14  C   UNL     1       7.616  -0.145  22.978  0.00  0.00    +0.055 C 
ATOM     15  C   UNL     1       9.340  -1.556  21.899  0.00  0.00    +0.055 C 
ENDBRANCH  11  12
ENDBRANCH   9  11
ENDBRANCH   1   7
BRANCH   1  16
ATOM     16  C   UNL     1       5.959  -5.741  23.321  0.00  0.00    +0.012 C 
ATOM     17  C   UNL     1       6.670  -6.061  21.996  0.00  0.00    +0.009 C 
ATOM     18  C   UNL     1       4.473  -5.464  23.051  0.00  0.00    +0.009 C 
ENDBRANCH   1  16
TORSDOF 5
ENDMDL
MODEL 4
REMARK VINA RESULT:      -5.1      1.774      2.055
REMARK  Name = 
REMARK  10 active torsions:
REMARK  status: ('A' for Active; 'I' for Inactive)
REMARK    1  A    between atoms: C_2  and  N_3
REMARK    2  A    between atoms: C_2  and  C_11
REMARK    3  A    between atoms: C_2  and  C_14
REMARK    4  A    between atoms: C_4  and  O_6
REMARK    5  A    between atoms: O_6  and  C_7
REMARK    6  A    between atoms: C_7  and  C_8
REMARK    7  A    between atoms: C_7  and  C_9
REMARK    8  A    between atoms: C_7  and  C_10
REMARK    9  A    between atoms: C_11  and  C_12
REMARK   10  A    between atoms: C_11  and  C_13
REMARK                            x       y       z     vdW  Elec       q    Type
REMARK                         _______ _______ _______ _____ _____    ______ ____
ROOT
ATOM      1  C   UNL     1       7.589  -2.487  23.724  0.00  0.00    +0.166 C 
ENDROOT
BRANCH   1   2
ATOM      2  C   UNL     1       8.284  -3.646  24.380  0.00  0.00    +0.237 A 
ATOM      3  O   UNL     1       8.590  -3.547  25.714  0.00  0.00    -0.425 OA
ATOM      4  C   UNL     1       9.197  -4.747  25.939  0.00  0.00    +0.332 A 
ATOM      5  N   UNL     1       9.263  -5.509  24.874  0.00  0.00    -0.116 NA
ATOM      6  N   UNL     1       8.686  -4.786  23.853  0.00  0.00    -0.111 NA
ENDBRANCH   1   2
BRANCH   1   7
ATOM      7  N   UNL     1       8.451  -2.007  22.642  0.00  0.00    -0.269 N 
ATOM      8  H   UNL     1       8.508  -2.646  21.857  0.00  0.00    +0.153 HD
ATOM      9  C   UNL     1       9.677  -1.466  22.886  0.00  0.00    +0.401 C 
ATOM     10  O   UNL     1      10.658  -1.865  22.274  0.00  0.00    -0.226 OA
BRANCH   9  11
ATOM     11  O   UNL     1       9.656  -0.450  23.786  0.00  0.00    -0.445 OA
BRANCH  11  12
ATOM     12  C   UNL     1       9.591   0.932  23.327  0.00  0.00    +0.107 C 
ATOM     13  C   UNL     1      10.703   1.746  23.998  0.00  0.00    +0.055 C 
ATOM     14  C   UNL     1       8.232   1.474  23.804  0.00  0.00    +0.055 C 
ATOM     15  C   UNL     1       9.626   1.080  21.796  0.00  0.00    +0.055 C 
ENDBRANCH  11  12
ENDBRANCH   9  11
ENDBRANCH   1   7
BRANCH   1  16
ATOM     16  C   UNL     1       6.179  -2.859  23.212  0.00  0.00    +0.012 C 
ATOM     17  C   UNL     1       5.447  -3.775  24.206  0.00  0.00    +0.009 C 
ATOM     18  C   UNL     1       6.155  -3.496  21.815  0.00  0.00    +0.009 C 
ENDBRANCH   1  16
TORSDOF 5
ENDMDL
MODEL 5
REMARK VINA RESULT:      -5.1      2.019      2.213
REMARK  Name = 
REMARK  10 active torsions:
REMARK  status: ('A' for Active; 'I' for Inactive)
REMARK    1  A    between atoms: C_2  and  N_3
REMARK    2  A    between atoms: C_2  and  C_11
REMARK    3  A    between atoms: C_2  and  C_14
REMARK    4  A    between atoms: C_4  and  O_6
REMARK    5  A    between atoms: O_6  and  C_7
REMARK    6  A    between atoms: C_7  and  C_8
REMARK    7  A    between atoms: C_7  and  C_9
REMARK    8  A    between atoms: C_7  and  C_10
REMARK    9  A    between atoms: C_11  and  C_12
REMARK   10  A    between atoms: C_11  and  C_13
REMARK                            x       y       z     vdW  Elec       q    Type
REMARK                         _______ _______ _______ _____ _____    ______ ____
ROOT
ATOM      1  C   UNL     1       7.568  -3.035  23.670  0.00  0.00    +0.166 C 
ENDROOT
BRANCH   1   2
ATOM      2  C   UNL     1       8.356  -3.790  24.703  0.00  0.00    +0.237 A 
ATOM      3  O   UNL     1       9.081  -4.880  24.295  0.00  0.00    -0.425 OA
ATOM      4  C   UNL     1       9.635  -5.290  25.471  0.00  0.00    +0.332 A 
ATOM      5  N   UNL     1       9.298  -4.545  26.497  0.00  0.00    -0.116 NA
ATOM      6  N   UNL     1       8.449  -3.579  26.002  0.00  0.00    -0.111 NA
ENDBRANCH   1   2
BRANCH   1   7
ATOM      7  N   UNL     1       8.514  -2.540  22.667  0.00  0.00    -0.269 N 
ATOM      8  H   UNL     1       8.839  -3.257  22.029  0.00  0.00    +0.153 HD
ATOM      9  C   UNL     1       9.545  -1.714  22.998  0.00  0.00    +0.401 C 
ATOM     10  O   UNL     1      10.682  -1.972  22.628  0.00  0.00    -0.226 OA
BRANCH   9  11
ATOM     11  O   UNL     1       9.162  -0.609  23.686  0.00  0.00    -0.445 OA
BRANCH  11  12
ATOM     12  C   UNL     1       9.231   0.705  23.057  0.00  0.00    +0.107 C 
ATOM     13  C   UNL     1      10.421   1.482  23.630  0.00  0.00    +0.055 C 
ATOM     14  C   UNL     1       7.935   1.434  23.449  0.00  0.00    +0.055 C 
ATOM     15  C   UNL     1       9.276   0.655  21.519  0.00  0.00    +0.055 C 
ENDBRANCH  11  12
ENDBRANCH   9  11
ENDBRANCH   1   7
BRANCH   1  16
ATOM     16  C   UNL     1       6.455  -3.897  23.032  0.00  0.00    +0.012 C 
ATOM     17  C   UNL     1       5.610  -3.076  22.045  0.00  0.00    +0.009 C 
ATOM     18  C   UNL     1       5.531  -4.594  24.041  0.00  0.00    +0.009 C 
ENDBRANCH   1  16
TORSDOF 5
ENDMDL
MODEL 6
REMARK VINA RESULT:      -4.9      3.091      4.410
REMARK  Name = 
REMARK  10 active torsions:
REMARK  status: ('A' for Active; 'I' for Inactive)
REMARK    1  A    between atoms: C_2  and  N_3
REMARK    2  A    between atoms: C_2  and  C_11
REMARK    3  A    between atoms: C_2  and  C_14
REMARK    4  A    between atoms: C_4  and  O_6
REMARK    5  A    between atoms: O_6  and  C_7
REMARK    6  A    between atoms: C_7  and  C_8
REMARK    7  A    between atoms: C_7  and  C_9
REMARK    8  A    between atoms: C_7  and  C_10
REMARK    9  A    between atoms: C_11  and  C_12
REMARK   10  A    between atoms: C_11  and  C_13
REMARK                            x       y       z     vdW  Elec       q    Type
REMARK                         _______ _______ _______ _____ _____    ______ ____
ROOT
ATOM      1  C   UNL     1       8.002  -4.263  23.787  0.00  0.00    +0.166 C 
ENDROOT
BRANCH   1   2
ATOM      2  C   UNL     1       6.936  -4.884  22.930  0.00  0.00    +0.237 A 
ATOM      3  O   UNL     1       7.272  -5.272  21.658  0.00  0.00    -0.425 OA
ATOM      4  C   UNL     1       6.085  -5.768  21.206  0.00  0.00    +0.332 A 
ATOM      5  N   UNL     1       5.118  -5.701  22.090  0.00  0.00    -0.116 NA
ATOM      6  N   UNL     1       5.666  -5.107  23.207  0.00  0.00    -0.111 NA
ENDBRANCH   1   2
BRANCH   1   7
ATOM      7  N   UNL     1       7.538  -2.928  24.172  0.00  0.00    -0.269 N 
ATOM      8  H   UNL     1       6.843  -2.938  24.910  0.00  0.00    +0.153 HD
ATOM      9  C   UNL     1       7.212  -1.985  23.245  0.00  0.00    +0.401 C 
ATOM     10  O   UNL     1       6.146  -1.390  23.322  0.00  0.00    -0.226 OA
BRANCH   9  11
ATOM     11  O   UNL     1       8.188  -1.760  22.329  0.00  0.00    -0.445 OA
BRANCH  11  12
ATOM     12  C   UNL     1       9.238  -0.786  22.603  0.00  0.00    +0.107 C 
ATOM     13  C   UNL     1       9.349   0.189  21.426  0.00  0.00    +0.055 C 
ATOM     14  C   UNL     1      10.547  -1.588  22.699  0.00  0.00    +0.055 C 
ATOM     15  C   UNL     1       9.062  -0.043  23.939  0.00  0.00    +0.055 C 
ENDBRANCH  11  12
ENDBRANCH   9  11
ENDBRANCH   1   7
BRANCH   1  16
ATOM     16  C   UNL     1       8.345  -5.128  25.021  0.00  0.00    +0.012 C 
ATOM     17  C   UNL     1       7.462  -4.761  26.224  0.00  0.00    +0.009 C 
ATOM     18  C   UNL     1       9.822  -5.088  25.438  0.00  0.00    +0.009 C 
ENDBRANCH   1  16
TORSDOF 5
ENDMDL
MODEL 7
REMARK VINA RESULT:      -4.9      3.204      6.179
REMARK  Name = 
REMARK  10 active torsions:
REMARK  status: ('A' for Active; 'I' for Inactive)
REMARK    1  A    between atoms: C_2  and  N_3
REMARK    2  A    between atoms: C_2  and  C_11
REMARK    3  A    between atoms: C_2  and  C_14
REMARK    4  A    between atoms: C_4  and  O_6
REMARK    5  A    between atoms: O_6  and  C_7
REMARK    6  A    between atoms: C_7  and  C_8
REMARK    7  A    between atoms: C_7  and  C_9
REMARK    8  A    between atoms: C_7  and  C_10
REMARK    9  A    between atoms: C_11  and  C_12
REMARK   10  A    between atoms: C_11  and  C_13
REMARK                            x       y       z     vdW  Elec       q    Type
REMARK                         _______ _______ _______ _____ _____    ______ ____
ROOT
ATOM      1  C   UNL     1       7.864  -3.723  23.494  0.00  0.00    +0.166 C 
ENDROOT
BRANCH   1   2
ATOM      2  C   UNL     1       8.857  -2.606  23.341  0.00  0.00    +0.237 A 
ATOM      3  O   UNL     1       9.304  -2.306  22.079  0.00  0.00    -0.425 OA
ATOM      4  C   UNL     1      10.165  -1.280  22.337  0.00  0.00    +0.332 A 
ATOM      5  N   UNL     1      10.248  -0.972  23.609  0.00  0.00    -0.116 NA
ATOM      6  N   UNL     1       9.411  -1.848  24.267  0.00  0.00    -0.111 NA
ENDBRANCH   1   2
BRANCH   1   7
ATOM      7  N   UNL     1       6.998  -3.394  24.629  0.00  0.00    -0.269 N 
ATOM      8  H   UNL     1       7.144  -2.458  24.990  0.00  0.00    +0.153 HD
ATOM      9  C   UNL     1       6.803  -4.262  25.660  0.00  0.00    +0.401 C 
ATOM     10  O   UNL     1       6.939  -3.884  26.816  0.00  0.00    -0.226 OA
BRANCH   9  11
ATOM     11  O   UNL     1       6.400  -5.496  25.266  0.00  0.00    -0.445 OA
BRANCH  11  12
ATOM     12  C   UNL     1       5.016  -5.911  25.462  0.00  0.00    +0.107 C 
ATOM     13  C   UNL     1       4.907  -6.732  26.751  0.00  0.00    +0.055 C 
ATOM     14  C   UNL     1       4.671  -6.821  24.270  0.00  0.00    +0.055 C 
ATOM     15  C   UNL     1       4.011  -4.745  25.447  0.00  0.00    +0.055 C 
ENDBRANCH  11  12
ENDBRANCH   9  11
ENDBRANCH   1   7
BRANCH   1  16
ATOM     16  C   UNL     1       7.049  -3.968  22.204  0.00  0.00    +0.012 C 
ATOM     17  C   UNL     1       5.621  -3.414  22.331  0.00  0.00    +0.009 C 
ATOM     18  C   UNL     1       6.991  -5.435  21.754  0.00  0.00    +0.009 C 
ENDBRANCH   1  16
TORSDOF 5
ENDMDL
MODEL 8
REMARK VINA RESULT:      -4.9      2.719      3.710
REMARK  Name = 
REMARK  10 active torsions:
REMARK  status: ('A' for Active; 'I' for Inactive)
REMARK    1  A    between atoms: C_2  and  N_3
REMARK    2  A    between atoms: C_2  and  C_11
REMARK    3  A    between atoms: C_2  and  C_14
REMARK    4  A    between atoms: C_4  and  O_6
REMARK    5  A    between atoms: O_6  and  C_7
REMARK    6  A    between atoms: C_7  and  C_8
REMARK    7  A    between atoms: C_7  and  C_9
REMARK    8  A    between atoms: C_7  and  C_10
REMARK    9  A    between atoms: C_11  and  C_12
REMARK   10  A    between atoms: C_11  and  C_13
REMARK                            x       y       z     vdW  Elec       q    Type
REMARK                         _______ _______ _______ _____ _____    ______ ____
ROOT
ATOM      1  C   UNL     1       7.505  -4.046  25.975  0.00  0.00    +0.166 C 
ENDROOT
BRANCH   1   2
ATOM      2  C   UNL     1       6.890  -4.672  27.195  0.00  0.00    +0.237 A 
ATOM      3  O   UNL     1       5.778  -4.079  27.735  0.00  0.00    -0.425 OA
ATOM      4  C   UNL     1       5.523  -4.900  28.793  0.00  0.00    +0.332 A 
ATOM      5  N   UNL     1       6.374  -5.892  28.903  0.00  0.00    -0.116 NA
ATOM      6  N   UNL     1       7.277  -5.734  27.874  0.00  0.00    -0.111 NA
ENDBRANCH   1   2
BRANCH   1   7
ATOM      7  N   UNL     1       8.519  -3.092  26.430  0.00  0.00    -0.269 N 
ATOM      8  H   UNL     1       8.843  -3.266  27.375  0.00  0.00    +0.153 HD
ATOM      9  C   UNL     1       8.388  -1.752  26.226  0.00  0.00    +0.401 C 
ATOM     10  O   UNL     1       8.537  -0.971  27.156  0.00  0.00    -0.226 OA
BRANCH   9  11
ATOM     11  O   UNL     1       8.156  -1.417  24.932  0.00  0.00    -0.445 OA
BRANCH  11  12
ATOM     12  C   UNL     1       9.247  -0.931  24.095  0.00  0.00    +0.107 C 
ATOM     13  C   UNL     1      10.096   0.067  24.890  0.00  0.00    +0.055 C 
ATOM     14  C   UNL     1       8.585  -0.186  22.923  0.00  0.00    +0.055 C 
ATOM     15  C   UNL     1      10.111  -2.052  23.489  0.00  0.00    +0.055 C 
ENDBRANCH  11  12
ENDBRANCH   9  11
ENDBRANCH   1   7
BRANCH   1  16
ATOM     16  C   UNL     1       8.099  -5.097  25.010  0.00  0.00    +0.012 C 
ATOM     17  C   UNL     1       9.619  -5.227  25.192  0.00  0.00    +0.009 C 
ATOM     18  C   UNL     1       7.780  -4.855  23.527  0.00  0.00    +0.009 C 
ENDBRANCH   1  16
TORSDOF 5
ENDMDL
MODEL 9
REMARK VINA RESULT:      -4.8      2.973      6.181
REMARK  Name = 
REMARK  10 active torsions:
REMARK  status: ('A' for Active; 'I' for Inactive)
REMARK    1  A    between atoms: C_2  and  N_3
REMARK    2  A    between atoms: C_2  and  C_11
REMARK    3  A    between atoms: C_2  and  C_14
REMARK    4  A    between atoms: C_4  and  O_6
REMARK    5  A    between atoms: O_6  and  C_7
REMARK    6  A    between atoms: C_7  and  C_8
REMARK    7  A    between atoms: C_7  and  C_9
REMARK    8  A    between atoms: C_7  and  C_10
REMARK    9  A    between atoms: C_11  and  C_12
REMARK   10  A    between atoms: C_11  and  C_13
REMARK                            x       y       z     vdW  Elec       q    Type
REMARK                         _______ _______ _______ _____ _____    ______ ____
ROOT
ATOM      1  C   UNL     1       7.582  -1.374  23.334  0.00  0.00    +0.166 C 
ENDROOT
BRANCH   1   2
ATOM      2  C   UNL     1       8.095  -0.179  22.581  0.00  0.00    +0.237 A 
ATOM      3  O   UNL     1       7.413   1.005  22.705  0.00  0.00    -0.425 OA
ATOM      4  C   UNL     1       8.149   1.824  21.901  0.00  0.00    +0.332 A 
ATOM      5  N   UNL     1       9.173   1.225  21.340  0.00  0.00    -0.116 NA
ATOM      6  N   UNL     1       9.127  -0.084  21.766  0.00  0.00    -0.111 NA
ENDBRANCH   1   2
BRANCH   1   7
ATOM      7  N   UNL     1       7.318  -2.433  22.357  0.00  0.00    -0.269 N 
ATOM      8  H   UNL     1       7.500  -2.154  21.399  0.00  0.00    +0.153 HD
ATOM      9  C   UNL     1       6.190  -3.194  22.410  0.00  0.00    +0.401 C 
ATOM     10  O   UNL     1       5.502  -3.345  21.410  0.00  0.00    -0.226 OA
BRANCH   9  11
ATOM     11  O   UNL     1       5.983  -3.780  23.617  0.00  0.00    -0.445 OA
BRANCH  11  12
ATOM     12  C   UNL     1       6.400  -5.158  23.843  0.00  0.00    +0.107 C 
ATOM     13  C   UNL     1       5.172  -6.075  23.808  0.00  0.00    +0.055 C 
ATOM     14  C   UNL     1       6.998  -5.196  25.260  0.00  0.00    +0.055 C 
ATOM     15  C   UNL     1       7.495  -5.642  22.876  0.00  0.00    +0.055 C 
ENDBRANCH  11  12
ENDBRANCH   9  11
ENDBRANCH   1   7
BRANCH   1  16
ATOM     16  C   UNL     1       8.562  -1.841  24.435  0.00  0.00    +0.012 C 
ATOM     17  C   UNL     1       9.148  -0.646  25.204  0.00  0.00    +0.009 C 
ATOM     18  C   UNL     1       9.703  -2.738  23.935  0.00  0.00    +0.009 C 
ENDBRANCH   1  16
TORSDOF 5
ENDMDL
