MODEL 1
REMARK VINA RESULT:      -7.6      0.000      0.000
REMARK  Name = 
REMARK  4 active torsions:
REMARK  status: ('A' for Active; 'I' for Inactive)
REMARK    1  A    between atoms: C_1  and  C_2
REMARK    2  A    between atoms: C_6  and  C_8
REMARK    3  A    between atoms: C_10  and  N_11
REMARK    4  A    between atoms: N_11  and  C_12
REMARK                            x       y       z     vdW  Elec       q    Type
REMARK                         _______ _______ _______ _____ _____    ______ ____
ROOT
ATOM      1  C   UNL     1       5.693  -3.350  25.713  0.00  0.00    +0.181 A 
ATOM      2  N   UNL     1       5.044  -4.220  24.922  0.00  0.00    -0.226 NA
ATOM      3  C   UNL     1       5.682  -4.670  23.839  0.00  0.00    +0.077 A 
ATOM      4  C   UNL     1       6.984  -4.278  23.502  0.00  0.00    +0.040 A 
ATOM      5  C   UNL     1       7.604  -4.832  22.351  0.00  0.00    +0.013 A 
ATOM      6  C   UNL     1       6.929  -5.755  21.553  0.00  0.00    +0.001 A 
ATOM      7  C   UNL     1       5.629  -6.115  21.878  0.00  0.00    +0.002 A 
ATOM      8  C   UNL     1       7.556  -3.318  24.351  0.00  0.00    +0.135 A 
ATOM      9  C   UNL     1       5.022  -5.568  23.010  0.00  0.00    +0.028 A 
ATOM     10  N   UNL     1       6.921  -2.870  25.446  0.00  0.00    -0.210 NA
ENDROOT
BRANCH   1  14
ATOM     11  C   UNL     1       3.929  -4.518  30.102  0.00  0.00    +0.065 C 
ATOM     12  C   UNL     1       4.199  -3.450  29.086  0.00  0.00    +0.039 A 
ATOM     13  N   UNL     1       4.760  -3.847  27.917  0.00  0.00    -0.249 NA
ATOM     14  C   UNL     1       5.062  -2.901  26.982  0.00  0.00    +0.108 A 
ATOM     15  C   UNL     1       4.806  -1.547  27.219  0.00  0.00    +0.031 A 
ATOM     16  C   UNL     1       4.231  -1.153  28.423  0.00  0.00    +0.004 A 
ATOM     17  C   UNL     1       3.924  -2.117  29.372  0.00  0.00    +0.023 A 
ENDBRANCH   1  14
BRANCH   8  18
ATOM     18  N   UNL     1       8.845  -2.792  24.072  0.00  0.00    -0.299 N 
ATOM     19  H   UNL     1       9.470  -2.996  24.844  0.00  0.00    +0.154 HD
BRANCH  18  20
ATOM     20  C   UNL     1       9.120  -1.554  23.439  0.00  0.00    +0.033 A 
ATOM     21  C   UNL     1       9.583  -0.465  24.201  0.00  0.00    +0.034 A 
ATOM     22  C   UNL     1       9.924   0.741  23.556  0.00  0.00    +0.021 A 
ATOM     23  C   UNL     1       9.821   0.827  22.173  0.00  0.00    +0.066 A 
ATOM     24  N   UNL     1      10.227   2.095  21.853  0.00  0.00    -0.277 N 
ATOM     25  H   UNL     1      10.293   2.509  20.930  0.00  0.00    +0.189 HD
ATOM     26  N   UNL     1      10.578   2.841  22.915  0.00  0.00    -0.181 NA
ATOM     27  C   UNL     1       9.388  -0.234  21.380  0.00  0.00    +0.029 A 
ATOM     28  C   UNL     1      10.394   2.015  23.949  0.00  0.00    +0.142 A 
ATOM     29  C   UNL     1       9.053  -1.421  22.042  0.00  0.00    +0.025 A 
ENDBRANCH  18  20
ENDBRANCH   8  18
TORSDOF 3
ENDMDL
MODEL 2
REMARK VINA RESULT:      -7.6      1.485      2.342
REMARK  Name = 
REMARK  4 active torsions:
REMARK  status: ('A' for Active; 'I' for Inactive)
REMARK    1  A    between atoms: C_1  and  C_2
REMARK    2  A    between atoms: C_6  and  C_8
REMARK    3  A    between atoms: C_10  and  N_11
REMARK    4  A    between atoms: N_11  and  C_12
REMARK                            x       y       z     vdW  Elec       q    Type
REMARK                         _______ _______ _______ _____ _____    ______ ____
ROOT
ATOM      1  C   UNL     1       6.297  -5.075  26.436  0.00  0.00    +0.181 A 
ATOM      2  N   UNL     1       5.517  -5.593  25.472  0.00  0.00    -0.226 NA
ATOM      3  C   UNL     1       5.964  -5.537  24.215  0.00  0.00    +0.077 A 
ATOM      4  C   UNL     1       7.198  -4.971  23.867  0.00  0.00    +0.040 A 
ATOM      5  C   UNL     1       7.615  -4.984  22.510  0.00  0.00    +0.013 A 
ATOM      6  C   UNL     1       6.809  -5.549  21.524  0.00  0.00    +0.001 A 
ATOM      7  C   UNL     1       5.575  -6.081  21.872  0.00  0.00    +0.002 A 
ATOM      8  C   UNL     1       7.911  -4.399  24.932  0.00  0.00    +0.135 A 
ATOM      9  C   UNL     1       5.167  -6.066  23.208  0.00  0.00    +0.028 A 
ATOM     10  N   UNL     1       7.470  -4.461  26.199  0.00  0.00    -0.210 NA
ENDROOT
BRANCH   1  14
ATOM     11  C   UNL     1       3.565  -3.446  30.127  0.00  0.00    +0.065 C 
ATOM     12  C   UNL     1       4.591  -4.425  29.643  0.00  0.00    +0.039 A 
ATOM     13  N   UNL     1       4.987  -4.307  28.352  0.00  0.00    -0.249 NA
ATOM     14  C   UNL     1       5.887  -5.206  27.859  0.00  0.00    +0.108 A 
ATOM     15  C   UNL     1       6.391  -6.234  28.662  0.00  0.00    +0.031 A 
ATOM     16  C   UNL     1       5.977  -6.344  29.985  0.00  0.00    +0.004 A 
ATOM     17  C   UNL     1       5.062  -5.428  30.484  0.00  0.00    +0.023 A 
ENDBRANCH   1  14
BRANCH   8  18
ATOM     18  N   UNL     1       9.143  -3.734  24.693  0.00  0.00    -0.299 N 
ATOM     19  H   UNL     1       9.856  -4.105  25.312  0.00  0.00    +0.154 HD
BRANCH  18  20
ATOM     20  C   UNL     1       9.304  -2.354  24.416  0.00  0.00    +0.033 A 
ATOM     21  C   UNL     1       9.496  -1.923  23.090  0.00  0.00    +0.034 A 
ATOM     22  C   UNL     1       9.583  -0.543  22.811  0.00  0.00    +0.021 A 
ATOM     23  C   UNL     1       9.451   0.371  23.848  0.00  0.00    +0.066 A 
ATOM     24  N   UNL     1       9.566   1.605  23.266  0.00  0.00    -0.277 N 
ATOM     25  H   UNL     1       9.511   2.510  23.719  0.00  0.00    +0.189 HD
ATOM     26  N   UNL     1       9.769   1.567  21.938  0.00  0.00    -0.181 NA
ATOM     27  C   UNL     1       9.239  -0.012  25.171  0.00  0.00    +0.029 A 
ATOM     28  C   UNL     1       9.777   0.259  21.664  0.00  0.00    +0.142 A 
ATOM     29  C   UNL     1       9.158  -1.387  25.425  0.00  0.00    +0.025 A 
ENDBRANCH  18  20
ENDBRANCH   8  18
TORSDOF 3
ENDMDL
MODEL 3
REMARK VINA RESULT:      -7.2      1.957      7.346
REMARK  Name = 
REMARK  4 active torsions:
REMARK  status: ('A' for Active; 'I' for Inactive)
REMARK    1  A    between atoms: C_1  and  C_2
REMARK    2  A    between atoms: C_6  and  C_8
REMARK    3  A    between atoms: C_10  and  N_11
REMARK    4  A    between atoms: N_11  and  C_12
REMARK                            x       y       z     vdW  Elec       q    Type
REMARK                         _______ _______ _______ _____ _____    ______ ____
ROOT
ATOM      1  C   UNL     1       7.592  -1.745  23.195  0.00  0.00    +0.181 A 
ATOM      2  N   UNL     1       7.696  -2.726  22.283  0.00  0.00    -0.226 NA
ATOM      3  C   UNL     1       6.944  -3.816  22.455  0.00  0.00    +0.077 A 
ATOM      4  C   UNL     1       6.060  -3.972  23.531  0.00  0.00    +0.040 A 
ATOM      5  C   UNL     1       5.269  -5.147  23.620  0.00  0.00    +0.013 A 
ATOM      6  C   UNL     1       5.367  -6.146  22.653  0.00  0.00    +0.001 A 
ATOM      7  C   UNL     1       6.267  -5.996  21.606  0.00  0.00    +0.002 A 
ATOM      8  C   UNL     1       6.068  -2.924  24.465  0.00  0.00    +0.135 A 
ATOM      9  C   UNL     1       7.044  -4.839  21.522  0.00  0.00    +0.028 A 
ATOM     10  N   UNL     1       6.816  -1.822  24.291  0.00  0.00    -0.210 NA
ENDROOT
BRANCH   1  14
ATOM     11  C   UNL     1       8.730   2.699  24.838  0.00  0.00    +0.065 C 
ATOM     12  C   UNL     1       8.877   1.668  23.761  0.00  0.00    +0.039 A 
ATOM     13  N   UNL     1       8.194   0.509  23.926  0.00  0.00    -0.249 NA
ATOM     14  C   UNL     1       8.334  -0.473  22.990  0.00  0.00    +0.108 A 
ATOM     15  C   UNL     1       9.168  -0.297  21.882  0.00  0.00    +0.031 A 
ATOM     16  C   UNL     1       9.864   0.897  21.724  0.00  0.00    +0.004 A 
ATOM     17  C   UNL     1       9.720   1.895  22.677  0.00  0.00    +0.023 A 
ENDBRANCH   1  14
BRANCH   8  18
ATOM     18  N   UNL     1       5.265  -3.000  25.634  0.00  0.00    -0.299 N 
ATOM     19  H   UNL     1       5.102  -2.067  25.997  0.00  0.00    +0.154 HD
BRANCH  18  20
ATOM     20  C   UNL     1       5.362  -3.987  26.647  0.00  0.00    +0.033 A 
ATOM     21  C   UNL     1       4.192  -4.527  27.213  0.00  0.00    +0.034 A 
ATOM     22  C   UNL     1       4.293  -5.560  28.168  0.00  0.00    +0.021 A 
ATOM     23  C   UNL     1       5.547  -6.046  28.516  0.00  0.00    +0.066 A 
ATOM     24  N   UNL     1       5.315  -7.033  29.437  0.00  0.00    -0.277 N 
ATOM     25  H   UNL     1       5.999  -7.616  29.903  0.00  0.00    +0.189 HD
ATOM     26  N   UNL     1       4.015  -7.222  29.720  0.00  0.00    -0.181 NA
ATOM     27  C   UNL     1       6.728  -5.555  27.963  0.00  0.00    +0.029 A 
ATOM     28  C   UNL     1       3.395  -6.326  28.945  0.00  0.00    +0.142 A 
ATOM     29  C   UNL     1       6.604  -4.528  27.019  0.00  0.00    +0.025 A 
ENDBRANCH  18  20
ENDBRANCH   8  18
TORSDOF 3
ENDMDL
MODEL 4
REMARK VINA RESULT:      -7.2      1.759      6.831
REMARK  Name = 
REMARK  4 active torsions:
REMARK  status: ('A' for Active; 'I' for Inactive)
REMARK    1  A    between atoms: C_1  and  C_2
REMARK    2  A    between atoms: C_6  and  C_8
REMARK    3  A    between atoms: C_10  and  N_11
REMARK    4  A    between atoms: N_11  and  C_12
REMARK                            x       y       z     vdW  Elec       q    Type
REMARK                         _______ _______ _______ _____ _____    ______ ____
ROOT
ATOM      1  C   UNL     1       8.227  -1.769  23.138  0.00  0.00    +0.181 A 
ATOM      2  N   UNL     1       7.648  -2.374  22.087  0.00  0.00    -0.226 NA
ATOM      3  C   UNL     1       7.197  -3.619  22.259  0.00  0.00    +0.077 A 
ATOM      4  C   UNL     1       7.298  -4.307  23.476  0.00  0.00    +0.040 A 
ATOM      5  C   UNL     1       6.760  -5.616  23.585  0.00  0.00    +0.013 A 
ATOM      6  C   UNL     1       6.138  -6.223  22.495  0.00  0.00    +0.001 A 
ATOM      7  C   UNL     1       6.068  -5.545  21.285  0.00  0.00    +0.002 A 
ATOM      8  C   UNL     1       7.974  -3.618  24.495  0.00  0.00    +0.135 A 
ATOM      9  C   UNL     1       6.599  -4.258  21.181  0.00  0.00    +0.028 A 
ATOM     10  N   UNL     1       8.422  -2.363  24.328  0.00  0.00    -0.210 NA
ENDROOT
BRANCH   1  14
ATOM     11  C   UNL     1       8.316   2.701  25.075  0.00  0.00    +0.065 C 
ATOM     12  C   UNL     1       8.691   1.805  23.934  0.00  0.00    +0.039 A 
ATOM     13  N   UNL     1       8.295   0.511  24.018  0.00  0.00    -0.249 NA
ATOM     14  C   UNL     1       8.652  -0.349  23.022  0.00  0.00    +0.108 A 
ATOM     15  C   UNL     1       9.416   0.087  21.935  0.00  0.00    +0.031 A 
ATOM     16  C   UNL     1       9.816   1.417  21.860  0.00  0.00    +0.004 A 
ATOM     17  C   UNL     1       9.450   2.290  22.875  0.00  0.00    +0.023 A 
ENDBRANCH   1  14
BRANCH   8  18
ATOM     18  N   UNL     1       8.200  -4.240  25.751  0.00  0.00    -0.299 N 
ATOM     19  H   UNL     1       8.841  -5.018  25.637  0.00  0.00    +0.154 HD
BRANCH  18  20
ATOM     20  C   UNL     1       7.228  -4.457  26.759  0.00  0.00    +0.033 A 
ATOM     21  C   UNL     1       6.203  -3.513  26.960  0.00  0.00    +0.034 A 
ATOM     22  C   UNL     1       5.197  -3.770  27.914  0.00  0.00    +0.021 A 
ATOM     23  C   UNL     1       5.220  -4.963  28.624  0.00  0.00    +0.066 A 
ATOM     24  N   UNL     1       4.125  -4.921  29.447  0.00  0.00    -0.277 N 
ATOM     25  H   UNL     1       3.818  -5.630  30.102  0.00  0.00    +0.189 HD
ATOM     26  N   UNL     1       3.400  -3.796  29.335  0.00  0.00    -0.181 NA
ATOM     27  C   UNL     1       6.203  -5.934  28.440  0.00  0.00    +0.029 A 
ATOM     28  C   UNL     1       4.053  -3.098  28.400  0.00  0.00    +0.142 A 
ATOM     29  C   UNL     1       7.193  -5.657  27.489  0.00  0.00    +0.025 A 
ENDBRANCH  18  20
ENDBRANCH   8  18
TORSDOF 3
ENDMDL
MODEL 5
REMARK VINA RESULT:      -7.1      3.135      6.274
REMARK  Name = 
REMARK  4 active torsions:
REMARK  status: ('A' for Active; 'I' for Inactive)
REMARK    1  A    between atoms: C_1  and  C_2
REMARK    2  A    between atoms: C_6  and  C_8
REMARK    3  A    between atoms: C_10  and  N_11
REMARK    4  A    between atoms: N_11  and  C_12
REMARK                            x       y       z     vdW  Elec       q    Type
REMARK                         _______ _______ _______ _____ _____    ______ ____
ROOT
ATOM      1  C   UNL     1       5.877   1.341  24.612  0.00  0.00    +0.181 A 
ATOM      2  N   UNL     1       6.894   2.049  24.093  0.00  0.00    -0.226 NA
ATOM      3  C   UNL     1       7.778   1.400  23.332  0.00  0.00    +0.077 A 
ATOM      4  C   UNL     1       7.686   0.030  23.053  0.00  0.00    +0.040 A 
ATOM      5  C   UNL     1       8.648  -0.577  22.204  0.00  0.00    +0.013 A 
ATOM      6  C   UNL     1       9.683   0.175  21.650  0.00  0.00    +0.001 A 
ATOM      7  C   UNL     1       9.784   1.525  21.955  0.00  0.00    +0.002 A 
ATOM      8  C   UNL     1       6.628  -0.637  23.691  0.00  0.00    +0.135 A 
ATOM      9  C   UNL     1       8.836   2.119  22.791  0.00  0.00    +0.028 A 
ATOM     10  N   UNL     1       5.732   0.014  24.450  0.00  0.00    -0.210 NA
ENDROOT
BRANCH   1  14
ATOM     11  C   UNL     1       1.867   1.031  27.362  0.00  0.00    +0.065 C 
ATOM     12  C   UNL     1       2.881   1.907  26.691  0.00  0.00    +0.039 A 
ATOM     13  N   UNL     1       3.847   1.283  25.972  0.00  0.00    -0.249 NA
ATOM     14  C   UNL     1       4.815   2.040  25.381  0.00  0.00    +0.108 A 
ATOM     15  C   UNL     1       4.821   3.433  25.514  0.00  0.00    +0.031 A 
ATOM     16  C   UNL     1       3.825   4.060  26.255  0.00  0.00    +0.004 A 
ATOM     17  C   UNL     1       2.840   3.287  26.854  0.00  0.00    +0.023 A 
ENDBRANCH   1  14
BRANCH   8  18
ATOM     18  N   UNL     1       6.472  -2.041  23.541  0.00  0.00    -0.299 N 
ATOM     19  H   UNL     1       5.544  -2.245  23.186  0.00  0.00    +0.154 HD
BRANCH  18  20
ATOM     20  C   UNL     1       6.965  -3.032  24.425  0.00  0.00    +0.033 A 
ATOM     21  C   UNL     1       6.270  -3.319  25.615  0.00  0.00    +0.034 A 
ATOM     22  C   UNL     1       6.725  -4.356  26.455  0.00  0.00    +0.021 A 
ATOM     23  C   UNL     1       7.840  -5.095  26.082  0.00  0.00    +0.066 A 
ATOM     24  N   UNL     1       8.019  -6.017  27.079  0.00  0.00    -0.277 N 
ATOM     25  H   UNL     1       8.733  -6.733  27.137  0.00  0.00    +0.189 HD
ATOM     26  N   UNL     1       7.116  -5.932  28.071  0.00  0.00    -0.181 NA
ATOM     27  C   UNL     1       8.544  -4.858  24.903  0.00  0.00    +0.029 A 
ATOM     28  C   UNL     1       6.329  -4.922  27.688  0.00  0.00    +0.142 A 
ATOM     29  C   UNL     1       8.076  -3.823  24.085  0.00  0.00    +0.025 A 
ENDBRANCH  18  20
ENDBRANCH   8  18
TORSDOF 3
ENDMDL
MODEL 6
REMARK VINA RESULT:      -7.0      3.458      7.648
REMARK  Name = 
REMARK  4 active torsions:
REMARK  status: ('A' for Active; 'I' for Inactive)
REMARK    1  A    between atoms: C_1  and  C_2
REMARK    2  A    between atoms: C_6  and  C_8
REMARK    3  A    between atoms: C_10  and  N_11
REMARK    4  A    between atoms: N_11  and  C_12
REMARK                            x       y       z     vdW  Elec       q    Type
REMARK                         _______ _______ _______ _____ _____    ______ ____
ROOT
ATOM      1  C   UNL     1       7.635   3.588  23.728  0.00  0.00    +0.181 A 
ATOM      2  N   UNL     1       8.208   4.768  24.020  0.00  0.00    -0.226 NA
ATOM      3  C   UNL     1       9.535   4.858  23.909  0.00  0.00    +0.077 A 
ATOM      4  C   UNL     1      10.342   3.788  23.502  0.00  0.00    +0.040 A 
ATOM      5  C   UNL     1      11.743   3.978  23.375  0.00  0.00    +0.013 A 
ATOM      6  C   UNL     1      12.321   5.216  23.654  0.00  0.00    +0.001 A 
ATOM      7  C   UNL     1      11.518   6.262  24.085  0.00  0.00    +0.002 A 
ATOM      8  C   UNL     1       9.663   2.580  23.282  0.00  0.00    +0.135 A 
ATOM      9  C   UNL     1      10.140   6.071  24.210  0.00  0.00    +0.028 A 
ATOM     10  N   UNL     1       8.327   2.487  23.384  0.00  0.00    -0.210 NA
ENDROOT
BRANCH   1  14
ATOM     11  C   UNL     1       3.592   2.411  26.179  0.00  0.00    +0.065 C 
ATOM     12  C   UNL     1       4.205   2.895  24.901  0.00  0.00    +0.039 A 
ATOM     13  N   UNL     1       5.557   2.992  24.870  0.00  0.00    -0.249 NA
ATOM     14  C   UNL     1       6.153   3.469  23.740  0.00  0.00    +0.108 A 
ATOM     15  C   UNL     1       5.391   3.858  22.633  0.00  0.00    +0.031 A 
ATOM     16  C   UNL     1       4.005   3.753  22.678  0.00  0.00    +0.004 A 
ATOM     17  C   UNL     1       3.401   3.267  23.828  0.00  0.00    +0.023 A 
ENDBRANCH   1  14
BRANCH   8  18
ATOM     18  N   UNL     1      10.382   1.406  22.933  0.00  0.00    -0.299 N 
ATOM     19  H   UNL     1      10.949   1.586  22.111  0.00  0.00    +0.154 HD
BRANCH  18  20
ATOM     20  C   UNL     1       9.890   0.078  22.996  0.00  0.00    +0.033 A 
ATOM     21  C   UNL     1       9.704  -0.540  24.247  0.00  0.00    +0.034 A 
ATOM     22  C   UNL     1       9.146  -1.834  24.307  0.00  0.00    +0.021 A 
ATOM     23  C   UNL     1       8.767  -2.468  23.131  0.00  0.00    +0.066 A 
ATOM     24  N   UNL     1       8.258  -3.681  23.515  0.00  0.00    -0.277 N 
ATOM     25  H   UNL     1       7.875  -4.406  22.921  0.00  0.00    +0.189 HD
ATOM     26  N   UNL     1       8.284  -3.888  24.842  0.00  0.00    -0.181 NA
ATOM     27  C   UNL     1       8.914  -1.882  21.875  0.00  0.00    +0.029 A 
ATOM     28  C   UNL     1       8.823  -2.763  25.322  0.00  0.00    +0.142 A 
ATOM     29  C   UNL     1       9.472  -0.598  21.839  0.00  0.00    +0.025 A 
ENDBRANCH  18  20
ENDBRANCH   8  18
TORSDOF 3
ENDMDL
MODEL 7
REMARK VINA RESULT:      -7.0      2.371      6.102
REMARK  Name = 
REMARK  4 active torsions:
REMARK  status: ('A' for Active; 'I' for Inactive)
REMARK    1  A    between atoms: C_1  and  C_2
REMARK    2  A    between atoms: C_6  and  C_8
REMARK    3  A    between atoms: C_10  and  N_11
REMARK    4  A    between atoms: N_11  and  C_12
REMARK                            x       y       z     vdW  Elec       q    Type
REMARK                         _______ _______ _______ _____ _____    ______ ____
ROOT
ATOM      1  C   UNL     1       7.453  -0.053  26.018  0.00  0.00    +0.181 A 
ATOM      2  N   UNL     1       7.756   0.917  25.139  0.00  0.00    -0.226 NA
ATOM      3  C   UNL     1       8.307   0.553  23.979  0.00  0.00    +0.077 A 
ATOM      4  C   UNL     1       8.575  -0.781  23.646  0.00  0.00    +0.040 A 
ATOM      5  C   UNL     1       9.130  -1.086  22.375  0.00  0.00    +0.013 A 
ATOM      6  C   UNL     1       9.414  -0.073  21.461  0.00  0.00    +0.001 A 
ATOM      7  C   UNL     1       9.174   1.249  21.811  0.00  0.00    +0.002 A 
ATOM      8  C   UNL     1       8.284  -1.716  24.652  0.00  0.00    +0.135 A 
ATOM      9  C   UNL     1       8.628   1.545  23.062  0.00  0.00    +0.028 A 
ATOM     10  N   UNL     1       7.722  -1.355  25.816  0.00  0.00    -0.210 NA
ENDROOT
BRANCH   1  14
ATOM     11  C   UNL     1       7.580   2.132  30.372  0.00  0.00    +0.065 C 
ATOM     12  C   UNL     1       6.798   1.329  29.377  0.00  0.00    +0.039 A 
ATOM     13  N   UNL     1       7.435   0.989  28.230  0.00  0.00    -0.249 NA
ATOM     14  C   UNL     1       6.747   0.296  27.279  0.00  0.00    +0.108 A 
ATOM     15  C   UNL     1       5.407  -0.057  27.474  0.00  0.00    +0.031 A 
ATOM     16  C   UNL     1       4.765   0.297  28.656  0.00  0.00    +0.004 A 
ATOM     17  C   UNL     1       5.468   1.002  29.622  0.00  0.00    +0.023 A 
ENDBRANCH   1  14
BRANCH   8  18
ATOM     18  N   UNL     1       8.577  -3.092  24.457  0.00  0.00    -0.299 N 
ATOM     19  H   UNL     1       9.475  -3.188  23.996  0.00  0.00    +0.154 HD
BRANCH  18  20
ATOM     20  C   UNL     1       7.647  -4.097  24.089  0.00  0.00    +0.033 A 
ATOM     21  C   UNL     1       6.891  -4.749  25.081  0.00  0.00    +0.034 A 
ATOM     22  C   UNL     1       5.916  -5.695  24.703  0.00  0.00    +0.021 A 
ATOM     23  C   UNL     1       5.701  -5.951  23.355  0.00  0.00    +0.066 A 
ATOM     24  N   UNL     1       4.703  -6.888  23.314  0.00  0.00    -0.277 N 
ATOM     25  H   UNL     1       4.279  -7.304  22.493  0.00  0.00    +0.189 HD
ATOM     26  N   UNL     1       4.259  -7.267  24.524  0.00  0.00    -0.181 NA
ATOM     27  C   UNL     1       6.413  -5.312  22.341  0.00  0.00    +0.029 A 
ATOM     28  C   UNL     1       4.997  -6.538  25.367  0.00  0.00    +0.142 A 
ATOM     29  C   UNL     1       7.377  -4.378  22.739  0.00  0.00    +0.025 A 
ENDBRANCH  18  20
ENDBRANCH   8  18
TORSDOF 3
ENDMDL
MODEL 8
REMARK VINA RESULT:      -6.7      2.433      6.183
REMARK  Name = 
REMARK  4 active torsions:
REMARK  status: ('A' for Active; 'I' for Inactive)
REMARK    1  A    between atoms: C_1  and  C_2
REMARK    2  A    between atoms: C_6  and  C_8
REMARK    3  A    between atoms: C_10  and  N_11
REMARK    4  A    between atoms: N_11  and  C_12
REMARK                            x       y       z     vdW  Elec       q    Type
REMARK                         _______ _______ _______ _____ _____    ______ ____
ROOT
ATOM      1  C   UNL     1       6.080   0.196  24.942  0.00  0.00    +0.181 A 
ATOM      2  N   UNL     1       6.694   1.021  24.077  0.00  0.00    -0.226 NA
ATOM      3  C   UNL     1       7.606   0.494  23.257  0.00  0.00    +0.077 A 
ATOM      4  C   UNL     1       7.940  -0.866  23.259  0.00  0.00    +0.040 A 
ATOM      5  C   UNL     1       8.896  -1.353  22.329  0.00  0.00    +0.013 A 
ATOM      6  C   UNL     1       9.505  -0.491  21.419  0.00  0.00    +0.001 A 
ATOM      7  C   UNL     1       9.190   0.861  21.442  0.00  0.00    +0.002 A 
ATOM      8  C   UNL     1       7.295  -1.636  24.240  0.00  0.00    +0.135 A 
ATOM      9  C   UNL     1       8.250   1.336  22.360  0.00  0.00    +0.028 A 
ATOM     10  N   UNL     1       6.370  -1.111  25.061  0.00  0.00    -0.210 NA
ENDROOT
BRANCH   1  14
ATOM     11  C   UNL     1       2.371  -0.745  27.958  0.00  0.00    +0.065 C 
ATOM     12  C   UNL     1       3.195   0.281  27.242  0.00  0.00    +0.039 A 
ATOM     13  N   UNL     1       4.185  -0.182  26.440  0.00  0.00    -0.249 NA
ATOM     14  C   UNL     1       4.987   0.719  25.803  0.00  0.00    +0.108 A 
ATOM     15  C   UNL     1       4.801   2.095  25.974  0.00  0.00    +0.031 A 
ATOM     16  C   UNL     1       3.782   2.557  26.800  0.00  0.00    +0.004 A 
ATOM     17  C   UNL     1       2.967   1.638  27.446  0.00  0.00    +0.023 A 
ENDBRANCH   1  14
BRANCH   8  18
ATOM     18  N   UNL     1       7.603  -3.014  24.386  0.00  0.00    -0.299 N 
ATOM     19  H   UNL     1       8.564  -3.180  24.106  0.00  0.00    +0.154 HD
BRANCH  18  20
ATOM     20  C   UNL     1       6.737  -4.097  24.090  0.00  0.00    +0.033 A 
ATOM     21  C   UNL     1       6.212  -4.879  25.136  0.00  0.00    +0.034 A 
ATOM     22  C   UNL     1       5.294  -5.909  24.841  0.00  0.00    +0.021 A 
ATOM     23  C   UNL     1       4.904  -6.118  23.525  0.00  0.00    +0.066 A 
ATOM     24  N   UNL     1       4.014  -7.158  23.567  0.00  0.00    -0.277 N 
ATOM     25  H   UNL     1       3.515  -7.577  22.790  0.00  0.00    +0.189 HD
ATOM     26  N   UNL     1       3.800  -7.646  24.801  0.00  0.00    -0.181 NA
ATOM     27  C   UNL     1       5.383  -5.352  22.463  0.00  0.00    +0.029 A 
ATOM     28  C   UNL     1       4.579  -6.883  25.574  0.00  0.00    +0.142 A 
ATOM     29  C   UNL     1       6.295  -4.337  22.779  0.00  0.00    +0.025 A 
ENDBRANCH  18  20
ENDBRANCH   8  18
TORSDOF 3
ENDMDL
MODEL 9
REMARK VINA RESULT:      -6.7      4.888      8.699
REMARK  Name = 
REMARK  4 active torsions:
REMARK  status: ('A' for Active; 'I' for Inactive)
REMARK    1  A    between atoms: C_1  and  C_2
REMARK    2  A    between atoms: C_6  and  C_8
REMARK    3  A    between atoms: C_10  and  N_11
REMARK    4  A    between atoms: N_11  and  C_12
REMARK                            x       y       z     vdW  Elec       q    Type
REMARK                         _______ _______ _______ _____ _____    ______ ____
ROOT
ATOM      1  C   UNL     1       7.375   5.293  24.638  0.00  0.00    +0.181 A 
ATOM      2  N   UNL     1       8.170   6.182  25.258  0.00  0.00    -0.226 NA
ATOM      3  C   UNL     1       9.476   6.144  24.984  0.00  0.00    +0.077 A 
ATOM      4  C   UNL     1      10.042   5.230  24.087  0.00  0.00    +0.040 A 
ATOM      5  C   UNL     1      11.437   5.280  23.825  0.00  0.00    +0.013 A 
ATOM      6  C   UNL     1      12.245   6.225  24.454  0.00  0.00    +0.001 A 
ATOM      7  C   UNL     1      11.681   7.108  25.364  0.00  0.00    +0.002 A 
ATOM      8  C   UNL     1       9.145   4.300  23.538  0.00  0.00    +0.135 A 
ATOM      9  C   UNL     1      10.309   7.055  25.620  0.00  0.00    +0.028 A 
ATOM     10  N   UNL     1       7.829   4.340  23.804  0.00  0.00    -0.210 NA
ENDROOT
BRANCH   1  14
ATOM     11  C   UNL     1       2.938   5.561  22.643  0.00  0.00    +0.065 C 
ATOM     12  C   UNL     1       3.768   5.506  23.889  0.00  0.00    +0.039 A 
ATOM     13  N   UNL     1       5.113   5.458  23.726  0.00  0.00    -0.249 NA
ATOM     14  C   UNL     1       5.904   5.364  24.834  0.00  0.00    +0.108 A 
ATOM     15  C   UNL     1       5.345   5.312  26.115  0.00  0.00    +0.031 A 
ATOM     16  C   UNL     1       3.963   5.363  26.268  0.00  0.00    +0.004 A 
ATOM     17  C   UNL     1       3.161   5.459  25.140  0.00  0.00    +0.023 A 
ENDBRANCH   1  14
BRANCH   8  18
ATOM     18  N   UNL     1       9.613   3.280  22.668  0.00  0.00    -0.299 N 
ATOM     19  H   UNL     1       9.263   3.444  21.731  0.00  0.00    +0.154 HD
BRANCH  18  20
ATOM     20  C   UNL     1       9.736   1.904  22.989  0.00  0.00    +0.033 A 
ATOM     21  C   UNL     1       9.195   0.933  22.126  0.00  0.00    +0.034 A 
ATOM     22  C   UNL     1       9.383  -0.435  22.412  0.00  0.00    +0.021 A 
ATOM     23  C   UNL     1      10.122  -0.802  23.530  0.00  0.00    +0.066 A 
ATOM     24  N   UNL     1      10.136  -2.171  23.527  0.00  0.00    -0.277 N 
ATOM     25  H   UNL     1      10.592  -2.786  24.191  0.00  0.00    +0.189 HD
ATOM     26  N   UNL     1       9.460  -2.723  22.505  0.00  0.00    -0.181 NA
ATOM     27  C   UNL     1      10.693   0.128  24.397  0.00  0.00    +0.029 A 
ATOM     28  C   UNL     1       9.005  -1.664  21.827  0.00  0.00    +0.142 A 
ATOM     29  C   UNL     1      10.491   1.480  24.095  0.00  0.00    +0.025 A 
ENDBRANCH  18  20
ENDBRANCH   8  18
TORSDOF 3
ENDMDL
