MODEL 1
REMARK VINA RESULT:      -5.1      0.000      0.000
REMARK  Name = 
REMARK  1 active torsions:
REMARK  status: ('A' for Active; 'I' for Inactive)
REMARK    1  A    between atoms: C_1  and  C_2
REMARK                            x       y       z     vdW  Elec       q    Type
REMARK                         _______ _______ _______ _____ _____    ______ ____
ROOT
ATOM      1  C   UNL     1       5.689  -4.061  24.218  0.00  0.00    +0.066 C 
ATOM      2  C   UNL     1       7.185  -3.945  24.282  0.00  0.00    +0.047 A 
ATOM      3  C   UNL     1       7.868  -2.871  23.714  0.00  0.00    +0.005 A 
ATOM      4  C   UNL     1       7.131  -1.800  22.962  0.00  0.00    +0.107 C 
ATOM      5  S   UNL     1       8.050  -0.275  22.643  0.00  0.00    -0.156 S 
ATOM      6  C   UNL     1       9.610  -1.045  22.151  0.00  0.00    +0.075 C 
ATOM      7  C   UNL     1      10.169  -1.855  23.308  0.00  0.00    +0.066 C 
ATOM      8  C   UNL     1       9.252  -2.931  23.828  0.00  0.00    +0.051 A 
ATOM      9  N   UNL     1       9.888  -3.940  24.468  0.00  0.00    -0.219 NA
ATOM     10  C   UNL     1       9.140  -4.921  24.969  0.00  0.00    +0.213 A 
ATOM     11  N   UNL     1       9.786  -5.946  25.628  0.00  0.00    -0.327 N 
ATOM     12  H   UNL     1      10.675  -5.613  25.973  0.00  0.00    +0.145 HD
ATOM     13  H   UNL     1       9.153  -6.361  26.298  0.00  0.00    +0.145 HD
ATOM     14  N   UNL     1       7.811  -4.959  24.917  0.00  0.00    -0.220 NA
ENDROOT
TORSDOF 0
ENDMDL
MODEL 2
REMARK VINA RESULT:      -5.1      3.011      3.572
REMARK  Name = 
REMARK  1 active torsions:
REMARK  status: ('A' for Active; 'I' for Inactive)
REMARK    1  A    between atoms: C_1  and  C_2
REMARK                            x       y       z     vdW  Elec       q    Type
REMARK                         _______ _______ _______ _____ _____    ______ ____
ROOT
ATOM      1  C   UNL     1       6.151  -5.193  27.529  0.00  0.00    +0.066 C 
ATOM      2  C   UNL     1       6.992  -5.206  26.284  0.00  0.00    +0.047 A 
ATOM      3  C   UNL     1       6.429  -5.129  25.011  0.00  0.00    +0.005 A 
ATOM      4  C   UNL     1       4.939  -5.082  24.829  0.00  0.00    +0.107 C 
ATOM      5  S   UNL     1       4.353  -4.568  23.197  0.00  0.00    -0.156 S 
ATOM      6  C   UNL     1       5.518  -5.542  22.216  0.00  0.00    +0.075 C 
ATOM      7  C   UNL     1       6.938  -5.094  22.515  0.00  0.00    +0.066 C 
ATOM      8  C   UNL     1       7.340  -5.190  23.963  0.00  0.00    +0.051 A 
ATOM      9  N   UNL     1       8.676  -5.286  24.164  0.00  0.00    -0.219 NA
ATOM     10  C   UNL     1       9.107  -5.359  25.421  0.00  0.00    +0.213 A 
ATOM     11  N   UNL     1      10.468  -5.449  25.626  0.00  0.00    -0.327 N 
ATOM     12  H   UNL     1      10.952  -5.056  24.832  0.00  0.00    +0.145 HD
ATOM     13  H   UNL     1      10.692  -5.076  26.538  0.00  0.00    +0.145 HD
ATOM     14  N   UNL     1       8.322  -5.307  26.493  0.00  0.00    -0.220 NA
ENDROOT
TORSDOF 0
ENDMDL
MODEL 3
REMARK VINA RESULT:      -5.0      1.468      1.495
REMARK  Name = 
REMARK  1 active torsions:
REMARK  status: ('A' for Active; 'I' for Inactive)
REMARK    1  A    between atoms: C_1  and  C_2
REMARK                            x       y       z     vdW  Elec       q    Type
REMARK                         _______ _______ _______ _____ _____    ______ ____
ROOT
ATOM      1  C   UNL     1       6.853  -2.243  26.610  0.00  0.00    +0.066 C 
ATOM      2  C   UNL     1       7.986  -2.710  25.743  0.00  0.00    +0.047 A 
ATOM      3  C   UNL     1       8.502  -1.925  24.713  0.00  0.00    +0.005 A 
ATOM      4  C   UNL     1       7.903  -0.585  24.392  0.00  0.00    +0.107 C 
ATOM      5  S   UNL     1       8.899   0.501  23.343  0.00  0.00    -0.156 S 
ATOM      6  C   UNL     1       9.419  -0.750  22.145  0.00  0.00    +0.075 C 
ATOM      7  C   UNL     1      10.233  -1.823  22.847  0.00  0.00    +0.066 C 
ATOM      8  C   UNL     1       9.523  -2.516  23.980  0.00  0.00    +0.051 A 
ATOM      9  N   UNL     1      10.004  -3.751  24.264  0.00  0.00    -0.219 NA
ATOM     10  C   UNL     1       9.435  -4.418  25.264  0.00  0.00    +0.213 A 
ATOM     11  N   UNL     1       9.928  -5.672  25.559  0.00  0.00    -0.327 N 
ATOM     12  H   UNL     1      10.884  -5.738  25.241  0.00  0.00    +0.145 HD
ATOM     13  H   UNL     1       9.746  -5.881  26.531  0.00  0.00    +0.145 HD
ATOM     14  N   UNL     1       8.455  -3.944  26.029  0.00  0.00    -0.220 NA
ENDROOT
TORSDOF 0
ENDMDL
MODEL 4
REMARK VINA RESULT:      -4.9      1.425      1.509
REMARK  Name = 
REMARK  1 active torsions:
REMARK  status: ('A' for Active; 'I' for Inactive)
REMARK    1  A    between atoms: C_1  and  C_2
REMARK                            x       y       z     vdW  Elec       q    Type
REMARK                         _______ _______ _______ _____ _____    ______ ____
ROOT
ATOM      1  C   UNL     1       7.184  -5.036  22.189  0.00  0.00    +0.066 C 
ATOM      2  C   UNL     1       7.749  -4.451  23.452  0.00  0.00    +0.047 A 
ATOM      3  C   UNL     1       8.246  -3.150  23.507  0.00  0.00    +0.005 A 
ATOM      4  C   UNL     1       8.284  -2.288  22.278  0.00  0.00    +0.107 C 
ATOM      5  S   UNL     1       8.548  -0.520  22.554  0.00  0.00    -0.156 S 
ATOM      6  C   UNL     1       9.858  -0.674  23.792  0.00  0.00    +0.075 C 
ATOM      7  C   UNL     1       9.324  -1.402  25.014  0.00  0.00    +0.066 C 
ATOM      8  C   UNL     1       8.767  -2.774  24.739  0.00  0.00    +0.051 A 
ATOM      9  N   UNL     1       8.764  -3.597  25.814  0.00  0.00    -0.219 NA
ATOM     10  C   UNL     1       8.272  -4.823  25.651  0.00  0.00    +0.213 A 
ATOM     11  N   UNL     1       8.262  -5.660  26.747  0.00  0.00    -0.327 N 
ATOM     12  H   UNL     1       8.263  -5.105  27.591  0.00  0.00    +0.145 HD
ATOM     13  H   UNL     1       7.522  -6.340  26.639  0.00  0.00    +0.145 HD
ATOM     14  N   UNL     1       7.748  -5.281  24.518  0.00  0.00    -0.220 NA
ENDROOT
TORSDOF 0
ENDMDL
MODEL 5
REMARK VINA RESULT:      -4.7      2.638      4.105
REMARK  Name = 
REMARK  1 active torsions:
REMARK  status: ('A' for Active; 'I' for Inactive)
REMARK    1  A    between atoms: C_1  and  C_2
REMARK                            x       y       z     vdW  Elec       q    Type
REMARK                         _______ _______ _______ _____ _____    ______ ____
ROOT
ATOM      1  C   UNL     1       8.898  -4.654  26.443  0.00  0.00    +0.066 C 
ATOM      2  C   UNL     1       7.526  -5.103  26.027  0.00  0.00    +0.047 A 
ATOM      3  C   UNL     1       6.937  -4.676  24.837  0.00  0.00    +0.005 A 
ATOM      4  C   UNL     1       7.639  -3.700  23.937  0.00  0.00    +0.107 C 
ATOM      5  S   UNL     1       6.983  -3.551  22.259  0.00  0.00    -0.156 S 
ATOM      6  C   UNL     1       5.228  -3.528  22.699  0.00  0.00    +0.075 C 
ATOM      7  C   UNL     1       4.854  -4.834  23.379  0.00  0.00    +0.066 C 
ATOM      8  C   UNL     1       5.650  -5.152  24.617  0.00  0.00    +0.051 A 
ATOM      9  N   UNL     1       5.026  -5.992  25.478  0.00  0.00    -0.219 NA
ATOM     10  C   UNL     1       5.676  -6.331  26.588  0.00  0.00    +0.213 A 
ATOM     11  N   UNL     1       5.045  -7.191  27.462  0.00  0.00    -0.327 N 
ATOM     12  H   UNL     1       4.363  -7.738  26.957  0.00  0.00    +0.145 HD
ATOM     13  H   UNL     1       5.740  -7.693  27.996  0.00  0.00    +0.145 HD
ATOM     14  N   UNL     1       6.909  -5.934  26.894  0.00  0.00    -0.220 NA
ENDROOT
TORSDOF 0
ENDMDL
MODEL 6
REMARK VINA RESULT:      -4.7      6.777      8.467
REMARK  Name = 
REMARK  1 active torsions:
REMARK  status: ('A' for Active; 'I' for Inactive)
REMARK    1  A    between atoms: C_1  and  C_2
REMARK                            x       y       z     vdW  Elec       q    Type
REMARK                         _______ _______ _______ _____ _____    ______ ____
ROOT
ATOM      1  C   UNL     1       8.828   6.814  24.028  0.00  0.00    +0.066 C 
ATOM      2  C   UNL     1       9.820   5.710  23.794  0.00  0.00    +0.047 A 
ATOM      3  C   UNL     1       9.450   4.366  23.813  0.00  0.00    +0.005 A 
ATOM      4  C   UNL     1       8.037   3.961  24.123  0.00  0.00    +0.107 C 
ATOM      5  S   UNL     1       7.590   2.258  23.710  0.00  0.00    -0.156 S 
ATOM      6  C   UNL     1       9.090   1.467  24.338  0.00  0.00    +0.075 C 
ATOM      7  C   UNL     1      10.297   1.976  23.570  0.00  0.00    +0.066 C 
ATOM      8  C   UNL     1      10.492   3.469  23.615  0.00  0.00    +0.051 A 
ATOM      9  N   UNL     1      11.767   3.870  23.391  0.00  0.00    -0.219 NA
ATOM     10  C   UNL     1      12.012   5.177  23.401  0.00  0.00    +0.213 A 
ATOM     11  N   UNL     1      13.308   5.587  23.165  0.00  0.00    -0.327 N 
ATOM     12  H   UNL     1      13.793   4.874  22.639  0.00  0.00    +0.145 HD
ATOM     13  H   UNL     1      13.297   6.521  22.780  0.00  0.00    +0.145 HD
ATOM     14  N   UNL     1      11.089   6.118  23.577  0.00  0.00    -0.220 NA
ENDROOT
TORSDOF 0
ENDMDL
MODEL 7
REMARK VINA RESULT:      -4.7      2.268      3.035
REMARK  Name = 
REMARK  1 active torsions:
REMARK  status: ('A' for Active; 'I' for Inactive)
REMARK    1  A    between atoms: C_1  and  C_2
REMARK                            x       y       z     vdW  Elec       q    Type
REMARK                         _______ _______ _______ _____ _____    ______ ____
ROOT
ATOM      1  C   UNL     1       8.314  -2.167  26.359  0.00  0.00    +0.066 C 
ATOM      2  C   UNL     1       8.439  -2.111  24.863  0.00  0.00    +0.047 A 
ATOM      3  C   UNL     1       9.098  -1.068  24.215  0.00  0.00    +0.005 A 
ATOM      4  C   UNL     1       9.672   0.083  24.992  0.00  0.00    +0.107 C 
ATOM      5  S   UNL     1      10.844   1.135  24.105  0.00  0.00    -0.156 S 
ATOM      6  C   UNL     1       9.924   1.250  22.553  0.00  0.00    +0.075 C 
ATOM      7  C   UNL     1       9.776  -0.134  21.943  0.00  0.00    +0.066 C 
ATOM      8  C   UNL     1       9.093  -1.145  22.827  0.00  0.00    +0.051 A 
ATOM      9  N   UNL     1       8.519  -2.171  22.156  0.00  0.00    -0.219 NA
ATOM     10  C   UNL     1       7.910  -3.112  22.873  0.00  0.00    +0.213 A 
ATOM     11  N   UNL     1       7.331  -4.162  22.191  0.00  0.00    -0.327 N 
ATOM     12  H   UNL     1       7.784  -4.269  21.295  0.00  0.00    +0.145 HD
ATOM     13  H   UNL     1       7.297  -4.972  22.794  0.00  0.00    +0.145 HD
ATOM     14  N   UNL     1       7.858  -3.135  24.202  0.00  0.00    -0.220 NA
ENDROOT
TORSDOF 0
ENDMDL
MODEL 8
REMARK VINA RESULT:      -4.7      1.949      3.191
REMARK  Name = 
REMARK  1 active torsions:
REMARK  status: ('A' for Active; 'I' for Inactive)
REMARK    1  A    between atoms: C_1  and  C_2
REMARK                            x       y       z     vdW  Elec       q    Type
REMARK                         _______ _______ _______ _____ _____    ______ ____
ROOT
ATOM      1  C   UNL     1      10.121  -1.821  22.998  0.00  0.00    +0.066 C 
ATOM      2  C   UNL     1       9.442  -2.599  24.089  0.00  0.00    +0.047 A 
ATOM      3  C   UNL     1       8.353  -2.088  24.794  0.00  0.00    +0.005 A 
ATOM      4  C   UNL     1       7.841  -0.702  24.524  0.00  0.00    +0.107 C 
ATOM      5  S   UNL     1       6.203  -0.316  25.183  0.00  0.00    -0.156 S 
ATOM      6  C   UNL     1       6.425  -1.073  26.810  0.00  0.00    +0.075 C 
ATOM      7  C   UNL     1       6.675  -2.563  26.652  0.00  0.00    +0.066 C 
ATOM      8  C   UNL     1       7.863  -2.917  25.797  0.00  0.00    +0.051 A 
ATOM      9  N   UNL     1       8.384  -4.141  26.049  0.00  0.00    -0.219 NA
ATOM     10  C   UNL     1       9.428  -4.530  25.321  0.00  0.00    +0.213 A 
ATOM     11  N   UNL     1       9.954  -5.779  25.573  0.00  0.00    -0.327 N 
ATOM     12  H   UNL     1       9.243  -6.363  25.989  0.00  0.00    +0.145 HD
ATOM     13  H   UNL     1      10.408  -6.123  24.738  0.00  0.00    +0.145 HD
ATOM     14  N   UNL     1       9.971  -3.816  24.339  0.00  0.00    -0.220 NA
ENDROOT
TORSDOF 0
ENDMDL
MODEL 9
REMARK VINA RESULT:      -4.6      4.425      5.733
REMARK  Name = 
REMARK  1 active torsions:
REMARK  status: ('A' for Active; 'I' for Inactive)
REMARK    1  A    between atoms: C_1  and  C_2
REMARK                            x       y       z     vdW  Elec       q    Type
REMARK                         _______ _______ _______ _____ _____    ______ ____
ROOT
ATOM      1  C   UNL     1       7.730   1.996  25.750  0.00  0.00    +0.066 C 
ATOM      2  C   UNL     1       8.613   1.882  24.539  0.00  0.00    +0.047 A 
ATOM      3  C   UNL     1       8.604   0.752  23.722  0.00  0.00    +0.005 A 
ATOM      4  C   UNL     1       7.738  -0.430  24.051  0.00  0.00    +0.107 C 
ATOM      5  S   UNL     1       7.496  -1.633  22.723  0.00  0.00    -0.156 S 
ATOM      6  C   UNL     1       9.210  -1.691  22.149  0.00  0.00    +0.075 C 
ATOM      7  C   UNL     1       9.629  -0.319  21.650  0.00  0.00    +0.066 C 
ATOM      8  C   UNL     1       9.505   0.788  22.665  0.00  0.00    +0.051 A 
ATOM      9  N   UNL     1      10.310   1.851  22.428  0.00  0.00    -0.219 NA
ATOM     10  C   UNL     1      10.243   2.875  23.275  0.00  0.00    +0.213 A 
ATOM     11  N   UNL     1      11.057   3.961  23.030  0.00  0.00    -0.327 N 
ATOM     12  H   UNL     1      11.290   3.990  22.048  0.00  0.00    +0.145 HD
ATOM     13  H   UNL     1      10.638   4.788  23.432  0.00  0.00    +0.145 HD
ATOM     14  N   UNL     1       9.416   2.944  24.314  0.00  0.00    -0.220 NA
ENDROOT
TORSDOF 0
ENDMDL
