MODEL 1
REMARK VINA RESULT:      -6.5      0.000      0.000
REMARK  Name = 
REMARK  6 active torsions:
REMARK  status: ('A' for Active; 'I' for Inactive)
REMARK    1  A    between atoms: C_7  and  C_21
REMARK    2  A    between atoms: C_9  and  O_12
REMARK    3  A    between atoms: O_12  and  C_13
REMARK    4  A    between atoms: C_13  and  C_15
REMARK    5  A    between atoms: C_21  and  O_22
REMARK    6  A    between atoms: N_24  and  C_25
REMARK                            x       y       z     vdW  Elec       q    Type
REMARK                         _______ _______ _______ _____ _____    ______ ____
ROOT
ATOM      1  C   UNL     1       9.137   0.840  22.009  0.00  0.00    +0.060 C 
ATOM      2  N   UNL     1       8.169   1.398  22.941  0.00  0.00    -0.298 NA
ATOM      3  C   UNL     1       6.892   0.718  23.035  0.00  0.00    +0.105 C 
ATOM      4  C   UNL     1       8.926   1.561  24.186  0.00  0.00    +0.074 C 
ATOM      5  C   UNL     1       9.394   0.241  24.848  0.00  0.00    +0.155 C 
ATOM      6  C   UNL     1       9.586  -0.943  23.869  0.00  0.00    +0.193 C 
ATOM      7  C   UNL     1      10.145   2.324  23.634  0.00  0.00    +0.021 C 
ATOM      8  C   UNL     1       9.548  -0.595  22.364  0.00  0.00    +0.064 C 
ATOM      9  C   UNL     1      10.280   1.841  22.191  0.00  0.00    +0.020 C 
ENDROOT
BRANCH   5  10
ATOM     10  C   UNL     1       8.513  -0.058  26.051  0.00  0.00    +0.313 C 
ATOM     11  O   UNL     1       7.540   0.597  26.391  0.00  0.00    -0.251 OA
BRANCH  10  12
ATOM     12  O   UNL     1       8.909  -1.144  26.758  0.00  0.00    -0.480 OA
ATOM     13  H   UNL     1       9.674  -1.630  26.385  0.00  0.00    +0.295 HD
ENDBRANCH  10  12
ENDBRANCH   5  10
BRANCH   6  14
ATOM     14  O   UNL     1       8.568  -1.957  24.073  0.00  0.00    -0.457 OA
BRANCH  14  15
ATOM     15  C   UNL     1       8.916  -3.256  23.899  0.00  0.00    +0.339 C 
ATOM     16  O   UNL     1       9.887  -3.790  24.414  0.00  0.00    -0.245 OA
BRANCH  15  17
ATOM     17  C   UNL     1       7.851  -3.968  23.141  0.00  0.00    +0.059 A 
ATOM     18  C   UNL     1       7.781  -5.369  23.091  0.00  0.00    +0.015 A 
ATOM     19  C   UNL     1       6.837  -6.002  22.281  0.00  0.00    +0.001 A 
ATOM     20  C   UNL     1       5.949  -5.242  21.524  0.00  0.00    +0.000 A 
ATOM     21  C   UNL     1       6.001  -3.848  21.578  0.00  0.00    +0.001 A 
ATOM     22  C   UNL     1       6.949  -3.212  22.383  0.00  0.00    +0.015 A 
ENDBRANCH  15  17
ENDBRANCH  14  15
ENDBRANCH   6  14
TORSDOF 5
ENDMDL
MODEL 2
REMARK VINA RESULT:      -6.3      2.216      5.792
REMARK  Name = 
REMARK  6 active torsions:
REMARK  status: ('A' for Active; 'I' for Inactive)
REMARK    1  A    between atoms: C_7  and  C_21
REMARK    2  A    between atoms: C_9  and  O_12
REMARK    3  A    between atoms: O_12  and  C_13
REMARK    4  A    between atoms: C_13  and  C_15
REMARK    5  A    between atoms: C_21  and  O_22
REMARK    6  A    between atoms: N_24  and  C_25
REMARK                            x       y       z     vdW  Elec       q    Type
REMARK                         _______ _______ _______ _____ _____    ______ ____
ROOT
ATOM      1  C   UNL     1       5.500  -3.232  23.657  0.00  0.00    +0.060 C 
ATOM      2  N   UNL     1       6.310  -4.340  23.175  0.00  0.00    -0.298 NA
ATOM      3  C   UNL     1       7.463  -3.998  22.366  0.00  0.00    +0.105 C 
ATOM      4  C   UNL     1       6.558  -5.149  24.372  0.00  0.00    +0.074 C 
ATOM      5  C   UNL     1       7.430  -4.467  25.456  0.00  0.00    +0.155 C 
ATOM      6  C   UNL     1       7.374  -2.921  25.455  0.00  0.00    +0.193 C 
ATOM      7  C   UNL     1       5.111  -5.284  24.881  0.00  0.00    +0.021 C 
ATOM      8  C   UNL     1       6.279  -2.279  24.574  0.00  0.00    +0.064 C 
ATOM      9  C   UNL     1       4.415  -4.010  24.405  0.00  0.00    +0.020 C 
ENDROOT
BRANCH   5  10
ATOM     10  C   UNL     1       8.831  -5.059  25.420  0.00  0.00    +0.313 C 
ATOM     11  O   UNL     1       9.320  -5.653  24.471  0.00  0.00    -0.251 OA
BRANCH  10  12
ATOM     12  O   UNL     1       9.525  -4.884  26.570  0.00  0.00    -0.480 OA
ATOM     13  H   UNL     1       9.878  -5.703  26.975  0.00  0.00    +0.295 HD
ENDBRANCH  10  12
ENDBRANCH   5  10
BRANCH   6  14
ATOM     14  O   UNL     1       8.634  -2.354  25.006  0.00  0.00    -0.457 OA
BRANCH  14  15
ATOM     15  C   UNL     1       8.975  -1.121  25.453  0.00  0.00    +0.339 C 
ATOM     16  O   UNL     1       9.046  -0.804  26.631  0.00  0.00    -0.245 OA
BRANCH  15  17
ATOM     17  C   UNL     1       9.418  -0.274  24.312  0.00  0.00    +0.059 A 
ATOM     18  C   UNL     1       9.807   1.064  24.482  0.00  0.00    +0.015 A 
ATOM     19  C   UNL     1      10.109   1.859  23.376  0.00  0.00    +0.001 A 
ATOM     20  C   UNL     1      10.037   1.323  22.093  0.00  0.00    +0.000 A 
ATOM     21  C   UNL     1       9.665  -0.010  21.914  0.00  0.00    +0.001 A 
ATOM     22  C   UNL     1       9.355  -0.807  23.018  0.00  0.00    +0.015 A 
ENDBRANCH  15  17
ENDBRANCH  14  15
ENDBRANCH   6  14
TORSDOF 5
ENDMDL
MODEL 3
REMARK VINA RESULT:      -6.3      2.939      6.194
REMARK  Name = 
REMARK  6 active torsions:
REMARK  status: ('A' for Active; 'I' for Inactive)
REMARK    1  A    between atoms: C_7  and  C_21
REMARK    2  A    between atoms: C_9  and  O_12
REMARK    3  A    between atoms: O_12  and  C_13
REMARK    4  A    between atoms: C_13  and  C_15
REMARK    5  A    between atoms: C_21  and  O_22
REMARK    6  A    between atoms: N_24  and  C_25
REMARK                            x       y       z     vdW  Elec       q    Type
REMARK                         _______ _______ _______ _____ _____    ______ ____
ROOT
ATOM      1  C   UNL     1       5.719  -4.527  26.536  0.00  0.00    +0.060 C 
ATOM      2  N   UNL     1       4.780  -4.149  25.491  0.00  0.00    -0.298 NA
ATOM      3  C   UNL     1       4.846  -2.778  25.024  0.00  0.00    +0.105 C 
ATOM      4  C   UNL     1       4.929  -5.201  24.481  0.00  0.00    +0.074 C 
ATOM      5  C   UNL     1       6.308  -5.242  23.775  0.00  0.00    +0.155 C 
ATOM      6  C   UNL     1       7.481  -4.674  24.609  0.00  0.00    +0.193 C 
ATOM      7  C   UNL     1       4.774  -6.436  25.387  0.00  0.00    +0.021 C 
ATOM      8  C   UNL     1       7.183  -4.393  26.099  0.00  0.00    +0.064 C 
ATOM      9  C   UNL     1       5.300  -5.984  26.748  0.00  0.00    +0.020 C 
ENDROOT
BRANCH   5  10
ATOM     10  C   UNL     1       6.174  -4.661  22.376  0.00  0.00    +0.313 C 
ATOM     11  O   UNL     1       5.190  -4.080  21.946  0.00  0.00    -0.251 OA
BRANCH  10  12
ATOM     12  O   UNL     1       7.269  -4.852  21.601  0.00  0.00    -0.480 OA
ATOM     13  H   UNL     1       7.087  -5.150  20.685  0.00  0.00    +0.295 HD
ENDBRANCH  10  12
ENDBRANCH   5  10
BRANCH   6  14
ATOM     14  O   UNL     1       7.957  -3.421  24.051  0.00  0.00    -0.457 OA
BRANCH  14  15
ATOM     15  C   UNL     1       9.292  -3.180  24.068  0.00  0.00    +0.339 C 
ATOM     16  O   UNL     1      10.139  -3.988  24.421  0.00  0.00    -0.245 OA
BRANCH  15  17
ATOM     17  C   UNL     1       9.576  -1.866  23.430  0.00  0.00    +0.059 A 
ATOM     18  C   UNL     1      10.087  -0.779  24.157  0.00  0.00    +0.015 A 
ATOM     19  C   UNL     1      10.237   0.470  23.552  0.00  0.00    +0.001 A 
ATOM     20  C   UNL     1       9.888   0.641  22.215  0.00  0.00    +0.000 A 
ATOM     21  C   UNL     1       9.391  -0.437  21.479  0.00  0.00    +0.001 A 
ATOM     22  C   UNL     1       9.235  -1.686  22.084  0.00  0.00    +0.015 A 
ENDBRANCH  15  17
ENDBRANCH  14  15
ENDBRANCH   6  14
TORSDOF 5
ENDMDL
MODEL 4
REMARK VINA RESULT:      -6.2      2.312      5.875
REMARK  Name = 
REMARK  6 active torsions:
REMARK  status: ('A' for Active; 'I' for Inactive)
REMARK    1  A    between atoms: C_7  and  C_21
REMARK    2  A    between atoms: C_9  and  O_12
REMARK    3  A    between atoms: O_12  and  C_13
REMARK    4  A    between atoms: C_13  and  C_15
REMARK    5  A    between atoms: C_21  and  O_22
REMARK    6  A    between atoms: N_24  and  C_25
REMARK                            x       y       z     vdW  Elec       q    Type
REMARK                         _______ _______ _______ _____ _____    ______ ____
ROOT
ATOM      1  C   UNL     1       7.852  -3.445  26.220  0.00  0.00    +0.060 C 
ATOM      2  N   UNL     1       6.540  -2.934  25.855  0.00  0.00    -0.298 NA
ATOM      3  C   UNL     1       6.458  -1.520  25.543  0.00  0.00    +0.105 C 
ATOM      4  C   UNL     1       6.067  -3.867  24.827  0.00  0.00    +0.074 C 
ATOM      5  C   UNL     1       6.877  -3.855  23.506  0.00  0.00    +0.155 C 
ATOM      6  C   UNL     1       8.351  -3.407  23.653  0.00  0.00    +0.193 C 
ATOM      7  C   UNL     1       6.309  -5.194  25.570  0.00  0.00    +0.021 C 
ATOM      8  C   UNL     1       8.886  -3.291  25.098  0.00  0.00    +0.064 C 
ATOM      9  C   UNL     1       7.494  -4.909  26.492  0.00  0.00    +0.020 C 
ENDROOT
BRANCH   5  10
ATOM     10  C   UNL     1       6.085  -3.116  22.438  0.00  0.00    +0.313 C 
ATOM     11  O   UNL     1       5.649  -3.616  21.413  0.00  0.00    -0.251 OA
BRANCH  10  12
ATOM     12  O   UNL     1       5.900  -1.802  22.710  0.00  0.00    -0.480 OA
ATOM     13  H   UNL     1       5.404  -1.299  22.030  0.00  0.00    +0.295 HD
ENDBRANCH  10  12
ENDBRANCH   5  10
BRANCH   6  14
ATOM     14  O   UNL     1       8.564  -2.108  23.040  0.00  0.00    -0.457 OA
BRANCH  14  15
ATOM     15  C   UNL     1       9.840  -1.676  22.885  0.00  0.00    +0.339 C 
ATOM     16  O   UNL     1      10.777  -2.387  22.550  0.00  0.00    -0.245 OA
BRANCH  15  17
ATOM     17  C   UNL     1       9.891  -0.194  23.005  0.00  0.00    +0.059 A 
ATOM     18  C   UNL     1       9.789   0.649  21.888  0.00  0.00    +0.015 A 
ATOM     19  C   UNL     1       9.952   2.029  22.025  0.00  0.00    +0.001 A 
ATOM     20  C   UNL     1      10.208   2.578  23.279  0.00  0.00    +0.000 A 
ATOM     21  C   UNL     1      10.299   1.749  24.398  0.00  0.00    +0.001 A 
ATOM     22  C   UNL     1      10.142   0.368  24.263  0.00  0.00    +0.015 A 
ENDBRANCH  15  17
ENDBRANCH  14  15
ENDBRANCH   6  14
TORSDOF 5
ENDMDL
MODEL 5
REMARK VINA RESULT:      -6.1      2.084      5.427
REMARK  Name = 
REMARK  6 active torsions:
REMARK  status: ('A' for Active; 'I' for Inactive)
REMARK    1  A    between atoms: C_7  and  C_21
REMARK    2  A    between atoms: C_9  and  O_12
REMARK    3  A    between atoms: O_12  and  C_13
REMARK    4  A    between atoms: C_13  and  C_15
REMARK    5  A    between atoms: C_21  and  O_22
REMARK    6  A    between atoms: N_24  and  C_25
REMARK                            x       y       z     vdW  Elec       q    Type
REMARK                         _______ _______ _______ _____ _____    ______ ____
ROOT
ATOM      1  C   UNL     1       6.977  -4.084  22.356  0.00  0.00    +0.060 C 
ATOM      2  N   UNL     1       6.866  -4.747  23.646  0.00  0.00    -0.298 NA
ATOM      3  C   UNL     1       8.104  -5.194  24.255  0.00  0.00    +0.105 C 
ATOM      4  C   UNL     1       6.025  -3.845  24.440  0.00  0.00    +0.074 C 
ATOM      5  C   UNL     1       6.659  -2.468  24.758  0.00  0.00    +0.155 C 
ATOM      6  C   UNL     1       7.714  -1.986  23.733  0.00  0.00    +0.193 C 
ATOM      7  C   UNL     1       4.860  -3.663  23.450  0.00  0.00    +0.021 C 
ATOM      8  C   UNL     1       7.804  -2.793  22.418  0.00  0.00    +0.064 C 
ATOM      9  C   UNL     1       5.497  -3.821  22.071  0.00  0.00    +0.020 C 
ENDROOT
BRANCH   5  10
ATOM     10  C   UNL     1       7.118  -2.448  26.208  0.00  0.00    +0.313 C 
ATOM     11  O   UNL     1       7.055  -3.393  26.979  0.00  0.00    -0.251 OA
BRANCH  10  12
ATOM     12  O   UNL     1       7.611  -1.251  26.606  0.00  0.00    -0.480 OA
ATOM     13  H   UNL     1       6.975  -0.669  27.071  0.00  0.00    +0.295 HD
ENDBRANCH  10  12
ENDBRANCH   5  10
BRANCH   6  14
ATOM     14  O   UNL     1       9.047  -2.008  24.309  0.00  0.00    -0.457 OA
BRANCH  14  15
ATOM     15  C   UNL     1      10.087  -1.627  23.527  0.00  0.00    +0.339 C 
ATOM     16  O   UNL     1      10.820  -2.397  22.922  0.00  0.00    -0.245 OA
BRANCH  15  17
ATOM     17  C   UNL     1      10.091  -0.146  23.375  0.00  0.00    +0.059 A 
ATOM     18  C   UNL     1      10.154   0.716  24.481  0.00  0.00    +0.015 A 
ATOM     19  C   UNL     1      10.043   2.097  24.309  0.00  0.00    +0.001 A 
ATOM     20  C   UNL     1       9.879   2.627  23.031  0.00  0.00    +0.000 A 
ATOM     21  C   UNL     1       9.828   1.779  21.924  0.00  0.00    +0.001 A 
ATOM     22  C   UNL     1       9.933   0.396  22.094  0.00  0.00    +0.015 A 
ENDBRANCH  15  17
ENDBRANCH  14  15
ENDBRANCH   6  14
TORSDOF 5
ENDMDL
MODEL 6
REMARK VINA RESULT:      -6.1      2.124      3.052
REMARK  Name = 
REMARK  6 active torsions:
REMARK  status: ('A' for Active; 'I' for Inactive)
REMARK    1  A    between atoms: C_7  and  C_21
REMARK    2  A    between atoms: C_9  and  O_12
REMARK    3  A    between atoms: O_12  and  C_13
REMARK    4  A    between atoms: C_13  and  C_15
REMARK    5  A    between atoms: C_21  and  O_22
REMARK    6  A    between atoms: N_24  and  C_25
REMARK                            x       y       z     vdW  Elec       q    Type
REMARK                         _______ _______ _______ _____ _____    ______ ____
ROOT
ATOM      1  C   UNL     1      10.197  -0.656  23.977  0.00  0.00    +0.060 C 
ATOM      2  N   UNL     1      10.060   0.055  22.716  0.00  0.00    -0.298 NA
ATOM      3  C   UNL     1       9.470  -0.681  21.615  0.00  0.00    +0.105 C 
ATOM      4  C   UNL     1       9.417   1.320  23.088  0.00  0.00    +0.074 C 
ATOM      5  C   UNL     1       7.969   1.186  23.623  0.00  0.00    +0.155 C 
ATOM      6  C   UNL     1       7.645  -0.175  24.284  0.00  0.00    +0.193 C 
ATOM      7  C   UNL     1      10.355   1.745  24.232  0.00  0.00    +0.021 C 
ATOM      8  C   UNL     1       8.849  -1.103  24.559  0.00  0.00    +0.064 C 
ATOM      9  C   UNL     1      10.868   0.432  24.819  0.00  0.00    +0.020 C 
ENDROOT
BRANCH   5  10
ATOM     10  C   UNL     1       6.991   1.625  22.544  0.00  0.00    +0.313 C 
ATOM     11  O   UNL     1       7.302   2.019  21.430  0.00  0.00    -0.251 OA
BRANCH  10  12
ATOM     12  O   UNL     1       5.694   1.557  22.926  0.00  0.00    -0.480 OA
ATOM     13  H   UNL     1       5.071   1.239  22.239  0.00  0.00    +0.295 HD
ENDBRANCH  10  12
ENDBRANCH   5  10
BRANCH   6  14
ATOM     14  O   UNL     1       6.723  -0.944  23.467  0.00  0.00    -0.457 OA
BRANCH  14  15
ATOM     15  C   UNL     1       5.845  -1.765  24.094  0.00  0.00    +0.339 C 
ATOM     16  O   UNL     1       5.070  -1.413  24.972  0.00  0.00    -0.245 OA
BRANCH  15  17
ATOM     17  C   UNL     1       5.842  -3.100  23.436  0.00  0.00    +0.059 A 
ATOM     18  C   UNL     1       6.859  -3.499  22.554  0.00  0.00    +0.015 A 
ATOM     19  C   UNL     1       6.766  -4.712  21.870  0.00  0.00    +0.001 A 
ATOM     20  C   UNL     1       5.664  -5.539  22.067  0.00  0.00    +0.000 A 
ATOM     21  C   UNL     1       4.654  -5.158  22.952  0.00  0.00    +0.001 A 
ATOM     22  C   UNL     1       4.741  -3.942  23.634  0.00  0.00    +0.015 A 
ENDBRANCH  15  17
ENDBRANCH  14  15
ENDBRANCH   6  14
TORSDOF 5
ENDMDL
MODEL 7
REMARK VINA RESULT:      -5.9      2.230      5.894
REMARK  Name = 
REMARK  6 active torsions:
REMARK  status: ('A' for Active; 'I' for Inactive)
REMARK    1  A    between atoms: C_7  and  C_21
REMARK    2  A    between atoms: C_9  and  O_12
REMARK    3  A    between atoms: O_12  and  C_13
REMARK    4  A    between atoms: C_13  and  C_15
REMARK    5  A    between atoms: C_21  and  O_22
REMARK    6  A    between atoms: N_24  and  C_25
REMARK                            x       y       z     vdW  Elec       q    Type
REMARK                         _______ _______ _______ _____ _____    ______ ____
ROOT
ATOM      1  C   UNL     1       7.031  -4.348  26.018  0.00  0.00    +0.060 C 
ATOM      2  N   UNL     1       7.213  -4.654  24.607  0.00  0.00    -0.298 NA
ATOM      3  C   UNL     1       6.292  -4.023  23.682  0.00  0.00    +0.105 C 
ATOM      4  C   UNL     1       8.643  -4.430  24.375  0.00  0.00    +0.074 C 
ATOM      5  C   UNL     1       9.109  -2.959  24.522  0.00  0.00    +0.155 C 
ATOM      6  C   UNL     1       8.242  -2.096  25.469  0.00  0.00    +0.193 C 
ATOM      7  C   UNL     1       9.214  -5.271  25.531  0.00  0.00    +0.021 C 
ATOM      8  C   UNL     1       7.211  -2.857  26.332  0.00  0.00    +0.064 C 
ATOM      9  C   UNL     1       8.142  -5.213  26.617  0.00  0.00    +0.020 C 
ENDROOT
BRANCH   5  10
ATOM     10  C   UNL     1       9.339  -2.364  23.141  0.00  0.00    +0.313 C 
ATOM     11  O   UNL     1      10.351  -1.781  22.785  0.00  0.00    -0.251 OA
BRANCH  10  12
ATOM     12  O   UNL     1       8.290  -2.524  22.299  0.00  0.00    -0.480 OA
ATOM     13  H   UNL     1       8.261  -3.381  21.824  0.00  0.00    +0.295 HD
ENDBRANCH  10  12
ENDBRANCH   5  10
BRANCH   6  14
ATOM     14  O   UNL     1       7.488  -1.103  24.725  0.00  0.00    -0.457 OA
BRANCH  14  15
ATOM     15  C   UNL     1       7.617   0.199  25.081  0.00  0.00    +0.339 C 
ATOM     16  O   UNL     1       7.224   0.671  26.138  0.00  0.00    -0.245 OA
BRANCH  15  17
ATOM     17  C   UNL     1       8.458   0.915  24.084  0.00  0.00    +0.059 A 
ATOM     18  C   UNL     1       8.087   1.022  22.735  0.00  0.00    +0.015 A 
ATOM     19  C   UNL     1       8.951   1.604  21.806  0.00  0.00    +0.001 A 
ATOM     20  C   UNL     1      10.188   2.093  22.220  0.00  0.00    +0.000 A 
ATOM     21  C   UNL     1      10.561   2.003  23.562  0.00  0.00    +0.001 A 
ATOM     22  C   UNL     1       9.701   1.416  24.492  0.00  0.00    +0.015 A 
ENDBRANCH  15  17
ENDBRANCH  14  15
ENDBRANCH   6  14
TORSDOF 5
ENDMDL
MODEL 8
REMARK VINA RESULT:      -5.9      2.633      5.585
REMARK  Name = 
REMARK  6 active torsions:
REMARK  status: ('A' for Active; 'I' for Inactive)
REMARK    1  A    between atoms: C_7  and  C_21
REMARK    2  A    between atoms: C_9  and  O_12
REMARK    3  A    between atoms: O_12  and  C_13
REMARK    4  A    between atoms: C_13  and  C_15
REMARK    5  A    between atoms: C_21  and  O_22
REMARK    6  A    between atoms: N_24  and  C_25
REMARK                            x       y       z     vdW  Elec       q    Type
REMARK                         _______ _______ _______ _____ _____    ______ ____
ROOT
ATOM      1  C   UNL     1       5.565  -5.229  25.273  0.00  0.00    +0.060 C 
ATOM      2  N   UNL     1       4.946  -4.060  25.880  0.00  0.00    -0.298 NA
ATOM      3  C   UNL     1       5.680  -3.423  26.957  0.00  0.00    +0.105 C 
ATOM      4  C   UNL     1       4.580  -3.217  24.738  0.00  0.00    +0.074 C 
ATOM      5  C   UNL     1       5.775  -2.654  23.928  0.00  0.00    +0.155 C 
ATOM      6  C   UNL     1       7.063  -3.511  23.991  0.00  0.00    +0.193 C 
ATOM      7  C   UNL     1       3.828  -4.261  23.893  0.00  0.00    +0.021 C 
ATOM      8  C   UNL     1       6.916  -4.916  24.617  0.00  0.00    +0.064 C 
ATOM      9  C   UNL     1       4.485  -5.593  24.251  0.00  0.00    +0.020 C 
ENDROOT
BRANCH   5  10
ATOM     10  C   UNL     1       5.965  -1.184  24.268  0.00  0.00    +0.313 C 
ATOM     11  O   UNL     1       5.713  -0.672  25.348  0.00  0.00    -0.251 OA
BRANCH  10  12
ATOM     12  O   UNL     1       6.444  -0.445  23.238  0.00  0.00    -0.480 OA
ATOM     13  H   UNL     1       7.033  -0.924  22.618  0.00  0.00    +0.295 HD
ENDBRANCH  10  12
ENDBRANCH   5  10
BRANCH   6  14
ATOM     14  O   UNL     1       8.099  -2.838  24.755  0.00  0.00    -0.457 OA
BRANCH  14  15
ATOM     15  C   UNL     1       9.366  -2.863  24.273  0.00  0.00    +0.339 C 
ATOM     16  O   UNL     1      10.091  -3.848  24.276  0.00  0.00    -0.245 OA
BRANCH  15  17
ATOM     17  C   UNL     1       9.672  -1.578  23.587  0.00  0.00    +0.059 A 
ATOM     18  C   UNL     1      10.071  -0.432  24.293  0.00  0.00    +0.015 A 
ATOM     19  C   UNL     1      10.242   0.784  23.630  0.00  0.00    +0.001 A 
ATOM     20  C   UNL     1      10.026   0.863  22.256  0.00  0.00    +0.000 A 
ATOM     21  C   UNL     1       9.642  -0.273  21.543  0.00  0.00    +0.001 A 
ATOM     22  C   UNL     1       9.465  -1.491  22.205  0.00  0.00    +0.015 A 
ENDBRANCH  15  17
ENDBRANCH  14  15
ENDBRANCH   6  14
TORSDOF 5
ENDMDL
MODEL 9
REMARK VINA RESULT:      -5.9      2.485      5.928
REMARK  Name = 
REMARK  6 active torsions:
REMARK  status: ('A' for Active; 'I' for Inactive)
REMARK    1  A    between atoms: C_7  and  C_21
REMARK    2  A    between atoms: C_9  and  O_12
REMARK    3  A    between atoms: O_12  and  C_13
REMARK    4  A    between atoms: C_13  and  C_15
REMARK    5  A    between atoms: C_21  and  O_22
REMARK    6  A    between atoms: N_24  and  C_25
REMARK                            x       y       z     vdW  Elec       q    Type
REMARK                         _______ _______ _______ _____ _____    ______ ____
ROOT
ATOM      1  C   UNL     1       7.492  -4.641  22.257  0.00  0.00    +0.060 C 
ATOM      2  N   UNL     1       7.604  -5.198  23.596  0.00  0.00    -0.298 NA
ATOM      3  C   UNL     1       8.574  -4.577  24.477  0.00  0.00    +0.105 C 
ATOM      4  C   UNL     1       6.219  -5.260  24.074  0.00  0.00    +0.074 C 
ATOM      5  C   UNL     1       5.532  -3.886  24.275  0.00  0.00    +0.155 C 
ATOM      6  C   UNL     1       6.089  -2.746  23.389  0.00  0.00    +0.193 C 
ATOM      7  C   UNL     1       5.580  -5.989  22.877  0.00  0.00    +0.021 C 
ATOM      8  C   UNL     1       7.050  -3.172  22.256  0.00  0.00    +0.064 C 
ATOM      9  C   UNL     1       6.426  -5.575  21.676  0.00  0.00    +0.020 C 
ENDROOT
BRANCH   5  10
ATOM     10  C   UNL     1       5.465  -3.570  25.761  0.00  0.00    +0.313 C 
ATOM     11  O   UNL     1       6.016  -4.211  26.643  0.00  0.00    -0.251 OA
BRANCH  10  12
ATOM     12  O   UNL     1       4.708  -2.485  26.052  0.00  0.00    -0.480 OA
ATOM     13  H   UNL     1       5.040  -1.635  25.696  0.00  0.00    +0.295 HD
ENDBRANCH  10  12
ENDBRANCH   5  10
BRANCH   6  14
ATOM     14  O   UNL     1       6.814  -1.773  24.186  0.00  0.00    -0.457 OA
BRANCH  14  15
ATOM     15  C   UNL     1       6.485  -0.465  24.054  0.00  0.00    +0.339 C 
ATOM     16  O   UNL     1       5.516   0.064  24.579  0.00  0.00    -0.245 OA
BRANCH  15  17
ATOM     17  C   UNL     1       7.565   0.257  23.329  0.00  0.00    +0.059 A 
ATOM     18  C   UNL     1       7.290   1.254  22.380  0.00  0.00    +0.015 A 
ATOM     19  C   UNL     1       8.322   1.832  21.639  0.00  0.00    +0.001 A 
ATOM     20  C   UNL     1       9.638   1.426  21.848  0.00  0.00    +0.000 A 
ATOM     21  C   UNL     1       9.924   0.445  22.798  0.00  0.00    +0.001 A 
ATOM     22  C   UNL     1       8.892  -0.139  23.536  0.00  0.00    +0.015 A 
ENDBRANCH  15  17
ENDBRANCH  14  15
ENDBRANCH   6  14
TORSDOF 5
ENDMDL
