MODEL 1
REMARK VINA RESULT:      -6.5      0.000      0.000
REMARK  Name = 
REMARK  10 active torsions:
REMARK  status: ('A' for Active; 'I' for Inactive)
REMARK    1  A    between atoms: C_2  and  C_3
REMARK    2  A    between atoms: C_3  and  C_4
REMARK    3  A    between atoms: C_7  and  O_8
REMARK    4  A    between atoms: C_9  and  O_10
REMARK    5  A    between atoms: O_10  and  C_11
REMARK    6  A    between atoms: C_17  and  C_19
REMARK    7  A    between atoms: C_19  and  C_20
REMARK    8  A    between atoms: C_23  and  O_24
REMARK    9  A    between atoms: C_25  and  O_26
REMARK   10  A    between atoms: O_26  and  C_27
REMARK                            x       y       z     vdW  Elec       q    Type
REMARK                         _______ _______ _______ _____ _____    ______ ____
ROOT
ATOM      1  C   UNL     1       8.786  -0.427  24.970  0.00  0.00    +0.045 C 
ATOM      2  C   UNL     1       8.725  -1.514  23.895  0.00  0.00    +0.109 C 
ATOM      3  C   UNL     1       9.858  -1.164  22.972  0.00  0.00    +0.311 C 
ATOM      4  O   UNL     1      10.092  -1.697  21.896  0.00  0.00    -0.251 OA
ATOM      5  O   UNL     1      10.648  -0.206  23.530  0.00  0.00    -0.464 OA
ATOM      6  C   UNL     1      10.224   0.052  24.869  0.00  0.00    +0.236 C 
ENDROOT
BRANCH   1   7
ATOM      7  C   UNL     1       8.431  -0.946  26.384  0.00  0.00    +0.043 C 
BRANCH   7   8
ATOM      8  C   UNL     1       7.910  -2.369  26.491  0.00  0.00    -0.043 A 
ATOM      9  C   UNL     1       6.526  -2.589  26.669  0.00  0.00    +0.053 A 
ATOM     10  C   UNL     1       5.994  -3.885  26.734  0.00  0.00    +0.162 A 
ATOM     11  C   UNL     1       6.868  -4.972  26.609  0.00  0.00    +0.158 A 
ATOM     12  C   UNL     1       8.242  -4.778  26.501  0.00  0.00    +0.049 A 
ATOM     13  C   UNL     1       8.762  -3.481  26.462  0.00  0.00    +0.007 A 
BRANCH  10  14
ATOM     14  O   UNL     1       4.672  -4.201  26.888  0.00  0.00    -0.491 OA
ATOM     15  C   UNL     1       4.046  -3.880  28.120  0.00  0.00    +0.277 C 
ENDBRANCH  10  14
BRANCH  11  16
ATOM     16  O   UNL     1       6.360  -6.243  26.595  0.00  0.00    -0.503 OA
ATOM     17  H   UNL     1       6.778  -6.733  25.869  0.00  0.00    +0.292 HD
ENDBRANCH  11  16
ENDBRANCH   7   8
ENDBRANCH   1   7
BRANCH   2  18
ATOM     18  C   UNL     1       7.393  -1.675  23.153  0.00  0.00    +0.050 C 
BRANCH  18  19
ATOM     19  C   UNL     1       6.810  -3.065  22.999  0.00  0.00    -0.043 A 
ATOM     20  C   UNL     1       5.417  -3.257  22.974  0.00  0.00    +0.053 A 
ATOM     21  C   UNL     1       4.864  -4.543  22.949  0.00  0.00    +0.162 A 
ATOM     22  C   UNL     1       5.724  -5.649  22.951  0.00  0.00    +0.158 A 
ATOM     23  C   UNL     1       7.107  -5.480  22.939  0.00  0.00    +0.049 A 
ATOM     24  C   UNL     1       7.645  -4.191  22.960  0.00  0.00    +0.007 A 
BRANCH  21  25
ATOM     25  O   UNL     1       3.523  -4.823  22.946  0.00  0.00    -0.491 OA
ATOM     26  C   UNL     1       2.802  -4.582  24.145  0.00  0.00    +0.277 C 
ENDBRANCH  21  25
BRANCH  22  27
ATOM     27  O   UNL     1       5.194  -6.912  22.984  0.00  0.00    -0.503 OA
ATOM     28  H   UNL     1       5.013  -7.150  23.905  0.00  0.00    +0.292 HD
ENDBRANCH  22  27
ENDBRANCH  18  19
ENDBRANCH   2  18
TORSDOF 8
ENDMDL
MODEL 2
REMARK VINA RESULT:      -6.5      2.039      5.684
REMARK  Name = 
REMARK  10 active torsions:
REMARK  status: ('A' for Active; 'I' for Inactive)
REMARK    1  A    between atoms: C_2  and  C_3
REMARK    2  A    between atoms: C_3  and  C_4
REMARK    3  A    between atoms: C_7  and  O_8
REMARK    4  A    between atoms: C_9  and  O_10
REMARK    5  A    between atoms: O_10  and  C_11
REMARK    6  A    between atoms: C_17  and  C_19
REMARK    7  A    between atoms: C_19  and  C_20
REMARK    8  A    between atoms: C_23  and  O_24
REMARK    9  A    between atoms: C_25  and  O_26
REMARK   10  A    between atoms: O_26  and  C_27
REMARK                            x       y       z     vdW  Elec       q    Type
REMARK                         _______ _______ _______ _____ _____    ______ ____
ROOT
ATOM      1  C   UNL     1       8.243  -2.418  25.546  0.00  0.00    +0.045 C 
ATOM      2  C   UNL     1       9.077  -3.305  24.620  0.00  0.00    +0.109 C 
ATOM      3  C   UNL     1       9.498  -4.445  25.504  0.00  0.00    +0.311 C 
ATOM      4  O   UNL     1      10.293  -5.324  25.204  0.00  0.00    -0.251 OA
ATOM      5  O   UNL     1       8.812  -4.413  26.679  0.00  0.00    -0.464 OA
ATOM      6  C   UNL     1       7.816  -3.390  26.632  0.00  0.00    +0.236 C 
ENDROOT
BRANCH   1   7
ATOM      7  C   UNL     1       7.038  -1.756  24.835  0.00  0.00    +0.043 C 
BRANCH   7   8
ATOM      8  C   UNL     1       5.953  -2.677  24.305  0.00  0.00    -0.043 A 
ATOM      9  C   UNL     1       6.180  -3.400  23.112  0.00  0.00    +0.053 A 
ATOM     10  C   UNL     1       5.224  -4.292  22.605  0.00  0.00    +0.162 A 
ATOM     11  C   UNL     1       4.029  -4.463  23.314  0.00  0.00    +0.158 A 
ATOM     12  C   UNL     1       3.757  -3.710  24.452  0.00  0.00    +0.049 A 
ATOM     13  C   UNL     1       4.709  -2.807  24.935  0.00  0.00    +0.007 A 
BRANCH  10  14
ATOM     14  O   UNL     1       5.356  -5.048  21.472  0.00  0.00    -0.491 OA
ATOM     15  C   UNL     1       6.584  -5.728  21.261  0.00  0.00    +0.277 C 
ENDBRANCH  10  14
BRANCH  11  16
ATOM     16  O   UNL     1       3.115  -5.383  22.876  0.00  0.00    -0.503 OA
ATOM     17  H   UNL     1       3.327  -6.241  23.276  0.00  0.00    +0.292 HD
ENDBRANCH  11  16
ENDBRANCH   7   8
ENDBRANCH   1   7
BRANCH   2  18
ATOM     18  C   UNL     1      10.267  -2.639  23.916  0.00  0.00    +0.050 C 
BRANCH  18  19
ATOM     19  C   UNL     1      10.041  -1.329  23.191  0.00  0.00    -0.043 A 
ATOM     20  C   UNL     1      10.270  -0.103  23.842  0.00  0.00    +0.053 A 
ATOM     21  C   UNL     1       9.957   1.114  23.226  0.00  0.00    +0.162 A 
ATOM     22  C   UNL     1       9.403   1.097  21.939  0.00  0.00    +0.158 A 
ATOM     23  C   UNL     1       9.201  -0.105  21.263  0.00  0.00    +0.049 A 
ATOM     24  C   UNL     1       9.522  -1.311  21.888  0.00  0.00    +0.007 A 
BRANCH  21  25
ATOM     25  O   UNL     1      10.125   2.350  23.792  0.00  0.00    -0.491 OA
ATOM     26  C   UNL     1       9.077   2.842  24.612  0.00  0.00    +0.277 C 
ENDBRANCH  21  25
BRANCH  22  27
ATOM     27  O   UNL     1       9.039   2.278  21.348  0.00  0.00    -0.503 OA
ATOM     28  H   UNL     1       8.603   2.084  20.505  0.00  0.00    +0.292 HD
ENDBRANCH  22  27
ENDBRANCH  18  19
ENDBRANCH   2  18
TORSDOF 8
ENDMDL
MODEL 3
REMARK VINA RESULT:      -6.4      2.157      5.387
REMARK  Name = 
REMARK  10 active torsions:
REMARK  status: ('A' for Active; 'I' for Inactive)
REMARK    1  A    between atoms: C_2  and  C_3
REMARK    2  A    between atoms: C_3  and  C_4
REMARK    3  A    between atoms: C_7  and  O_8
REMARK    4  A    between atoms: C_9  and  O_10
REMARK    5  A    between atoms: O_10  and  C_11
REMARK    6  A    between atoms: C_17  and  C_19
REMARK    7  A    between atoms: C_19  and  C_20
REMARK    8  A    between atoms: C_23  and  O_24
REMARK    9  A    between atoms: C_25  and  O_26
REMARK   10  A    between atoms: O_26  and  C_27
REMARK                            x       y       z     vdW  Elec       q    Type
REMARK                         _______ _______ _______ _____ _____    ______ ____
ROOT
ATOM      1  C   UNL     1       8.321  -3.805  26.354  0.00  0.00    +0.045 C 
ATOM      2  C   UNL     1       8.626  -2.740  25.300  0.00  0.00    +0.109 C 
ATOM      3  C   UNL     1       9.710  -3.364  24.468  0.00  0.00    +0.311 C 
ATOM      4  O   UNL     1      10.347  -2.802  23.589  0.00  0.00    -0.251 OA
ATOM      5  O   UNL     1       9.847  -4.683  24.776  0.00  0.00    -0.464 OA
ATOM      6  C   UNL     1       8.821  -5.076  25.689  0.00  0.00    +0.236 C 
ENDROOT
BRANCH   1   7
ATOM      7  C   UNL     1       6.821  -3.882  26.728  0.00  0.00    +0.043 C 
BRANCH   7   8
ATOM      8  C   UNL     1       5.970  -4.895  25.981  0.00  0.00    -0.043 A 
ATOM      9  C   UNL     1       5.744  -4.723  24.597  0.00  0.00    +0.053 A 
ATOM     10  C   UNL     1       4.998  -5.653  23.858  0.00  0.00    +0.162 A 
ATOM     11  C   UNL     1       4.482  -6.773  24.521  0.00  0.00    +0.158 A 
ATOM     12  C   UNL     1       4.636  -6.926  25.896  0.00  0.00    +0.049 A 
ATOM     13  C   UNL     1       5.361  -5.980  26.626  0.00  0.00    +0.007 A 
BRANCH  10  14
ATOM     14  O   UNL     1       4.738  -5.585  22.516  0.00  0.00    -0.491 OA
ATOM     15  C   UNL     1       5.833  -5.662  21.617  0.00  0.00    +0.277 C 
ENDBRANCH  10  14
BRANCH  11  16
ATOM     16  O   UNL     1       3.815  -7.729  23.803  0.00  0.00    -0.503 OA
ATOM     17  H   UNL     1       2.880  -7.475  23.747  0.00  0.00    +0.292 HD
ENDBRANCH  11  16
ENDBRANCH   7   8
ENDBRANCH   1   7
BRANCH   2  18
ATOM     18  C   UNL     1       9.013  -1.349  25.819  0.00  0.00    +0.050 C 
BRANCH  18  19
ATOM     19  C   UNL     1       9.310  -0.255  24.814  0.00  0.00    -0.043 A 
ATOM     20  C   UNL     1       8.362   0.090  23.833  0.00  0.00    +0.053 A 
ATOM     21  C   UNL     1       8.665   1.016  22.828  0.00  0.00    +0.162 A 
ATOM     22  C   UNL     1       9.939   1.599  22.808  0.00  0.00    +0.158 A 
ATOM     23  C   UNL     1      10.880   1.297  23.790  0.00  0.00    +0.049 A 
ATOM     24  C   UNL     1      10.563   0.375  24.790  0.00  0.00    +0.007 A 
BRANCH  21  25
ATOM     25  O   UNL     1       7.814   1.394  21.823  0.00  0.00    -0.491 OA
ATOM     26  C   UNL     1       6.724   2.233  22.170  0.00  0.00    +0.277 C 
ENDBRANCH  21  25
BRANCH  22  27
ATOM     27  O   UNL     1      10.267   2.462  21.796  0.00  0.00    -0.503 OA
ATOM     28  H   UNL     1      10.796   3.186  22.164  0.00  0.00    +0.292 HD
ENDBRANCH  22  27
ENDBRANCH  18  19
ENDBRANCH   2  18
TORSDOF 8
ENDMDL
MODEL 4
REMARK VINA RESULT:      -6.3      1.127      4.064
REMARK  Name = 
REMARK  10 active torsions:
REMARK  status: ('A' for Active; 'I' for Inactive)
REMARK    1  A    between atoms: C_2  and  C_3
REMARK    2  A    between atoms: C_3  and  C_4
REMARK    3  A    between atoms: C_7  and  O_8
REMARK    4  A    between atoms: C_9  and  O_10
REMARK    5  A    between atoms: O_10  and  C_11
REMARK    6  A    between atoms: C_17  and  C_19
REMARK    7  A    between atoms: C_19  and  C_20
REMARK    8  A    between atoms: C_23  and  O_24
REMARK    9  A    between atoms: C_25  and  O_26
REMARK   10  A    between atoms: O_26  and  C_27
REMARK                            x       y       z     vdW  Elec       q    Type
REMARK                         _______ _______ _______ _____ _____    ______ ____
ROOT
ATOM      1  C   UNL     1       8.561  -0.898  22.938  0.00  0.00    +0.045 C 
ATOM      2  C   UNL     1       8.752   0.132  24.052  0.00  0.00    +0.109 C 
ATOM      3  C   UNL     1       9.909   0.962  23.573  0.00  0.00    +0.311 C 
ATOM      4  O   UNL     1      10.485   1.824  24.222  0.00  0.00    -0.251 OA
ATOM      5  O   UNL     1      10.193   0.677  22.273  0.00  0.00    -0.464 OA
ATOM      6  C   UNL     1       9.211  -0.215  21.747  0.00  0.00    +0.236 C 
ENDROOT
BRANCH   1   7
ATOM      7  C   UNL     1       7.077  -1.253  22.682  0.00  0.00    +0.043 C 
BRANCH   7   8
ATOM      8  C   UNL     1       6.701  -2.725  22.704  0.00  0.00    -0.043 A 
ATOM      9  C   UNL     1       5.346  -3.092  22.866  0.00  0.00    +0.053 A 
ATOM     10  C   UNL     1       4.947  -4.437  22.853  0.00  0.00    +0.162 A 
ATOM     11  C   UNL     1       5.924  -5.421  22.665  0.00  0.00    +0.158 A 
ATOM     12  C   UNL     1       7.271  -5.085  22.571  0.00  0.00    +0.049 A 
ATOM     13  C   UNL     1       7.659  -3.743  22.609  0.00  0.00    +0.007 A 
BRANCH  10  14
ATOM     14  O   UNL     1       3.663  -4.891  22.985  0.00  0.00    -0.491 OA
ATOM     15  C   UNL     1       3.079  -4.880  24.278  0.00  0.00    +0.277 C 
ENDBRANCH  10  14
BRANCH  11  16
ATOM     16  O   UNL     1       5.545  -6.734  22.574  0.00  0.00    -0.503 OA
ATOM     17  H   UNL     1       4.683  -6.775  22.131  0.00  0.00    +0.292 HD
ENDBRANCH  11  16
ENDBRANCH   7   8
ENDBRANCH   1   7
BRANCH   2  18
ATOM     18  C   UNL     1       8.971  -0.417  25.468  0.00  0.00    +0.050 C 
BRANCH  18  19
ATOM     19  C   UNL     1       8.138  -1.597  25.926  0.00  0.00    -0.043 A 
ATOM     20  C   UNL     1       8.693  -2.888  25.970  0.00  0.00    +0.053 A 
ATOM     21  C   UNL     1       7.907  -4.004  26.280  0.00  0.00    +0.162 A 
ATOM     22  C   UNL     1       6.544  -3.817  26.546  0.00  0.00    +0.158 A 
ATOM     23  C   UNL     1       5.982  -2.542  26.542  0.00  0.00    +0.049 A 
ATOM     24  C   UNL     1       6.780  -1.437  26.236  0.00  0.00    +0.007 A 
BRANCH  21  25
ATOM     25  O   UNL     1       8.357  -5.298  26.323  0.00  0.00    -0.491 OA
ATOM     26  C   UNL     1       9.443  -5.641  25.478  0.00  0.00    +0.277 C 
ENDBRANCH  21  25
BRANCH  22  27
ATOM     27  O   UNL     1       5.752  -4.907  26.793  0.00  0.00    -0.503 OA
ATOM     28  H   UNL     1       6.134  -5.409  27.530  0.00  0.00    +0.292 HD
ENDBRANCH  22  27
ENDBRANCH  18  19
ENDBRANCH   2  18
TORSDOF 8
ENDMDL
MODEL 5
REMARK VINA RESULT:      -6.2      2.351      5.807
REMARK  Name = 
REMARK  10 active torsions:
REMARK  status: ('A' for Active; 'I' for Inactive)
REMARK    1  A    between atoms: C_2  and  C_3
REMARK    2  A    between atoms: C_3  and  C_4
REMARK    3  A    between atoms: C_7  and  O_8
REMARK    4  A    between atoms: C_9  and  O_10
REMARK    5  A    between atoms: O_10  and  C_11
REMARK    6  A    between atoms: C_17  and  C_19
REMARK    7  A    between atoms: C_19  and  C_20
REMARK    8  A    between atoms: C_23  and  O_24
REMARK    9  A    between atoms: C_25  and  O_26
REMARK   10  A    between atoms: O_26  and  C_27
REMARK                            x       y       z     vdW  Elec       q    Type
REMARK                         _______ _______ _______ _____ _____    ______ ____
ROOT
ATOM      1  C   UNL     1       8.384  -3.383  26.031  0.00  0.00    +0.045 C 
ATOM      2  C   UNL     1       8.718  -2.391  24.915  0.00  0.00    +0.109 C 
ATOM      3  C   UNL     1       9.827  -3.067  24.160  0.00  0.00    +0.311 C 
ATOM      4  O   UNL     1      10.488  -2.564  23.262  0.00  0.00    -0.251 OA
ATOM      5  O   UNL     1       9.957  -4.361  24.562  0.00  0.00    -0.464 OA
ATOM      6  C   UNL     1       8.906  -4.694  25.469  0.00  0.00    +0.236 C 
ENDROOT
BRANCH   1   7
ATOM      7  C   UNL     1       6.874  -3.440  26.366  0.00  0.00    +0.043 C 
BRANCH   7   8
ATOM      8  C   UNL     1       6.065  -4.559  25.734  0.00  0.00    -0.043 A 
ATOM      9  C   UNL     1       5.803  -4.526  24.346  0.00  0.00    +0.053 A 
ATOM     10  C   UNL     1       5.094  -5.556  23.711  0.00  0.00    +0.162 A 
ATOM     11  C   UNL     1       4.652  -6.637  24.484  0.00  0.00    +0.158 A 
ATOM     12  C   UNL     1       4.840  -6.656  25.863  0.00  0.00    +0.049 A 
ATOM     13  C   UNL     1       5.528  -5.611  26.487  0.00  0.00    +0.007 A 
BRANCH  10  14
ATOM     14  O   UNL     1       4.805  -5.624  22.375  0.00  0.00    -0.491 OA
ATOM     15  C   UNL     1       5.887  -5.700  21.459  0.00  0.00    +0.277 C 
ENDBRANCH  10  14
BRANCH  11  16
ATOM     16  O   UNL     1       4.023  -7.687  23.871  0.00  0.00    -0.503 OA
ATOM     17  H   UNL     1       3.187  -7.857  24.333  0.00  0.00    +0.292 HD
ENDBRANCH  11  16
ENDBRANCH   7   8
ENDBRANCH   1   7
BRANCH   2  18
ATOM     18  C   UNL     1       9.086  -0.967  25.348  0.00  0.00    +0.050 C 
BRANCH  18  19
ATOM     19  C   UNL     1       8.878   0.168  24.365  0.00  0.00    -0.043 A 
ATOM     20  C   UNL     1       9.595   1.370  24.500  0.00  0.00    +0.053 A 
ATOM     21  C   UNL     1       9.331   2.467  23.672  0.00  0.00    +0.162 A 
ATOM     22  C   UNL     1       8.330   2.354  22.698  0.00  0.00    +0.158 A 
ATOM     23  C   UNL     1       7.632   1.160  22.525  0.00  0.00    +0.049 A 
ATOM     24  C   UNL     1       7.909   0.072  23.356  0.00  0.00    +0.007 A 
BRANCH  21  25
ATOM     25  O   UNL     1       9.964   3.681  23.747  0.00  0.00    -0.491 OA
ATOM     26  C   UNL     1      11.340   3.723  23.406  0.00  0.00    +0.277 C 
ENDBRANCH  21  25
BRANCH  22  27
ATOM     27  O   UNL     1       8.023   3.439  21.921  0.00  0.00    -0.503 OA
ATOM     28  H   UNL     1       7.750   4.169  22.497  0.00  0.00    +0.292 HD
ENDBRANCH  22  27
ENDBRANCH  18  19
ENDBRANCH   2  18
TORSDOF 8
ENDMDL
MODEL 6
REMARK VINA RESULT:      -6.2      0.717      3.616
REMARK  Name = 
REMARK  10 active torsions:
REMARK  status: ('A' for Active; 'I' for Inactive)
REMARK    1  A    between atoms: C_2  and  C_3
REMARK    2  A    between atoms: C_3  and  C_4
REMARK    3  A    between atoms: C_7  and  O_8
REMARK    4  A    between atoms: C_9  and  O_10
REMARK    5  A    between atoms: O_10  and  C_11
REMARK    6  A    between atoms: C_17  and  C_19
REMARK    7  A    between atoms: C_19  and  C_20
REMARK    8  A    between atoms: C_23  and  O_24
REMARK    9  A    between atoms: C_25  and  O_26
REMARK   10  A    between atoms: O_26  and  C_27
REMARK                            x       y       z     vdW  Elec       q    Type
REMARK                         _______ _______ _______ _____ _____    ______ ____
ROOT
ATOM      1  C   UNL     1       8.614  -1.962  23.475  0.00  0.00    +0.045 C 
ATOM      2  C   UNL     1       8.797  -0.902  24.564  0.00  0.00    +0.109 C 
ATOM      3  C   UNL     1      10.136  -0.298  24.250  0.00  0.00    +0.311 C 
ATOM      4  O   UNL     1      10.739   0.503  24.950  0.00  0.00    -0.251 OA
ATOM      5  O   UNL     1      10.569  -0.710  23.027  0.00  0.00    -0.464 OA
ATOM      6  C   UNL     1       9.547  -1.470  22.381  0.00  0.00    +0.236 C 
ENDROOT
BRANCH   1   7
ATOM      7  C   UNL     1       7.150  -2.095  22.992  0.00  0.00    +0.043 C 
BRANCH   7   8
ATOM      8  C   UNL     1       6.487  -3.451  23.153  0.00  0.00    -0.043 A 
ATOM      9  C   UNL     1       5.108  -3.517  23.457  0.00  0.00    +0.053 A 
ATOM     10  C   UNL     1       4.443  -4.746  23.577  0.00  0.00    +0.162 A 
ATOM     11  C   UNL     1       5.176  -5.923  23.378  0.00  0.00    +0.158 A 
ATOM     12  C   UNL     1       6.547  -5.883  23.145  0.00  0.00    +0.049 A 
ATOM     13  C   UNL     1       7.203  -4.651  23.052  0.00  0.00    +0.007 A 
BRANCH  10  14
ATOM     14  O   UNL     1       3.114  -4.914  23.852  0.00  0.00    -0.491 OA
ATOM     15  C   UNL     1       2.517  -4.060  24.816  0.00  0.00    +0.277 C 
ENDBRANCH  10  14
BRANCH  11  16
ATOM     16  O   UNL     1       4.530  -7.130  23.417  0.00  0.00    -0.503 OA
ATOM     17  H   UNL     1       4.532  -7.508  22.523  0.00  0.00    +0.292 HD
ENDBRANCH  11  16
ENDBRANCH   7   8
ENDBRANCH   1   7
BRANCH   2  18
ATOM     18  C   UNL     1       8.697  -1.383  26.016  0.00  0.00    +0.050 C 
BRANCH  18  19
ATOM     19  C   UNL     1       8.055  -2.728  26.294  0.00  0.00    -0.043 A 
ATOM     20  C   UNL     1       6.702  -2.809  26.668  0.00  0.00    +0.053 A 
ATOM     21  C   UNL     1       6.125  -4.029  27.039  0.00  0.00    +0.162 A 
ATOM     22  C   UNL     1       6.922  -5.182  27.036  0.00  0.00    +0.158 A 
ATOM     23  C   UNL     1       8.256  -5.129  26.635  0.00  0.00    +0.049 A 
ATOM     24  C   UNL     1       8.817  -3.905  26.263  0.00  0.00    +0.007 A 
BRANCH  21  25
ATOM     25  O   UNL     1       4.825  -4.198  27.437  0.00  0.00    -0.491 OA
ATOM     26  C   UNL     1       4.304  -3.271  28.376  0.00  0.00    +0.277 C 
ENDBRANCH  21  25
BRANCH  22  27
ATOM     27  O   UNL     1       6.385  -6.371  27.452  0.00  0.00    -0.503 OA
ATOM     28  H   UNL     1       6.404  -6.400  28.421  0.00  0.00    +0.292 HD
ENDBRANCH  22  27
ENDBRANCH  18  19
ENDBRANCH   2  18
TORSDOF 8
ENDMDL
MODEL 7
REMARK VINA RESULT:      -6.1      2.855      6.194
REMARK  Name = 
REMARK  10 active torsions:
REMARK  status: ('A' for Active; 'I' for Inactive)
REMARK    1  A    between atoms: C_2  and  C_3
REMARK    2  A    between atoms: C_3  and  C_4
REMARK    3  A    between atoms: C_7  and  O_8
REMARK    4  A    between atoms: C_9  and  O_10
REMARK    5  A    between atoms: O_10  and  C_11
REMARK    6  A    between atoms: C_17  and  C_19
REMARK    7  A    between atoms: C_19  and  C_20
REMARK    8  A    between atoms: C_23  and  O_24
REMARK    9  A    between atoms: C_25  and  O_26
REMARK   10  A    between atoms: O_26  and  C_27
REMARK                            x       y       z     vdW  Elec       q    Type
REMARK                         _______ _______ _______ _____ _____    ______ ____
ROOT
ATOM      1  C   UNL     1       7.050  -3.048  24.817  0.00  0.00    +0.045 C 
ATOM      2  C   UNL     1       8.312  -3.546  24.109  0.00  0.00    +0.109 C 
ATOM      3  C   UNL     1       8.460  -4.958  24.602  0.00  0.00    +0.311 C 
ATOM      4  O   UNL     1       9.417  -5.690  24.391  0.00  0.00    -0.251 OA
ATOM      5  O   UNL     1       7.339  -5.351  25.266  0.00  0.00    -0.464 OA
ATOM      6  C   UNL     1       6.333  -4.344  25.157  0.00  0.00    +0.236 C 
ENDROOT
BRANCH   1   7
ATOM      7  C   UNL     1       6.190  -2.106  23.942  0.00  0.00    +0.043 C 
BRANCH   7   8
ATOM      8  C   UNL     1       6.123  -0.645  24.352  0.00  0.00    -0.043 A 
ATOM      9  C   UNL     1       5.666  -0.309  25.646  0.00  0.00    +0.053 A 
ATOM     10  C   UNL     1       5.624   1.023  26.084  0.00  0.00    +0.162 A 
ATOM     11  C   UNL     1       6.058   2.027  25.209  0.00  0.00    +0.158 A 
ATOM     12  C   UNL     1       6.448   1.724  23.908  0.00  0.00    +0.049 A 
ATOM     13  C   UNL     1       6.463   0.394  23.476  0.00  0.00    +0.007 A 
BRANCH  10  14
ATOM     14  O   UNL     1       5.214   1.447  27.319  0.00  0.00    -0.491 OA
ATOM     15  C   UNL     1       5.684   0.744  28.458  0.00  0.00    +0.277 C 
ENDBRANCH  10  14
BRANCH  11  16
ATOM     16  O   UNL     1       6.095   3.325  25.644  0.00  0.00    -0.503 OA
ATOM     17  H   UNL     1       5.190   3.603  25.857  0.00  0.00    +0.292 HD
ENDBRANCH  11  16
ENDBRANCH   7   8
ENDBRANCH   1   7
BRANCH   2  18
ATOM     18  C   UNL     1       9.587  -2.718  24.312  0.00  0.00    +0.050 C 
BRANCH  18  19
ATOM     19  C   UNL     1       9.766  -1.452  23.499  0.00  0.00    -0.043 A 
ATOM     20  C   UNL     1      10.184  -0.260  24.118  0.00  0.00    +0.053 A 
ATOM     21  C   UNL     1      10.244   0.944  23.406  0.00  0.00    +0.162 A 
ATOM     22  C   UNL     1       9.875   0.947  22.054  0.00  0.00    +0.158 A 
ATOM     23  C   UNL     1       9.493  -0.229  21.413  0.00  0.00    +0.049 A 
ATOM     24  C   UNL     1       9.442  -1.424  22.135  0.00  0.00    +0.007 A 
BRANCH  21  25
ATOM     25  O   UNL     1      10.616   2.153  23.931  0.00  0.00    -0.491 OA
ATOM     26  C   UNL     1       9.583   3.021  24.371  0.00  0.00    +0.277 C 
ENDBRANCH  21  25
BRANCH  22  27
ATOM     27  O   UNL     1       9.875   2.129  21.361  0.00  0.00    -0.503 OA
ATOM     28  H   UNL     1      10.732   2.563  21.484  0.00  0.00    +0.292 HD
ENDBRANCH  22  27
ENDBRANCH  18  19
ENDBRANCH   2  18
TORSDOF 8
ENDMDL
MODEL 8
REMARK VINA RESULT:      -6.1      3.103      5.941
REMARK  Name = 
REMARK  10 active torsions:
REMARK  status: ('A' for Active; 'I' for Inactive)
REMARK    1  A    between atoms: C_2  and  C_3
REMARK    2  A    between atoms: C_3  and  C_4
REMARK    3  A    between atoms: C_7  and  O_8
REMARK    4  A    between atoms: C_9  and  O_10
REMARK    5  A    between atoms: O_10  and  C_11
REMARK    6  A    between atoms: C_17  and  C_19
REMARK    7  A    between atoms: C_19  and  C_20
REMARK    8  A    between atoms: C_23  and  O_24
REMARK    9  A    between atoms: C_25  and  O_26
REMARK   10  A    between atoms: O_26  and  C_27
REMARK                            x       y       z     vdW  Elec       q    Type
REMARK                         _______ _______ _______ _____ _____    ______ ____
ROOT
ATOM      1  C   UNL     1       8.999  -0.832  22.233  0.00  0.00    +0.045 C 
ATOM      2  C   UNL     1       8.451  -0.577  23.638  0.00  0.00    +0.109 C 
ATOM      3  C   UNL     1       9.109  -1.639  24.473  0.00  0.00    +0.311 C 
ATOM      4  O   UNL     1       8.851  -1.888  25.643  0.00  0.00    -0.251 OA
ATOM      5  O   UNL     1      10.099  -2.253  23.769  0.00  0.00    -0.464 OA
ATOM      6  C   UNL     1      10.283  -1.594  22.516  0.00  0.00    +0.236 C 
ENDROOT
BRANCH   1   7
ATOM      7  C   UNL     1       9.245   0.466  21.428  0.00  0.00    +0.043 C 
BRANCH   7   8
ATOM      8  C   UNL     1       9.366   1.759  22.216  0.00  0.00    -0.043 A 
ATOM      9  C   UNL     1       8.275   2.657  22.245  0.00  0.00    +0.053 A 
ATOM     10  C   UNL     1       8.326   3.844  22.991  0.00  0.00    +0.162 A 
ATOM     11  C   UNL     1       9.487   4.124  23.722  0.00  0.00    +0.158 A 
ATOM     12  C   UNL     1      10.596   3.287  23.653  0.00  0.00    +0.049 A 
ATOM     13  C   UNL     1      10.542   2.119  22.887  0.00  0.00    +0.007 A 
BRANCH  10  14
ATOM     14  O   UNL     1       7.321   4.767  23.096  0.00  0.00    -0.491 OA
ATOM     15  C   UNL     1       7.173   5.717  22.052  0.00  0.00    +0.277 C 
ENDBRANCH  10  14
BRANCH  11  16
ATOM     16  O   UNL     1       9.527   5.240  24.515  0.00  0.00    -0.503 OA
ATOM     17  H   UNL     1       8.647   5.649  24.515  0.00  0.00    +0.292 HD
ENDBRANCH  11  16
ENDBRANCH   7   8
ENDBRANCH   1   7
BRANCH   2  18
ATOM     18  C   UNL     1       6.925  -0.573  23.791  0.00  0.00    +0.050 C 
BRANCH  18  19
ATOM     19  C   UNL     1       6.174  -1.877  23.616  0.00  0.00    -0.043 A 
ATOM     20  C   UNL     1       6.344  -2.649  22.452  0.00  0.00    +0.053 A 
ATOM     21  C   UNL     1       5.573  -3.794  22.223  0.00  0.00    +0.162 A 
ATOM     22  C   UNL     1       4.616  -4.166  23.177  0.00  0.00    +0.158 A 
ATOM     23  C   UNL     1       4.457  -3.436  24.354  0.00  0.00    +0.049 A 
ATOM     24  C   UNL     1       5.237  -2.298  24.570  0.00  0.00    +0.007 A 
BRANCH  21  25
ATOM     25  O   UNL     1       5.654  -4.590  21.111  0.00  0.00    -0.491 OA
ATOM     26  C   UNL     1       6.596  -5.651  21.134  0.00  0.00    +0.277 C 
ENDBRANCH  21  25
BRANCH  22  27
ATOM     27  O   UNL     1       3.816  -5.252  22.939  0.00  0.00    -0.503 OA
ATOM     28  H   UNL     1       3.984  -5.571  22.039  0.00  0.00    +0.292 HD
ENDBRANCH  22  27
ENDBRANCH  18  19
ENDBRANCH   2  18
TORSDOF 8
ENDMDL
MODEL 9
REMARK VINA RESULT:      -6.0      1.892      6.207
REMARK  Name = 
REMARK  10 active torsions:
REMARK  status: ('A' for Active; 'I' for Inactive)
REMARK    1  A    between atoms: C_2  and  C_3
REMARK    2  A    between atoms: C_3  and  C_4
REMARK    3  A    between atoms: C_7  and  O_8
REMARK    4  A    between atoms: C_9  and  O_10
REMARK    5  A    between atoms: O_10  and  C_11
REMARK    6  A    between atoms: C_17  and  C_19
REMARK    7  A    between atoms: C_19  and  C_20
REMARK    8  A    between atoms: C_23  and  O_24
REMARK    9  A    between atoms: C_25  and  O_26
REMARK   10  A    between atoms: O_26  and  C_27
REMARK                            x       y       z     vdW  Elec       q    Type
REMARK                         _______ _______ _______ _____ _____    ______ ____
ROOT
ATOM      1  C   UNL     1       3.676  -4.873  27.011  0.00  0.00    +0.045 C 
ATOM      2  C   UNL     1       5.065  -5.505  27.116  0.00  0.00    +0.109 C 
ATOM      3  C   UNL     1       4.841  -6.713  27.980  0.00  0.00    +0.311 C 
ATOM      4  O   UNL     1       5.715  -7.440  28.432  0.00  0.00    -0.251 OA
ATOM      5  O   UNL     1       3.508  -6.943  28.141  0.00  0.00    -0.464 OA
ATOM      6  C   UNL     1       2.760  -6.044  27.322  0.00  0.00    +0.236 C 
ENDROOT
BRANCH   1   7
ATOM      7  C   UNL     1       3.392  -4.249  25.624  0.00  0.00    +0.043 C 
BRANCH   7   8
ATOM      8  C   UNL     1       4.366  -4.572  24.505  0.00  0.00    -0.043 A 
ATOM      9  C   UNL     1       5.104  -3.527  23.904  0.00  0.00    +0.053 A 
ATOM     10  C   UNL     1       6.044  -3.781  22.895  0.00  0.00    +0.162 A 
ATOM     11  C   UNL     1       6.248  -5.107  22.493  0.00  0.00    +0.158 A 
ATOM     12  C   UNL     1       5.484  -6.143  23.022  0.00  0.00    +0.049 A 
ATOM     13  C   UNL     1       4.534  -5.872  24.012  0.00  0.00    +0.007 A 
BRANCH  10  14
ATOM     14  O   UNL     1       6.816  -2.844  22.265  0.00  0.00    -0.491 OA
ATOM     15  C   UNL     1       6.808  -1.519  22.774  0.00  0.00    +0.277 C 
ENDBRANCH  10  14
BRANCH  11  16
ATOM     16  O   UNL     1       7.213  -5.384  21.562  0.00  0.00    -0.503 OA
ATOM     17  H   UNL     1       7.383  -6.340  21.570  0.00  0.00    +0.292 HD
ENDBRANCH  11  16
ENDBRANCH   7   8
ENDBRANCH   1   7
BRANCH   2  18
ATOM     18  C   UNL     1       6.192  -4.608  27.644  0.00  0.00    +0.050 C 
BRANCH  18  19
ATOM     19  C   UNL     1       7.329  -4.245  26.712  0.00  0.00    -0.043 A 
ATOM     20  C   UNL     1       7.744  -2.908  26.578  0.00  0.00    +0.053 A 
ATOM     21  C   UNL     1       8.714  -2.541  25.638  0.00  0.00    +0.162 A 
ATOM     22  C   UNL     1       9.269  -3.532  24.818  0.00  0.00    +0.158 A 
ATOM     23  C   UNL     1       8.898  -4.868  24.959  0.00  0.00    +0.049 A 
ATOM     24  C   UNL     1       7.933  -5.220  25.905  0.00  0.00    +0.007 A 
BRANCH  21  25
ATOM     25  O   UNL     1       9.161  -1.263  25.424  0.00  0.00    -0.491 OA
ATOM     26  C   UNL     1       8.338  -0.199  25.875  0.00  0.00    +0.277 C 
ENDBRANCH  21  25
BRANCH  22  27
ATOM     27  O   UNL     1      10.177  -3.177  23.855  0.00  0.00    -0.503 OA
ATOM     28  H   UNL     1       9.740  -2.596  23.215  0.00  0.00    +0.292 HD
ENDBRANCH  22  27
ENDBRANCH  18  19
ENDBRANCH   2  18
TORSDOF 8
ENDMDL
