MODEL 1
REMARK VINA RESULT:      -6.7      0.000      0.000
REMARK  Name = 
REMARK  8 active torsions:
REMARK  status: ('A' for Active; 'I' for Inactive)
REMARK    1  A    between atoms: C_2  and  O_3
REMARK    2  A    between atoms: C_2  and  C_4
REMARK    3  A    between atoms: C_2  and  N_9
REMARK    4  A    between atoms: C_4  and  C_5
REMARK    5  A    between atoms: C_5  and  C_6
REMARK    6  A    between atoms: C_6  and  O_7
REMARK    7  A    between atoms: N_9  and  C_10
REMARK    8  A    between atoms: C_13  and  N_16
REMARK                            x       y       z     vdW  Elec       q    Type
REMARK                         _______ _______ _______ _____ _____    ______ ____
ROOT
ATOM      1  C   UNL     1       9.903  -0.467  22.928  0.00  0.00    +0.029 A 
ATOM      2  C   UNL     1       9.809   0.450  21.881  0.00  0.00    +0.025 A 
ATOM      3  C   UNL     1       9.973   1.828  22.090  0.00  0.00    +0.026 A 
ATOM      4  C   UNL     1      10.269   2.350  23.354  0.00  0.00    +0.044 A 
ATOM      5  C   UNL     1      10.482   1.412  24.375  0.00  0.00    +0.026 A 
ATOM      6  C   UNL     1      10.309   0.031  24.164  0.00  0.00    +0.025 A 
ENDROOT
BRANCH   4   7
ATOM      7  N   UNL     1      10.242   3.758  23.614  0.00  0.00    -0.210 N 
ATOM      8  C   UNL     1      11.326   4.605  23.506  0.00  0.00    +0.227 C 
ATOM      9  O   UNL     1      12.512   4.346  23.359  0.00  0.00    -0.275 OA
ATOM     10  C   UNL     1      10.861   6.024  23.659  0.00  0.00    +0.106 C 
ATOM     11  C   UNL     1       9.361   5.917  23.662  0.00  0.00    +0.106 C 
ATOM     12  C   UNL     1       9.113   4.471  23.959  0.00  0.00    +0.227 C 
ATOM     13  O   UNL     1       8.045   4.082  24.409  0.00  0.00    -0.275 OA
ENDBRANCH   4   7
BRANCH   1  14
ATOM     14  N   UNL     1       9.686  -1.816  22.655  0.00  0.00    -0.319 N 
ATOM     15  H   UNL     1       9.635  -1.998  21.658  0.00  0.00    +0.148 HD
BRANCH  14  16
ATOM     16  C   UNL     1       8.744  -2.602  23.423  0.00  0.00    +0.200 C 
BRANCH  16  17
ATOM     17  O   UNL     1       8.007  -3.421  22.537  0.00  0.00    -0.374 OA
ATOM     18  H   UNL     1       7.674  -4.150  23.082  0.00  0.00    +0.212 HD
ENDBRANCH  16  17
BRANCH  16  19
ATOM     19  C   UNL     1       9.496  -3.515  24.389  0.00  0.00    +0.062 C 
BRANCH  19  20
ATOM     20  C   UNL     1       8.729  -3.769  25.682  0.00  0.00    +0.124 C 
BRANCH  20  21
ATOM     21  C   UNL     1       8.645  -5.247  25.980  0.00  0.00    +0.305 C 
ATOM     22  O   UNL     1       7.725  -5.796  26.563  0.00  0.00    -0.251 OA
BRANCH  21  23
ATOM     23  O   UNL     1       9.716  -5.926  25.517  0.00  0.00    -0.481 OA
ATOM     24  H   UNL     1       9.781  -6.840  25.853  0.00  0.00    +0.295 HD
ENDBRANCH  21  23
ENDBRANCH  20  21
ENDBRANCH  19  20
ENDBRANCH  16  19
ENDBRANCH  14  16
ENDBRANCH   1  14
TORSDOF 8
ENDMDL
MODEL 2
REMARK VINA RESULT:      -6.7      0.506      1.719
REMARK  Name = 
REMARK  8 active torsions:
REMARK  status: ('A' for Active; 'I' for Inactive)
REMARK    1  A    between atoms: C_2  and  O_3
REMARK    2  A    between atoms: C_2  and  C_4
REMARK    3  A    between atoms: C_2  and  N_9
REMARK    4  A    between atoms: C_4  and  C_5
REMARK    5  A    between atoms: C_5  and  C_6
REMARK    6  A    between atoms: C_6  and  O_7
REMARK    7  A    between atoms: N_9  and  C_10
REMARK    8  A    between atoms: C_13  and  N_16
REMARK                            x       y       z     vdW  Elec       q    Type
REMARK                         _______ _______ _______ _____ _____    ______ ____
ROOT
ATOM      1  C   UNL     1      10.087  -0.301  22.952  0.00  0.00    +0.029 A 
ATOM      2  C   UNL     1       9.903   0.579  21.885  0.00  0.00    +0.025 A 
ATOM      3  C   UNL     1      10.057   1.966  22.037  0.00  0.00    +0.026 A 
ATOM      4  C   UNL     1      10.433   2.533  23.259  0.00  0.00    +0.044 A 
ATOM      5  C   UNL     1      10.734   1.634  24.293  0.00  0.00    +0.026 A 
ATOM      6  C   UNL     1      10.571   0.244  24.139  0.00  0.00    +0.025 A 
ENDROOT
BRANCH   4   7
ATOM      7  N   UNL     1      10.400   3.950  23.475  0.00  0.00    -0.210 N 
ATOM      8  C   UNL     1       9.259   4.688  23.717  0.00  0.00    +0.227 C 
ATOM      9  O   UNL     1       8.083   4.367  23.626  0.00  0.00    -0.275 OA
ATOM     10  C   UNL     1       9.649   6.089  24.089  0.00  0.00    +0.106 C 
ATOM     11  C   UNL     1      11.144   6.024  24.236  0.00  0.00    +0.106 C 
ATOM     12  C   UNL     1      11.512   4.763  23.520  0.00  0.00    +0.227 C 
ATOM     13  O   UNL     1      12.645   4.568  23.103  0.00  0.00    -0.275 OA
ENDBRANCH   4   7
BRANCH   1  14
ATOM     14  N   UNL     1       9.874  -1.661  22.739  0.00  0.00    -0.319 N 
ATOM     15  H   UNL     1      10.030  -1.923  21.771  0.00  0.00    +0.148 HD
BRANCH  14  16
ATOM     16  C   UNL     1       8.756  -2.356  23.341  0.00  0.00    +0.200 C 
BRANCH  16  17
ATOM     17  O   UNL     1       8.065  -3.065  22.331  0.00  0.00    -0.374 OA
ATOM     18  H   UNL     1       7.942  -3.959  22.685  0.00  0.00    +0.212 HD
ENDBRANCH  16  17
BRANCH  16  19
ATOM     19  C   UNL     1       9.265  -3.372  24.360  0.00  0.00    +0.062 C 
BRANCH  19  20
ATOM     20  C   UNL     1       8.412  -4.636  24.414  0.00  0.00    +0.124 C 
BRANCH  20  21
ATOM     21  C   UNL     1       8.728  -5.452  25.643  0.00  0.00    +0.305 C 
ATOM     22  O   UNL     1       7.925  -5.767  26.505  0.00  0.00    -0.251 OA
BRANCH  21  23
ATOM     23  O   UNL     1      10.027  -5.821  25.694  0.00  0.00    -0.481 OA
ATOM     24  H   UNL     1      10.419  -5.764  26.586  0.00  0.00    +0.295 HD
ENDBRANCH  21  23
ENDBRANCH  20  21
ENDBRANCH  19  20
ENDBRANCH  16  19
ENDBRANCH  14  16
ENDBRANCH   1  14
TORSDOF 8
ENDMDL
MODEL 3
REMARK VINA RESULT:      -6.6      2.036      8.070
REMARK  Name = 
REMARK  8 active torsions:
REMARK  status: ('A' for Active; 'I' for Inactive)
REMARK    1  A    between atoms: C_2  and  O_3
REMARK    2  A    between atoms: C_2  and  C_4
REMARK    3  A    between atoms: C_2  and  N_9
REMARK    4  A    between atoms: C_4  and  C_5
REMARK    5  A    between atoms: C_5  and  C_6
REMARK    6  A    between atoms: C_6  and  O_7
REMARK    7  A    between atoms: N_9  and  C_10
REMARK    8  A    between atoms: C_13  and  N_16
REMARK                            x       y       z     vdW  Elec       q    Type
REMARK                         _______ _______ _______ _____ _____    ______ ____
ROOT
ATOM      1  C   UNL     1       8.876   1.193  22.429  0.00  0.00    +0.029 A 
ATOM      2  C   UNL     1       9.571   0.172  21.779  0.00  0.00    +0.025 A 
ATOM      3  C   UNL     1       9.144  -1.164  21.836  0.00  0.00    +0.026 A 
ATOM      4  C   UNL     1       7.984  -1.535  22.525  0.00  0.00    +0.044 A 
ATOM      5  C   UNL     1       7.227  -0.489  23.072  0.00  0.00    +0.026 A 
ATOM      6  C   UNL     1       7.662   0.849  23.019  0.00  0.00    +0.025 A 
ENDROOT
BRANCH   4   7
ATOM      7  N   UNL     1       7.651  -2.910  22.754  0.00  0.00    -0.210 N 
ATOM      8  C   UNL     1       8.359  -3.772  23.566  0.00  0.00    +0.227 C 
ATOM      9  O   UNL     1       9.456  -3.633  24.091  0.00  0.00    -0.275 OA
ATOM     10  C   UNL     1       7.594  -5.055  23.711  0.00  0.00    +0.106 C 
ATOM     11  C   UNL     1       6.269  -4.763  23.062  0.00  0.00    +0.106 C 
ATOM     12  C   UNL     1       6.545  -3.548  22.233  0.00  0.00    +0.227 C 
ATOM     13  O   UNL     1       5.835  -3.241  21.286  0.00  0.00    -0.275 OA
ENDBRANCH   4   7
BRANCH   1  14
ATOM     14  N   UNL     1       9.382   2.490  22.366  0.00  0.00    -0.319 N 
ATOM     15  H   UNL     1       9.929   2.643  21.524  0.00  0.00    +0.148 HD
BRANCH  14  16
ATOM     16  C   UNL     1       9.938   3.144  23.530  0.00  0.00    +0.200 C 
BRANCH  16  17
ATOM     17  O   UNL     1       9.821   2.274  24.639  0.00  0.00    -0.374 OA
ATOM     18  H   UNL     1      10.566   2.498  25.218  0.00  0.00    +0.212 HD
ENDBRANCH  16  17
BRANCH  16  19
ATOM     19  C   UNL     1      11.423   3.423  23.309  0.00  0.00    +0.062 C 
BRANCH  19  20
ATOM     20  C   UNL     1      11.771   4.903  23.430  0.00  0.00    +0.124 C 
BRANCH  20  21
ATOM     21  C   UNL     1      13.036   5.226  22.672  0.00  0.00    +0.305 C 
ATOM     22  O   UNL     1      13.081   5.714  21.555  0.00  0.00    -0.251 OA
BRANCH  21  23
ATOM     23  O   UNL     1      14.148   4.923  23.376  0.00  0.00    -0.481 OA
ATOM     24  H   UNL     1      13.978   4.387  24.173  0.00  0.00    +0.295 HD
ENDBRANCH  21  23
ENDBRANCH  20  21
ENDBRANCH  19  20
ENDBRANCH  16  19
ENDBRANCH  14  16
ENDBRANCH   1  14
TORSDOF 8
ENDMDL
MODEL 4
REMARK VINA RESULT:      -6.4      2.115      8.135
REMARK  Name = 
REMARK  8 active torsions:
REMARK  status: ('A' for Active; 'I' for Inactive)
REMARK    1  A    between atoms: C_2  and  O_3
REMARK    2  A    between atoms: C_2  and  C_4
REMARK    3  A    between atoms: C_2  and  N_9
REMARK    4  A    between atoms: C_4  and  C_5
REMARK    5  A    between atoms: C_5  and  C_6
REMARK    6  A    between atoms: C_6  and  O_7
REMARK    7  A    between atoms: N_9  and  C_10
REMARK    8  A    between atoms: C_13  and  N_16
REMARK                            x       y       z     vdW  Elec       q    Type
REMARK                         _______ _______ _______ _____ _____    ______ ____
ROOT
ATOM      1  C   UNL     1       8.859   1.096  22.311  0.00  0.00    +0.029 A 
ATOM      2  C   UNL     1       9.537   0.064  21.661  0.00  0.00    +0.025 A 
ATOM      3  C   UNL     1       9.119  -1.272  21.761  0.00  0.00    +0.026 A 
ATOM      4  C   UNL     1       7.984  -1.634  22.494  0.00  0.00    +0.044 A 
ATOM      5  C   UNL     1       7.239  -0.578  23.042  0.00  0.00    +0.026 A 
ATOM      6  C   UNL     1       7.665   0.759  22.946  0.00  0.00    +0.025 A 
ENDROOT
BRANCH   4   7
ATOM      7  N   UNL     1       7.666  -3.004  22.765  0.00  0.00    -0.210 N 
ATOM      8  C   UNL     1       8.379  -3.832  23.607  0.00  0.00    +0.227 C 
ATOM      9  O   UNL     1       9.470  -3.664  24.134  0.00  0.00    -0.275 OA
ATOM     10  C   UNL     1       7.628  -5.119  23.788  0.00  0.00    +0.106 C 
ATOM     11  C   UNL     1       6.304  -4.863  23.121  0.00  0.00    +0.106 C 
ATOM     12  C   UNL     1       6.571  -3.671  22.257  0.00  0.00    +0.227 C 
ATOM     13  O   UNL     1       5.863  -3.402  21.296  0.00  0.00    -0.275 OA
ENDBRANCH   4   7
BRANCH   1  14
ATOM     14  N   UNL     1       9.355   2.393  22.203  0.00  0.00    -0.319 N 
ATOM     15  H   UNL     1       9.726   2.582  21.276  0.00  0.00    +0.148 HD
BRANCH  14  16
ATOM     16  C   UNL     1      10.139   2.995  23.259  0.00  0.00    +0.200 C 
BRANCH  16  17
ATOM     17  O   UNL     1      11.179   3.756  22.677  0.00  0.00    -0.374 OA
ATOM     18  H   UNL     1      11.068   4.651  23.031  0.00  0.00    +0.212 HD
ENDBRANCH  16  17
BRANCH  16  19
ATOM     19  C   UNL     1       9.266   3.943  24.077  0.00  0.00    +0.062 C 
BRANCH  19  20
ATOM     20  C   UNL     1       8.115   4.534  23.269  0.00  0.00    +0.124 C 
BRANCH  20  21
ATOM     21  C   UNL     1       8.424   5.948  22.840  0.00  0.00    +0.305 C 
ATOM     22  O   UNL     1       9.097   6.744  23.474  0.00  0.00    -0.251 OA
BRANCH  21  23
ATOM     23  O   UNL     1       7.876   6.253  21.644  0.00  0.00    -0.481 OA
ATOM     24  H   UNL     1       7.368   7.086  21.643  0.00  0.00    +0.295 HD
ENDBRANCH  21  23
ENDBRANCH  20  21
ENDBRANCH  19  20
ENDBRANCH  16  19
ENDBRANCH  14  16
ENDBRANCH   1  14
TORSDOF 8
ENDMDL
MODEL 5
REMARK VINA RESULT:      -6.4      2.507      8.450
REMARK  Name = 
REMARK  8 active torsions:
REMARK  status: ('A' for Active; 'I' for Inactive)
REMARK    1  A    between atoms: C_2  and  O_3
REMARK    2  A    between atoms: C_2  and  C_4
REMARK    3  A    between atoms: C_2  and  N_9
REMARK    4  A    between atoms: C_4  and  C_5
REMARK    5  A    between atoms: C_5  and  C_6
REMARK    6  A    between atoms: C_6  and  O_7
REMARK    7  A    between atoms: N_9  and  C_10
REMARK    8  A    between atoms: C_13  and  N_16
REMARK                            x       y       z     vdW  Elec       q    Type
REMARK                         _______ _______ _______ _____ _____    ______ ____
ROOT
ATOM      1  C   UNL     1       8.726   0.087  23.176  0.00  0.00    +0.029 A 
ATOM      2  C   UNL     1       7.681  -0.425  23.946  0.00  0.00    +0.025 A 
ATOM      3  C   UNL     1       7.236  -1.748  23.799  0.00  0.00    +0.026 A 
ATOM      4  C   UNL     1       7.838  -2.629  22.894  0.00  0.00    +0.044 A 
ATOM      5  C   UNL     1       8.964  -2.144  22.213  0.00  0.00    +0.026 A 
ATOM      6  C   UNL     1       9.402  -0.814  22.357  0.00  0.00    +0.025 A 
ENDROOT
BRANCH   4   7
ATOM      7  N   UNL     1       7.268  -3.910  22.597  0.00  0.00    -0.210 N 
ATOM      8  C   UNL     1       6.170  -4.121  21.788  0.00  0.00    +0.227 C 
ATOM      9  O   UNL     1       5.373  -3.318  21.322  0.00  0.00    -0.275 OA
ATOM     10  C   UNL     1       6.002  -5.594  21.558  0.00  0.00    +0.106 C 
ATOM     11  C   UNL     1       7.243  -6.199  22.153  0.00  0.00    +0.106 C 
ATOM     12  C   UNL     1       7.771  -5.115  23.039  0.00  0.00    +0.227 C 
ATOM     13  O   UNL     1       8.537  -5.355  23.962  0.00  0.00    -0.275 OA
ENDBRANCH   4   7
BRANCH   1  14
ATOM     14  N   UNL     1       9.086   1.423  23.344  0.00  0.00    -0.319 N 
ATOM     15  H   UNL     1       8.287   2.044  23.264  0.00  0.00    +0.148 HD
BRANCH  14  16
ATOM     16  C   UNL     1      10.288   1.964  22.748  0.00  0.00    +0.200 C 
BRANCH  16  17
ATOM     17  O   UNL     1      10.000   2.352  21.418  0.00  0.00    -0.374 OA
ATOM     18  H   UNL     1       9.155   1.926  21.206  0.00  0.00    +0.212 HD
ENDBRANCH  16  17
BRANCH  16  19
ATOM     19  C   UNL     1      10.732   3.208  23.513  0.00  0.00    +0.062 C 
BRANCH  19  20
ATOM     20  C   UNL     1       9.564   4.105  23.912  0.00  0.00    +0.124 C 
BRANCH  20  21
ATOM     21  C   UNL     1       9.926   5.563  23.765  0.00  0.00    +0.305 C 
ATOM     22  O   UNL     1      10.761   6.151  24.432  0.00  0.00    -0.251 OA
BRANCH  21  23
ATOM     23  O   UNL     1       9.222   6.172  22.786  0.00  0.00    -0.481 OA
ATOM     24  H   UNL     1       8.258   6.184  22.942  0.00  0.00    +0.295 HD
ENDBRANCH  21  23
ENDBRANCH  20  21
ENDBRANCH  19  20
ENDBRANCH  16  19
ENDBRANCH  14  16
ENDBRANCH   1  14
TORSDOF 8
ENDMDL
MODEL 6
REMARK VINA RESULT:      -6.4      2.508      8.424
REMARK  Name = 
REMARK  8 active torsions:
REMARK  status: ('A' for Active; 'I' for Inactive)
REMARK    1  A    between atoms: C_2  and  O_3
REMARK    2  A    between atoms: C_2  and  C_4
REMARK    3  A    between atoms: C_2  and  N_9
REMARK    4  A    between atoms: C_4  and  C_5
REMARK    5  A    between atoms: C_5  and  C_6
REMARK    6  A    between atoms: C_6  and  O_7
REMARK    7  A    between atoms: N_9  and  C_10
REMARK    8  A    between atoms: C_13  and  N_16
REMARK                            x       y       z     vdW  Elec       q    Type
REMARK                         _______ _______ _______ _____ _____    ______ ____
ROOT
ATOM      1  C   UNL     1       8.398   0.174  23.042  0.00  0.00    +0.029 A 
ATOM      2  C   UNL     1       7.105  -0.232  23.378  0.00  0.00    +0.025 A 
ATOM      3  C   UNL     1       6.701  -1.572  23.271  0.00  0.00    +0.026 A 
ATOM      4  C   UNL     1       7.583  -2.574  22.851  0.00  0.00    +0.044 A 
ATOM      5  C   UNL     1       8.911  -2.178  22.633  0.00  0.00    +0.026 A 
ATOM      6  C   UNL     1       9.311  -0.833  22.733  0.00  0.00    +0.025 A 
ENDROOT
BRANCH   4   7
ATOM      7  N   UNL     1       7.129  -3.900  22.551  0.00  0.00    -0.210 N 
ATOM      8  C   UNL     1       7.611  -5.054  23.134  0.00  0.00    +0.227 C 
ATOM      9  O   UNL     1       8.590  -5.221  23.849  0.00  0.00    -0.275 OA
ATOM     10  C   UNL     1       6.756  -6.213  22.715  0.00  0.00    +0.106 C 
ATOM     11  C   UNL     1       5.604  -5.573  21.990  0.00  0.00    +0.106 C 
ATOM     12  C   UNL     1       6.110  -4.201  21.672  0.00  0.00    +0.227 C 
ATOM     13  O   UNL     1       5.619  -3.526  20.778  0.00  0.00    -0.275 OA
ENDBRANCH   4   7
BRANCH   1  14
ATOM     14  N   UNL     1       8.717   1.527  23.131  0.00  0.00    -0.319 N 
ATOM     15  H   UNL     1       7.991   2.115  22.732  0.00  0.00    +0.148 HD
BRANCH  14  16
ATOM     16  C   UNL     1      10.053   2.010  22.855  0.00  0.00    +0.200 C 
BRANCH  16  17
ATOM     17  O   UNL     1      10.153   2.303  21.475  0.00  0.00    -0.374 OA
ATOM     18  H   UNL     1       9.644   1.609  21.029  0.00  0.00    +0.212 HD
ENDBRANCH  16  17
BRANCH  16  19
ATOM     19  C   UNL     1      10.308   3.301  23.628  0.00  0.00    +0.062 C 
BRANCH  19  20
ATOM     20  C   UNL     1      11.655   3.934  23.296  0.00  0.00    +0.124 C 
BRANCH  20  21
ATOM     21  C   UNL     1      11.672   5.397  23.664  0.00  0.00    +0.305 C 
ATOM     22  O   UNL     1      10.721   6.156  23.574  0.00  0.00    -0.251 OA
BRANCH  21  23
ATOM     23  O   UNL     1      12.876   5.797  24.127  0.00  0.00    -0.481 OA
ATOM     24  H   UNL     1      13.506   5.066  24.272  0.00  0.00    +0.295 HD
ENDBRANCH  21  23
ENDBRANCH  20  21
ENDBRANCH  19  20
ENDBRANCH  16  19
ENDBRANCH  14  16
ENDBRANCH   1  14
TORSDOF 8
ENDMDL
MODEL 7
REMARK VINA RESULT:      -6.4      2.215      8.281
REMARK  Name = 
REMARK  8 active torsions:
REMARK  status: ('A' for Active; 'I' for Inactive)
REMARK    1  A    between atoms: C_2  and  O_3
REMARK    2  A    between atoms: C_2  and  C_4
REMARK    3  A    between atoms: C_2  and  N_9
REMARK    4  A    between atoms: C_4  and  C_5
REMARK    5  A    between atoms: C_5  and  C_6
REMARK    6  A    between atoms: C_6  and  O_7
REMARK    7  A    between atoms: N_9  and  C_10
REMARK    8  A    between atoms: C_13  and  N_16
REMARK                            x       y       z     vdW  Elec       q    Type
REMARK                         _______ _______ _______ _____ _____    ______ ____
ROOT
ATOM      1  C   UNL     1       8.822   1.028  22.273  0.00  0.00    +0.029 A 
ATOM      2  C   UNL     1       9.523  -0.035  21.703  0.00  0.00    +0.025 A 
ATOM      3  C   UNL     1       9.073  -1.360  21.813  0.00  0.00    +0.026 A 
ATOM      4  C   UNL     1       7.883  -1.679  22.475  0.00  0.00    +0.044 A 
ATOM      5  C   UNL     1       7.123  -0.594  22.939  0.00  0.00    +0.026 A 
ATOM      6  C   UNL     1       7.581   0.732  22.834  0.00  0.00    +0.025 A 
ENDROOT
BRANCH   4   7
ATOM      7  N   UNL     1       7.520  -3.035  22.763  0.00  0.00    -0.210 N 
ATOM      8  C   UNL     1       6.528  -3.744  22.117  0.00  0.00    +0.227 C 
ATOM      9  O   UNL     1       5.667  -3.358  21.339  0.00  0.00    -0.275 OA
ATOM     10  C   UNL     1       6.583  -5.179  22.554  0.00  0.00    +0.106 C 
ATOM     11  C   UNL     1       7.846  -5.263  23.366  0.00  0.00    +0.106 C 
ATOM     12  C   UNL     1       8.148  -3.835  23.694  0.00  0.00    +0.227 C 
ATOM     13  O   UNL     1       8.866  -3.529  24.636  0.00  0.00    -0.275 OA
ENDBRANCH   4   7
BRANCH   1  14
ATOM     14  N   UNL     1       9.350   2.312  22.162  0.00  0.00    -0.319 N 
ATOM     15  H   UNL     1       9.839   2.447  21.282  0.00  0.00    +0.148 HD
BRANCH  14  16
ATOM     16  C   UNL     1      10.002   2.963  23.278  0.00  0.00    +0.200 C 
BRANCH  16  17
ATOM     17  O   UNL     1      11.150   3.637  22.803  0.00  0.00    -0.374 OA
ATOM     18  H   UNL     1      11.880   3.009  22.918  0.00  0.00    +0.212 HD
ENDBRANCH  16  17
BRANCH  16  19
ATOM     19  C   UNL     1       9.067   4.003  23.890  0.00  0.00    +0.062 C 
BRANCH  19  20
ATOM     20  C   UNL     1       7.951   4.428  22.940  0.00  0.00    +0.124 C 
BRANCH  20  21
ATOM     21  C   UNL     1       8.078   5.886  22.572  0.00  0.00    +0.305 C 
ATOM     22  O   UNL     1       8.614   6.741  23.258  0.00  0.00    -0.251 OA
BRANCH  21  23
ATOM     23  O   UNL     1       7.533   6.161  21.367  0.00  0.00    -0.481 OA
ATOM     24  H   UNL     1       7.890   6.966  20.946  0.00  0.00    +0.295 HD
ENDBRANCH  21  23
ENDBRANCH  20  21
ENDBRANCH  19  20
ENDBRANCH  16  19
ENDBRANCH  14  16
ENDBRANCH   1  14
TORSDOF 8
ENDMDL
MODEL 8
REMARK VINA RESULT:      -6.3      1.881      2.984
REMARK  Name = 
REMARK  8 active torsions:
REMARK  status: ('A' for Active; 'I' for Inactive)
REMARK    1  A    between atoms: C_2  and  O_3
REMARK    2  A    between atoms: C_2  and  C_4
REMARK    3  A    between atoms: C_2  and  N_9
REMARK    4  A    between atoms: C_4  and  C_5
REMARK    5  A    between atoms: C_5  and  C_6
REMARK    6  A    between atoms: C_6  and  O_7
REMARK    7  A    between atoms: N_9  and  C_10
REMARK    8  A    between atoms: C_13  and  N_16
REMARK                            x       y       z     vdW  Elec       q    Type
REMARK                         _______ _______ _______ _____ _____    ______ ____
ROOT
ATOM      1  C   UNL     1      10.191  -0.449  23.115  0.00  0.00    +0.029 A 
ATOM      2  C   UNL     1       9.911   0.374  22.024  0.00  0.00    +0.025 A 
ATOM      3  C   UNL     1       9.993   1.773  22.115  0.00  0.00    +0.026 A 
ATOM      4  C   UNL     1      10.390   2.410  23.295  0.00  0.00    +0.044 A 
ATOM      5  C   UNL     1      10.788   1.572  24.348  0.00  0.00    +0.026 A 
ATOM      6  C   UNL     1      10.696   0.171  24.256  0.00  0.00    +0.025 A 
ENDROOT
BRANCH   4   7
ATOM      7  N   UNL     1      10.287   3.830  23.457  0.00  0.00    -0.210 N 
ATOM      8  C   UNL     1       9.109   4.522  23.651  0.00  0.00    +0.227 C 
ATOM      9  O   UNL     1       7.950   4.143  23.552  0.00  0.00    -0.275 OA
ATOM     10  C   UNL     1       9.425   5.953  23.977  0.00  0.00    +0.106 C 
ATOM     11  C   UNL     1      10.919   5.965  24.152  0.00  0.00    +0.106 C 
ATOM     12  C   UNL     1      11.359   4.697  23.490  0.00  0.00    +0.227 C 
ATOM     13  O   UNL     1      12.508   4.541  23.099  0.00  0.00    -0.275 OA
ENDBRANCH   4   7
BRANCH   1  14
ATOM     14  N   UNL     1      10.046  -1.827  22.966  0.00  0.00    -0.319 N 
ATOM     15  H   UNL     1      10.312  -2.138  22.036  0.00  0.00    +0.148 HD
BRANCH  14  16
ATOM     16  C   UNL     1       8.895  -2.529  23.491  0.00  0.00    +0.200 C 
BRANCH  16  17
ATOM     17  O   UNL     1       8.215  -1.676  24.391  0.00  0.00    -0.374 OA
ATOM     18  H   UNL     1       8.912  -1.225  24.891  0.00  0.00    +0.212 HD
ENDBRANCH  16  17
BRANCH  16  19
ATOM     19  C   UNL     1       7.935  -2.873  22.355  0.00  0.00    +0.062 C 
BRANCH  19  20
ATOM     20  C   UNL     1       7.363  -4.282  22.470  0.00  0.00    +0.124 C 
BRANCH  20  21
ATOM     21  C   UNL     1       6.137  -4.442  21.604  0.00  0.00    +0.305 C 
ATOM     22  O   UNL     1       5.942  -5.358  20.823  0.00  0.00    -0.251 OA
BRANCH  21  23
ATOM     23  O   UNL     1       5.243  -3.446  21.789  0.00  0.00    -0.481 OA
ATOM     24  H   UNL     1       4.777  -3.177  20.976  0.00  0.00    +0.295 HD
ENDBRANCH  21  23
ENDBRANCH  20  21
ENDBRANCH  19  20
ENDBRANCH  16  19
ENDBRANCH  14  16
ENDBRANCH   1  14
TORSDOF 8
ENDMDL
MODEL 9
REMARK VINA RESULT:      -6.3      2.613      7.667
REMARK  Name = 
REMARK  8 active torsions:
REMARK  status: ('A' for Active; 'I' for Inactive)
REMARK    1  A    between atoms: C_2  and  O_3
REMARK    2  A    between atoms: C_2  and  C_4
REMARK    3  A    between atoms: C_2  and  N_9
REMARK    4  A    between atoms: C_4  and  C_5
REMARK    5  A    between atoms: C_5  and  C_6
REMARK    6  A    between atoms: C_6  and  O_7
REMARK    7  A    between atoms: N_9  and  C_10
REMARK    8  A    between atoms: C_13  and  N_16
REMARK                            x       y       z     vdW  Elec       q    Type
REMARK                         _______ _______ _______ _____ _____    ______ ____
ROOT
ATOM      1  C   UNL     1       9.737  -0.134  23.395  0.00  0.00    +0.029 A 
ATOM      2  C   UNL     1       9.682  -0.737  22.137  0.00  0.00    +0.025 A 
ATOM      3  C   UNL     1       8.877  -1.860  21.891  0.00  0.00    +0.026 A 
ATOM      4  C   UNL     1       8.066  -2.414  22.887  0.00  0.00    +0.044 A 
ATOM      5  C   UNL     1       8.033  -1.730  24.111  0.00  0.00    +0.026 A 
ATOM      6  C   UNL     1       8.848  -0.609  24.357  0.00  0.00    +0.025 A 
ENDROOT
BRANCH   4   7
ATOM      7  N   UNL     1       7.398  -3.669  22.703  0.00  0.00    -0.210 N 
ATOM      8  C   UNL     1       6.214  -3.843  22.016  0.00  0.00    +0.227 C 
ATOM      9  O   UNL     1       5.421  -3.012  21.596  0.00  0.00    -0.275 OA
ATOM     10  C   UNL     1       5.941  -5.312  21.868  0.00  0.00    +0.106 C 
ATOM     11  C   UNL     1       7.200  -5.968  22.366  0.00  0.00    +0.106 C 
ATOM     12  C   UNL     1       7.874  -4.884  23.148  0.00  0.00    +0.227 C 
ATOM     13  O   UNL     1       8.714  -5.135  24.001  0.00  0.00    -0.275 OA
ENDBRANCH   4   7
BRANCH   1  14
ATOM     14  N   UNL     1      10.592   0.950  23.578  0.00  0.00    -0.319 N 
ATOM     15  H   UNL     1      10.989   0.966  24.513  0.00  0.00    +0.148 HD
BRANCH  14  16
ATOM     16  C   UNL     1      10.261   2.268  23.081  0.00  0.00    +0.200 C 
BRANCH  16  17
ATOM     17  O   UNL     1      10.243   2.229  21.668  0.00  0.00    -0.374 OA
ATOM     18  H   UNL     1       9.701   1.458  21.441  0.00  0.00    +0.212 HD
ENDBRANCH  16  17
BRANCH  16  19
ATOM     19  C   UNL     1       8.866   2.667  23.557  0.00  0.00    +0.062 C 
BRANCH  19  20
ATOM     20  C   UNL     1       7.967   3.143  22.420  0.00  0.00    +0.124 C 
BRANCH  20  21
ATOM     21  C   UNL     1       6.695   2.332  22.360  0.00  0.00    +0.305 C 
ATOM     22  O   UNL     1       6.637   1.114  22.356  0.00  0.00    -0.251 OA
BRANCH  21  23
ATOM     23  O   UNL     1       5.591   3.109  22.321  0.00  0.00    -0.481 OA
ATOM     24  H   UNL     1       5.184   3.174  21.436  0.00  0.00    +0.295 HD
ENDBRANCH  21  23
ENDBRANCH  20  21
ENDBRANCH  19  20
ENDBRANCH  16  19
ENDBRANCH  14  16
ENDBRANCH   1  14
TORSDOF 8
ENDMDL
