MODEL 1
REMARK VINA RESULT:      -6.0      0.000      0.000
REMARK  Name = 
REMARK  17 active torsions:
REMARK  status: ('A' for Active; 'I' for Inactive)
REMARK    1  A    between atoms: C_2  and  C_3
REMARK    2  A    between atoms: C_2  and  C_7
REMARK    3  A    between atoms: C_2  and  C_11
REMARK    4  A    between atoms: C_3  and  C_4
REMARK    5  A    between atoms: C_4  and  C_5
REMARK    6  A    between atoms: C_5  and  O_6
REMARK    7  A    between atoms: N_9  and  O_10
REMARK    8  A    between atoms: C_11  and  C_13
REMARK    9  A    between atoms: C_11  and  C_17
REMARK   10  A    between atoms: C_13  and  C_14
REMARK   11  A    between atoms: C_14  and  C_15
REMARK   12  A    between atoms: C_14  and  C_16
REMARK   13  A    between atoms: N_19  and  C_20
REMARK   14  A    between atoms: N_26  and  C_27
REMARK   15  A    between atoms: C_27  and  C_28
REMARK   16  A    between atoms: C_28  and  O_29
REMARK   17  A    between atoms: O_29  and  C_30
REMARK                            x       y       z     vdW  Elec       q    Type
REMARK                         _______ _______ _______ _____ _____    ______ ____
ROOT
ATOM      1  C   UNL     1       6.260  -3.819  23.520  0.00  0.00    +0.087 C 
ENDROOT
BRANCH   1   2
ATOM      2  C   UNL     1       6.611  -2.324  23.597  0.00  0.00    +0.217 C 
ATOM      3  N   UNL     1       7.860  -1.906  23.228  0.00  0.00    -0.304 N 
ATOM      4  H   UNL     1       8.565  -2.521  22.843  0.00  0.00    +0.149 HD
ATOM      5  O   UNL     1       5.823  -1.502  24.061  0.00  0.00    -0.275 OA
BRANCH   3   6
ATOM      6  C   UNL     1       8.214  -0.490  23.355  0.00  0.00    +0.159 C 
ATOM      7  C   UNL     1       9.006   0.014  22.143  0.00  0.00    +0.236 C 
ATOM      8  O   UNL     1       9.809  -0.693  21.542  0.00  0.00    -0.274 OA
ATOM      9  N   UNL     1       8.976   1.400  22.064  0.00  0.00    -0.298 N 
ATOM     10  C   UNL     1      10.103   2.146  22.582  0.00  0.00    +0.108 C 
ATOM     11  C   UNL     1      10.650   1.557  23.888  0.00  0.00    +0.019 C 
ATOM     12  C   UNL     1       9.561   1.132  24.887  0.00  0.00    +0.004 C 
ATOM     13  C   UNL     1       9.020  -0.286  24.648  0.00  0.00    +0.032 C 
BRANCH   9  14
ATOM     14  C   UNL     1       7.827   2.105  21.489  0.00  0.00    +0.136 C 
BRANCH  14  15
ATOM     15  C   UNL     1       7.110   3.013  22.496  0.00  0.00    +0.178 C 
BRANCH  15  16
ATOM     16  O   UNL     1       5.797   2.510  22.739  0.00  0.00    -0.381 OA
ATOM     17  C   UNL     1       5.629   2.089  24.084  0.00  0.00    +0.194 C 
ENDBRANCH  15  16
ENDBRANCH  14  15
ENDBRANCH   9  14
ENDBRANCH   3   6
ENDBRANCH   1   2
BRANCH   1  18
ATOM     18  C   UNL     1       6.824  -4.565  24.777  0.00  0.00    +0.089 C 
BRANCH  18  19
ATOM     19  C   UNL     1       8.203  -5.151  24.506  0.00  0.00    +0.239 C 
ATOM     20  N   UNL     1       9.093  -5.003  25.544  0.00  0.00    -0.197 N 
ATOM     21  H   UNL     1       8.788  -4.949  26.509  0.00  0.00    +0.182 HD
ATOM     22  O   UNL     1       8.537  -5.649  23.432  0.00  0.00    -0.273 OA
BRANCH  20  23
ATOM     23  O   UNL     1      10.359  -5.604  25.332  0.00  0.00    -0.295 OA
ATOM     24  H   UNL     1      10.205  -6.530  25.625  0.00  0.00    +0.241 HD
ENDBRANCH  20  23
ENDBRANCH  18  19
BRANCH  18  25
ATOM     25  C   UNL     1       6.952  -3.760  26.114  0.00  0.00    +0.016 C 
BRANCH  25  26
ATOM     26  C   UNL     1       6.010  -4.193  27.241  0.00  0.00    +0.028 C 
BRANCH  26  27
ATOM     27  C   UNL     1       6.144  -5.680  27.563  0.00  0.00    +0.156 C 
BRANCH  27  28
ATOM     28  O   UNL     1       7.498  -5.983  27.879  0.00  0.00    -0.395 OA
ATOM     29  H   UNL     1       7.508  -6.842  28.339  0.00  0.00    +0.209 HD
ENDBRANCH  27  28
ENDBRANCH  26  27
ENDBRANCH  25  26
ENDBRANCH  18  25
ENDBRANCH   1  18
BRANCH   1  30
ATOM     30  C   UNL     1       4.765  -4.137  23.215  0.00  0.00    +0.016 C 
BRANCH  30  31
ATOM     31  C   UNL     1       3.913  -4.942  24.224  0.00  0.00    -0.016 C 
ATOM     32  C   UNL     1       3.187  -6.069  23.467  0.00  0.00    +0.007 C 
ATOM     33  C   UNL     1       2.863  -4.122  24.968  0.00  0.00    +0.007 C 
ENDBRANCH  30  31
ENDBRANCH   1  30
TORSDOF 14
ENDMDL
MODEL 2
REMARK VINA RESULT:      -5.8      2.414      7.595
REMARK  Name = 
REMARK  17 active torsions:
REMARK  status: ('A' for Active; 'I' for Inactive)
REMARK    1  A    between atoms: C_2  and  C_3
REMARK    2  A    between atoms: C_2  and  C_7
REMARK    3  A    between atoms: C_2  and  C_11
REMARK    4  A    between atoms: C_3  and  C_4
REMARK    5  A    between atoms: C_4  and  C_5
REMARK    6  A    between atoms: C_5  and  O_6
REMARK    7  A    between atoms: N_9  and  O_10
REMARK    8  A    between atoms: C_11  and  C_13
REMARK    9  A    between atoms: C_11  and  C_17
REMARK   10  A    between atoms: C_13  and  C_14
REMARK   11  A    between atoms: C_14  and  C_15
REMARK   12  A    between atoms: C_14  and  C_16
REMARK   13  A    between atoms: N_19  and  C_20
REMARK   14  A    between atoms: N_26  and  C_27
REMARK   15  A    between atoms: C_27  and  C_28
REMARK   16  A    between atoms: C_28  and  O_29
REMARK   17  A    between atoms: O_29  and  C_30
REMARK                            x       y       z     vdW  Elec       q    Type
REMARK                         _______ _______ _______ _____ _____    ______ ____
ROOT
ATOM      1  C   UNL     1       8.949   1.457  24.718  0.00  0.00    +0.087 C 
ENDROOT
BRANCH   1   2
ATOM      2  C   UNL     1       8.629  -0.032  24.931  0.00  0.00    +0.217 C 
ATOM      3  N   UNL     1       7.476  -0.554  24.412  0.00  0.00    -0.304 N 
ATOM      4  H   UNL     1       6.834  -0.027  23.834  0.00  0.00    +0.149 HD
ATOM      5  O   UNL     1       9.345  -0.749  25.628  0.00  0.00    -0.275 OA
BRANCH   3   6
ATOM      6  C   UNL     1       7.143  -1.958  24.662  0.00  0.00    +0.159 C 
ATOM      7  C   UNL     1       7.809  -2.895  23.648  0.00  0.00    +0.236 C 
ATOM      8  O   UNL     1       7.978  -2.579  22.474  0.00  0.00    -0.274 OA
ATOM      9  N   UNL     1       7.842  -4.202  24.117  0.00  0.00    -0.298 N 
ATOM     10  C   UNL     1       6.821  -5.122  23.665  0.00  0.00    +0.108 C 
ATOM     11  C   UNL     1       5.434  -4.472  23.580  0.00  0.00    +0.019 C 
ATOM     12  C   UNL     1       5.095  -3.566  24.774  0.00  0.00    +0.004 C 
ATOM     13  C   UNL     1       5.615  -2.127  24.630  0.00  0.00    +0.032 C 
BRANCH   9  14
ATOM     14  C   UNL     1       8.869  -4.646  25.062  0.00  0.00    +0.136 C 
BRANCH  14  15
ATOM     15  C   UNL     1       8.416  -4.573  26.525  0.00  0.00    +0.178 C 
BRANCH  15  16
ATOM     16  O   UNL     1       7.736  -5.778  26.874  0.00  0.00    -0.381 OA
ATOM     17  C   UNL     1       6.567  -5.526  27.639  0.00  0.00    +0.194 C 
ENDBRANCH  15  16
ENDBRANCH  14  15
ENDBRANCH   9  14
ENDBRANCH   3   6
ENDBRANCH   1   2
BRANCH   1  18
ATOM     18  C   UNL     1      10.122   1.609  23.689  0.00  0.00    +0.089 C 
BRANCH  18  19
ATOM     19  C   UNL     1       9.962   0.652  22.516  0.00  0.00    +0.239 C 
ATOM     20  N   UNL     1      10.573  -0.567  22.694  0.00  0.00    -0.197 N 
ATOM     21  H   UNL     1      10.706  -0.970  23.615  0.00  0.00    +0.182 HD
ATOM     22  O   UNL     1       9.405   0.949  21.460  0.00  0.00    -0.273 OA
BRANCH  20  23
ATOM     23  O   UNL     1      10.375  -1.492  21.639  0.00  0.00    -0.295 OA
ATOM     24  H   UNL     1      10.374  -2.354  22.113  0.00  0.00    +0.241 HD
ENDBRANCH  20  23
ENDBRANCH  18  19
BRANCH  18  25
ATOM     25  C   UNL     1      10.370   3.022  23.062  0.00  0.00    +0.016 C 
BRANCH  25  26
ATOM     26  C   UNL     1      11.722   3.663  23.388  0.00  0.00    +0.028 C 
BRANCH  26  27
ATOM     27  C   UNL     1      11.609   5.173  23.588  0.00  0.00    +0.156 C 
BRANCH  27  28
ATOM     28  O   UNL     1      12.853   5.693  24.044  0.00  0.00    -0.395 OA
ATOM     29  H   UNL     1      12.660   6.434  24.646  0.00  0.00    +0.209 HD
ENDBRANCH  27  28
ENDBRANCH  26  27
ENDBRANCH  25  26
ENDBRANCH  18  25
ENDBRANCH   1  18
BRANCH   1  30
ATOM     30  C   UNL     1       7.720   2.365  24.414  0.00  0.00    +0.016 C 
BRANCH  30  31
ATOM     31  C   UNL     1       7.195   3.357  25.479  0.00  0.00    -0.016 C 
ATOM     32  C   UNL     1       8.166   4.547  25.566  0.00  0.00    +0.007 C 
ATOM     33  C   UNL     1       7.046   2.767  26.879  0.00  0.00    +0.007 C 
ENDBRANCH  30  31
ENDBRANCH   1  30
TORSDOF 14
ENDMDL
MODEL 3
REMARK VINA RESULT:      -5.8      1.921      3.057
REMARK  Name = 
REMARK  17 active torsions:
REMARK  status: ('A' for Active; 'I' for Inactive)
REMARK    1  A    between atoms: C_2  and  C_3
REMARK    2  A    between atoms: C_2  and  C_7
REMARK    3  A    between atoms: C_2  and  C_11
REMARK    4  A    between atoms: C_3  and  C_4
REMARK    5  A    between atoms: C_4  and  C_5
REMARK    6  A    between atoms: C_5  and  O_6
REMARK    7  A    between atoms: N_9  and  O_10
REMARK    8  A    between atoms: C_11  and  C_13
REMARK    9  A    between atoms: C_11  and  C_17
REMARK   10  A    between atoms: C_13  and  C_14
REMARK   11  A    between atoms: C_14  and  C_15
REMARK   12  A    between atoms: C_14  and  C_16
REMARK   13  A    between atoms: N_19  and  C_20
REMARK   14  A    between atoms: N_26  and  C_27
REMARK   15  A    between atoms: C_27  and  C_28
REMARK   16  A    between atoms: C_28  and  O_29
REMARK   17  A    between atoms: O_29  and  C_30
REMARK                            x       y       z     vdW  Elec       q    Type
REMARK                         _______ _______ _______ _____ _____    ______ ____
ROOT
ATOM      1  C   UNL     1       5.848  -3.832  24.633  0.00  0.00    +0.087 C 
ENDROOT
BRANCH   1   2
ATOM      2  C   UNL     1       6.366  -2.391  24.495  0.00  0.00    +0.217 C 
ATOM      3  N   UNL     1       7.566  -2.164  23.878  0.00  0.00    -0.304 N 
ATOM      4  H   UNL     1       8.119  -2.892  23.444  0.00  0.00    +0.149 HD
ATOM      5  O   UNL     1       5.768  -1.443  25.000  0.00  0.00    -0.275 OA
BRANCH   3   6
ATOM      6  C   UNL     1       8.087  -0.798  23.797  0.00  0.00    +0.159 C 
ATOM      7  C   UNL     1       8.692  -0.496  22.422  0.00  0.00    +0.236 C 
ATOM      8  O   UNL     1       9.291  -1.344  21.766  0.00  0.00    -0.274 OA
ATOM      9  N   UNL     1       8.798   0.872  22.208  0.00  0.00    -0.298 N 
ATOM     10  C   UNL     1      10.075   1.511  22.444  0.00  0.00    +0.108 C 
ATOM     11  C   UNL     1      10.787   0.967  23.689  0.00  0.00    +0.019 C 
ATOM     12  C   UNL     1       9.861   0.763  24.899  0.00  0.00    +0.004 C 
ATOM     13  C   UNL     1       9.135  -0.591  24.904  0.00  0.00    +0.032 C 
BRANCH   9  14
ATOM     14  C   UNL     1       7.647   1.666  21.772  0.00  0.00    +0.136 C 
BRANCH  14  15
ATOM     15  C   UNL     1       7.250   2.757  22.773  0.00  0.00    +0.178 C 
BRANCH  15  16
ATOM     16  O   UNL     1       6.262   3.604  22.188  0.00  0.00    -0.381 OA
ATOM     17  C   UNL     1       4.951   3.263  22.612  0.00  0.00    +0.194 C 
ENDBRANCH  15  16
ENDBRANCH  14  15
ENDBRANCH   9  14
ENDBRANCH   3   6
ENDBRANCH   1   2
BRANCH   1  18
ATOM     18  C   UNL     1       4.825  -4.144  23.486  0.00  0.00    +0.089 C 
BRANCH  18  19
ATOM     19  C   UNL     1       5.528  -4.654  22.236  0.00  0.00    +0.239 C 
ATOM     20  N   UNL     1       5.323  -5.990  21.978  0.00  0.00    -0.197 N 
ATOM     21  H   UNL     1       4.478  -6.468  22.271  0.00  0.00    +0.182 HD
ATOM     22  O   UNL     1       6.281  -3.970  21.545  0.00  0.00    -0.273 OA
BRANCH  20  23
ATOM     23  O   UNL     1       5.915  -6.462  20.780  0.00  0.00    -0.295 OA
ATOM     24  H   UNL     1       6.419  -5.676  20.470  0.00  0.00    +0.241 HD
ENDBRANCH  20  23
ENDBRANCH  18  19
BRANCH  18  25
ATOM     25  C   UNL     1       3.676  -5.166  23.783  0.00  0.00    +0.016 C 
BRANCH  25  26
ATOM     26  C   UNL     1       3.566  -5.634  25.237  0.00  0.00    +0.028 C 
BRANCH  26  27
ATOM     27  C   UNL     1       4.000  -7.089  25.406  0.00  0.00    +0.156 C 
BRANCH  27  28
ATOM     28  O   UNL     1       4.303  -7.651  24.135  0.00  0.00    -0.395 OA
ATOM     29  H   UNL     1       3.698  -8.403  23.995  0.00  0.00    +0.209 HD
ENDBRANCH  27  28
ENDBRANCH  26  27
ENDBRANCH  25  26
ENDBRANCH  18  25
ENDBRANCH   1  18
BRANCH   1  30
ATOM     30  C   UNL     1       6.948  -4.922  24.811  0.00  0.00    +0.016 C 
BRANCH  30  31
ATOM     31  C   UNL     1       7.536  -5.220  26.210  0.00  0.00    -0.016 C 
ATOM     32  C   UNL     1       6.511  -4.797  27.277  0.00  0.00    +0.007 C 
ATOM     33  C   UNL     1       8.852  -4.508  26.512  0.00  0.00    +0.007 C 
ENDBRANCH  30  31
ENDBRANCH   1  30
TORSDOF 14
ENDMDL
MODEL 4
REMARK VINA RESULT:      -5.7      1.606      2.669
REMARK  Name = 
REMARK  17 active torsions:
REMARK  status: ('A' for Active; 'I' for Inactive)
REMARK    1  A    between atoms: C_2  and  C_3
REMARK    2  A    between atoms: C_2  and  C_7
REMARK    3  A    between atoms: C_2  and  C_11
REMARK    4  A    between atoms: C_3  and  C_4
REMARK    5  A    between atoms: C_4  and  C_5
REMARK    6  A    between atoms: C_5  and  O_6
REMARK    7  A    between atoms: N_9  and  O_10
REMARK    8  A    between atoms: C_11  and  C_13
REMARK    9  A    between atoms: C_11  and  C_17
REMARK   10  A    between atoms: C_13  and  C_14
REMARK   11  A    between atoms: C_14  and  C_15
REMARK   12  A    between atoms: C_14  and  C_16
REMARK   13  A    between atoms: N_19  and  C_20
REMARK   14  A    between atoms: N_26  and  C_27
REMARK   15  A    between atoms: C_27  and  C_28
REMARK   16  A    between atoms: C_28  and  O_29
REMARK   17  A    between atoms: O_29  and  C_30
REMARK                            x       y       z     vdW  Elec       q    Type
REMARK                         _______ _______ _______ _____ _____    ______ ____
ROOT
ATOM      1  C   UNL     1       5.762  -3.281  24.130  0.00  0.00    +0.087 C 
ENDROOT
BRANCH   1   2
ATOM      2  C   UNL     1       6.262  -1.829  24.051  0.00  0.00    +0.217 C 
ATOM      3  N   UNL     1       7.526  -1.577  23.593  0.00  0.00    -0.304 N 
ATOM      4  H   UNL     1       8.147  -2.293  23.240  0.00  0.00    +0.149 HD
ATOM      5  O   UNL     1       5.582  -0.893  24.467  0.00  0.00    -0.275 OA
BRANCH   3   6
ATOM      6  C   UNL     1       8.023  -0.199  23.571  0.00  0.00    +0.159 C 
ATOM      7  C   UNL     1       8.684   0.150  22.233  0.00  0.00    +0.236 C 
ATOM      8  O   UNL     1       9.329  -0.669  21.585  0.00  0.00    -0.274 OA
ATOM      9  N   UNL     1       8.772   1.525  22.059  0.00  0.00    -0.298 N 
ATOM     10  C   UNL     1      10.024   2.182  22.371  0.00  0.00    +0.108 C 
ATOM     11  C   UNL     1      10.689   1.618  23.633  0.00  0.00    +0.019 C 
ATOM     12  C   UNL     1       9.712   1.365  24.793  0.00  0.00    +0.004 C 
ATOM     13  C   UNL     1       9.014  -0.002  24.730  0.00  0.00    +0.032 C 
BRANCH   9  14
ATOM     14  C   UNL     1       7.626   2.308  21.591  0.00  0.00    +0.136 C 
BRANCH  14  15
ATOM     15  C   UNL     1       7.069   3.261  22.655  0.00  0.00    +0.178 C 
BRANCH  15  16
ATOM     16  O   UNL     1       7.609   4.566  22.455  0.00  0.00    -0.381 OA
ATOM     17  C   UNL     1       6.595   5.560  22.416  0.00  0.00    +0.194 C 
ENDBRANCH  15  16
ENDBRANCH  14  15
ENDBRANCH   9  14
ENDBRANCH   3   6
ENDBRANCH   1   2
BRANCH   1  18
ATOM     18  C   UNL     1       6.982  -4.265  24.174  0.00  0.00    +0.089 C 
BRANCH  18  19
ATOM     19  C   UNL     1       7.509  -4.436  25.592  0.00  0.00    +0.239 C 
ATOM     20  N   UNL     1       7.274  -5.677  26.137  0.00  0.00    -0.197 N 
ATOM     21  H   UNL     1       7.194  -6.507  25.562  0.00  0.00    +0.182 HD
ATOM     22  O   UNL     1       8.034  -3.532  26.242  0.00  0.00    -0.273 OA
BRANCH  20  23
ATOM     23  O   UNL     1       7.819  -5.872  27.430  0.00  0.00    -0.295 OA
ATOM     24  H   UNL     1       7.072  -5.610  28.015  0.00  0.00    +0.241 HD
ENDBRANCH  20  23
ENDBRANCH  18  19
BRANCH  18  25
ATOM     25  C   UNL     1       6.780  -5.712  23.611  0.00  0.00    +0.016 C 
BRANCH  25  26
ATOM     26  C   UNL     1       7.246  -5.932  22.169  0.00  0.00    +0.028 C 
BRANCH  26  27
ATOM     27  C   UNL     1       6.087  -5.871  21.176  0.00  0.00    +0.156 C 
BRANCH  27  28
ATOM     28  O   UNL     1       5.829  -4.517  20.820  0.00  0.00    -0.395 OA
ATOM     29  H   UNL     1       5.608  -4.500  19.871  0.00  0.00    +0.209 HD
ENDBRANCH  27  28
ENDBRANCH  26  27
ENDBRANCH  25  26
ENDBRANCH  18  25
ENDBRANCH   1  18
BRANCH   1  30
ATOM     30  C   UNL     1       4.688  -3.557  25.226  0.00  0.00    +0.016 C 
BRANCH  30  31
ATOM     31  C   UNL     1       3.477  -4.470  24.924  0.00  0.00    -0.016 C 
ATOM     32  C   UNL     1       3.655  -5.795  25.685  0.00  0.00    +0.007 C 
ATOM     33  C   UNL     1       3.279  -4.798  23.446  0.00  0.00    +0.007 C 
ENDBRANCH  30  31
ENDBRANCH   1  30
TORSDOF 14
ENDMDL
MODEL 5
REMARK VINA RESULT:      -5.7      2.106      3.384
REMARK  Name = 
REMARK  17 active torsions:
REMARK  status: ('A' for Active; 'I' for Inactive)
REMARK    1  A    between atoms: C_2  and  C_3
REMARK    2  A    between atoms: C_2  and  C_7
REMARK    3  A    between atoms: C_2  and  C_11
REMARK    4  A    between atoms: C_3  and  C_4
REMARK    5  A    between atoms: C_4  and  C_5
REMARK    6  A    between atoms: C_5  and  O_6
REMARK    7  A    between atoms: N_9  and  O_10
REMARK    8  A    between atoms: C_11  and  C_13
REMARK    9  A    between atoms: C_11  and  C_17
REMARK   10  A    between atoms: C_13  and  C_14
REMARK   11  A    between atoms: C_14  and  C_15
REMARK   12  A    between atoms: C_14  and  C_16
REMARK   13  A    between atoms: N_19  and  C_20
REMARK   14  A    between atoms: N_26  and  C_27
REMARK   15  A    between atoms: C_27  and  C_28
REMARK   16  A    between atoms: C_28  and  O_29
REMARK   17  A    between atoms: O_29  and  C_30
REMARK                            x       y       z     vdW  Elec       q    Type
REMARK                         _______ _______ _______ _____ _____    ______ ____
ROOT
ATOM      1  C   UNL     1       7.732  -4.634  25.066  0.00  0.00    +0.087 C 
ENDROOT
BRANCH   1   2
ATOM      2  C   UNL     1       8.132  -3.210  25.487  0.00  0.00    +0.217 C 
ATOM      3  N   UNL     1       8.208  -2.224  24.542  0.00  0.00    -0.304 N 
ATOM      4  H   UNL     1       7.956  -2.359  23.571  0.00  0.00    +0.149 HD
ATOM      5  O   UNL     1       8.466  -2.952  26.642  0.00  0.00    -0.275 OA
BRANCH   3   6
ATOM      6  C   UNL     1       8.643  -0.882  24.933  0.00  0.00    +0.159 C 
ATOM      7  C   UNL     1       7.733   0.207  24.354  0.00  0.00    +0.236 C 
ATOM      8  O   UNL     1       7.210   0.109  23.248  0.00  0.00    -0.274 OA
ATOM      9  N   UNL     1       7.882   1.405  25.041  0.00  0.00    -0.298 N 
ATOM     10  C   UNL     1       8.749   2.419  24.480  0.00  0.00    +0.108 C 
ATOM     11  C   UNL     1      10.025   1.832  23.866  0.00  0.00    +0.019 C 
ATOM     12  C   UNL     1      10.679   0.731  24.717  0.00  0.00    +0.004 C 
ATOM     13  C   UNL     1      10.096  -0.669  24.475  0.00  0.00    +0.032 C 
BRANCH   9  14
ATOM     14  C   UNL     1       7.199   1.642  26.316  0.00  0.00    +0.136 C 
BRANCH  14  15
ATOM     15  C   UNL     1       6.032   2.629  26.201  0.00  0.00    +0.178 C 
BRANCH  15  16
ATOM     16  O   UNL     1       4.928   1.990  25.561  0.00  0.00    -0.381 OA
ATOM     17  C   UNL     1       4.607   2.599  24.320  0.00  0.00    +0.194 C 
ENDBRANCH  15  16
ENDBRANCH  14  15
ENDBRANCH   9  14
ENDBRANCH   3   6
ENDBRANCH   1   2
BRANCH   1  18
ATOM     18  C   UNL     1       6.315  -4.982  25.638  0.00  0.00    +0.089 C 
BRANCH  18  19
ATOM     19  C   UNL     1       6.415  -5.827  26.900  0.00  0.00    +0.239 C 
ATOM     20  N   UNL     1       5.357  -6.685  27.091  0.00  0.00    -0.197 N 
ATOM     21  H   UNL     1       4.825  -7.061  26.315  0.00  0.00    +0.182 HD
ATOM     22  O   UNL     1       7.316  -5.715  27.730  0.00  0.00    -0.273 OA
BRANCH  20  23
ATOM     23  O   UNL     1       5.470  -7.526  28.226  0.00  0.00    -0.295 OA
ATOM     24  H   UNL     1       6.403  -7.381  28.503  0.00  0.00    +0.241 HD
ENDBRANCH  20  23
ENDBRANCH  18  19
BRANCH  18  25
ATOM     25  C   UNL     1       5.352  -3.798  25.987  0.00  0.00    +0.016 C 
BRANCH  25  26
ATOM     26  C   UNL     1       4.219  -3.548  24.987  0.00  0.00    +0.028 C 
BRANCH  26  27
ATOM     27  C   UNL     1       3.517  -4.842  24.580  0.00  0.00    +0.156 C 
BRANCH  27  28
ATOM     28  O   UNL     1       3.221  -4.812  23.188  0.00  0.00    -0.395 OA
ATOM     29  H   UNL     1       4.052  -4.983  22.707  0.00  0.00    +0.209 HD
ENDBRANCH  27  28
ENDBRANCH  26  27
ENDBRANCH  25  26
ENDBRANCH  18  25
ENDBRANCH   1  18
BRANCH   1  30
ATOM     30  C   UNL     1       7.895  -4.949  23.548  0.00  0.00    +0.016 C 
BRANCH  30  31
ATOM     31  C   UNL     1       6.659  -4.999  22.620  0.00  0.00    -0.016 C 
ATOM     32  C   UNL     1       6.910  -6.044  21.519  0.00  0.00    +0.007 C 
ATOM     33  C   UNL     1       6.317  -3.674  21.944  0.00  0.00    +0.007 C 
ENDBRANCH  30  31
ENDBRANCH   1  30
TORSDOF 14
ENDMDL
MODEL 6
REMARK VINA RESULT:      -5.6      2.283      7.366
REMARK  Name = 
REMARK  17 active torsions:
REMARK  status: ('A' for Active; 'I' for Inactive)
REMARK    1  A    between atoms: C_2  and  C_3
REMARK    2  A    between atoms: C_2  and  C_7
REMARK    3  A    between atoms: C_2  and  C_11
REMARK    4  A    between atoms: C_3  and  C_4
REMARK    5  A    between atoms: C_4  and  C_5
REMARK    6  A    between atoms: C_5  and  O_6
REMARK    7  A    between atoms: N_9  and  O_10
REMARK    8  A    between atoms: C_11  and  C_13
REMARK    9  A    between atoms: C_11  and  C_17
REMARK   10  A    between atoms: C_13  and  C_14
REMARK   11  A    between atoms: C_14  and  C_15
REMARK   12  A    between atoms: C_14  and  C_16
REMARK   13  A    between atoms: N_19  and  C_20
REMARK   14  A    between atoms: N_26  and  C_27
REMARK   15  A    between atoms: C_27  and  C_28
REMARK   16  A    between atoms: C_28  and  O_29
REMARK   17  A    between atoms: O_29  and  C_30
REMARK                            x       y       z     vdW  Elec       q    Type
REMARK                         _______ _______ _______ _____ _____    ______ ____
ROOT
ATOM      1  C   UNL     1       6.585   1.609  24.054  0.00  0.00    +0.087 C 
ENDROOT
BRANCH   1   2
ATOM      2  C   UNL     1       6.514   0.088  24.271  0.00  0.00    +0.217 C 
ATOM      3  N   UNL     1       6.665  -0.752  23.203  0.00  0.00    -0.304 N 
ATOM      4  H   UNL     1       6.884  -0.435  22.267  0.00  0.00    +0.149 HD
ATOM      5  O   UNL     1       6.241  -0.391  25.371  0.00  0.00    -0.275 OA
BRANCH   3   6
ATOM      6  C   UNL     1       6.540  -2.198  23.400  0.00  0.00    +0.159 C 
ATOM      7  C   UNL     1       7.907  -2.881  23.513  0.00  0.00    +0.236 C 
ATOM      8  O   UNL     1       8.886  -2.504  22.875  0.00  0.00    -0.274 OA
ATOM      9  N   UNL     1       7.796  -4.135  24.101  0.00  0.00    -0.298 N 
ATOM     10  C   UNL     1       7.755  -5.299  23.242  0.00  0.00    +0.108 C 
ATOM     11  C   UNL     1       6.916  -5.071  21.979  0.00  0.00    +0.019 C 
ATOM     12  C   UNL     1       5.594  -4.328  22.231  0.00  0.00    +0.004 C 
ATOM     13  C   UNL     1       5.733  -2.798  22.236  0.00  0.00    +0.032 C 
BRANCH   9  14
ATOM     14  C   UNL     1       7.703  -4.287  25.555  0.00  0.00    +0.136 C 
BRANCH  14  15
ATOM     15  C   UNL     1       6.317  -4.743  26.027  0.00  0.00    +0.178 C 
BRANCH  15  16
ATOM     16  O   UNL     1       6.377  -6.112  26.427  0.00  0.00    -0.381 OA
ATOM     17  C   UNL     1       5.199  -6.519  27.106  0.00  0.00    +0.194 C 
ENDBRANCH  15  16
ENDBRANCH  14  15
ENDBRANCH   9  14
ENDBRANCH   3   6
ENDBRANCH   1   2
BRANCH   1  18
ATOM     18  C   UNL     1       7.952   2.160  24.587  0.00  0.00    +0.089 C 
BRANCH  18  19
ATOM     19  C   UNL     1       7.783   2.878  25.919  0.00  0.00    +0.239 C 
ATOM     20  N   UNL     1       7.472   2.048  26.972  0.00  0.00    -0.197 N 
ATOM     21  H   UNL     1       7.765   1.078  26.994  0.00  0.00    +0.182 HD
ATOM     22  O   UNL     1       7.839   4.099  26.052  0.00  0.00    -0.273 OA
BRANCH  20  23
ATOM     23  O   UNL     1       7.379   2.693  28.230  0.00  0.00    -0.295 OA
ATOM     24  H   UNL     1       8.009   2.175  28.780  0.00  0.00    +0.241 HD
ENDBRANCH  20  23
ENDBRANCH  18  19
BRANCH  18  25
ATOM     25  C   UNL     1       9.126   1.144  24.790  0.00  0.00    +0.016 C 
BRANCH  25  26
ATOM     26  C   UNL     1      10.299   1.284  23.815  0.00  0.00    +0.028 C 
BRANCH  26  27
ATOM     27  C   UNL     1       9.876   1.038  22.368  0.00  0.00    +0.156 C 
BRANCH  27  28
ATOM     28  O   UNL     1      10.193   2.176  21.574  0.00  0.00    -0.395 OA
ATOM     29  H   UNL     1       9.548   2.874  21.791  0.00  0.00    +0.209 HD
ENDBRANCH  27  28
ENDBRANCH  26  27
ENDBRANCH  25  26
ENDBRANCH  18  25
ENDBRANCH   1  18
BRANCH   1  30
ATOM     30  C   UNL     1       6.226   2.094  22.617  0.00  0.00    +0.016 C 
BRANCH  30  31
ATOM     31  C   UNL     1       5.888   3.580  22.354  0.00  0.00    -0.016 C 
ATOM     32  C   UNL     1       7.203   4.367  22.213  0.00  0.00    +0.007 C 
ATOM     33  C   UNL     1       5.054   4.247  23.444  0.00  0.00    +0.007 C 
ENDBRANCH  30  31
ENDBRANCH   1  30
TORSDOF 14
ENDMDL
MODEL 7
REMARK VINA RESULT:      -5.6      3.077      8.476
REMARK  Name = 
REMARK  17 active torsions:
REMARK  status: ('A' for Active; 'I' for Inactive)
REMARK    1  A    between atoms: C_2  and  C_3
REMARK    2  A    between atoms: C_2  and  C_7
REMARK    3  A    between atoms: C_2  and  C_11
REMARK    4  A    between atoms: C_3  and  C_4
REMARK    5  A    between atoms: C_4  and  C_5
REMARK    6  A    between atoms: C_5  and  O_6
REMARK    7  A    between atoms: N_9  and  O_10
REMARK    8  A    between atoms: C_11  and  C_13
REMARK    9  A    between atoms: C_11  and  C_17
REMARK   10  A    between atoms: C_13  and  C_14
REMARK   11  A    between atoms: C_14  and  C_15
REMARK   12  A    between atoms: C_14  and  C_16
REMARK   13  A    between atoms: N_19  and  C_20
REMARK   14  A    between atoms: N_26  and  C_27
REMARK   15  A    between atoms: C_27  and  C_28
REMARK   16  A    between atoms: C_28  and  O_29
REMARK   17  A    between atoms: O_29  and  C_30
REMARK                            x       y       z     vdW  Elec       q    Type
REMARK                         _______ _______ _______ _____ _____    ______ ____
ROOT
ATOM      1  C   UNL     1       8.461   3.491  25.208  0.00  0.00    +0.087 C 
ENDROOT
BRANCH   1   2
ATOM      2  C   UNL     1       8.044   2.011  25.258  0.00  0.00    +0.217 C 
ATOM      3  N   UNL     1       8.386   1.180  24.227  0.00  0.00    -0.304 N 
ATOM      4  H   UNL     1       8.959   1.467  23.444  0.00  0.00    +0.149 HD
ATOM      5  O   UNL     1       7.337   1.574  26.165  0.00  0.00    -0.275 OA
BRANCH   3   6
ATOM      6  C   UNL     1       7.940  -0.215  24.247  0.00  0.00    +0.159 C 
ATOM      7  C   UNL     1       9.119  -1.193  24.290  0.00  0.00    +0.236 C 
ATOM      8  O   UNL     1      10.179  -0.971  23.711  0.00  0.00    -0.274 OA
ATOM      9  N   UNL     1       8.715  -2.449  24.721  0.00  0.00    -0.298 N 
ATOM     10  C   UNL     1       8.450  -3.468  23.728  0.00  0.00    +0.108 C 
ATOM     11  C   UNL     1       7.727  -2.915  22.494  0.00  0.00    +0.019 C 
ATOM     12  C   UNL     1       6.592  -1.932  22.822  0.00  0.00    +0.004 C 
ATOM     13  C   UNL     1       7.063  -0.482  23.012  0.00  0.00    +0.032 C 
BRANCH   9  14
ATOM     14  C   UNL     1       8.539  -2.744  26.145  0.00  0.00    +0.136 C 
BRANCH  14  15
ATOM     15  C   UNL     1       8.829  -4.208  26.500  0.00  0.00    +0.178 C 
BRANCH  15  16
ATOM     16  O   UNL     1       7.776  -4.718  27.317  0.00  0.00    -0.381 OA
ATOM     17  C   UNL     1       6.557  -4.020  27.110  0.00  0.00    +0.194 C 
ENDBRANCH  15  16
ENDBRANCH  14  15
ENDBRANCH   9  14
ENDBRANCH   3   6
ENDBRANCH   1   2
BRANCH   1  18
ATOM     18  C   UNL     1       9.214   3.788  23.866  0.00  0.00    +0.089 C 
BRANCH  18  19
ATOM     19  C   UNL     1       8.255   4.260  22.782  0.00  0.00    +0.239 C 
ATOM     20  N   UNL     1       8.362   5.596  22.476  0.00  0.00    -0.197 N 
ATOM     21  H   UNL     1       9.232   6.103  22.586  0.00  0.00    +0.182 HD
ATOM     22  O   UNL     1       7.399   3.543  22.265  0.00  0.00    -0.273 OA
BRANCH  20  23
ATOM     23  O   UNL     1       7.523   6.034  21.420  0.00  0.00    -0.295 OA
ATOM     24  H   UNL     1       6.790   6.477  21.904  0.00  0.00    +0.241 HD
ENDBRANCH  20  23
ENDBRANCH  18  19
BRANCH  18  25
ATOM     25  C   UNL     1      10.381   4.831  23.894  0.00  0.00    +0.016 C 
BRANCH  25  26
ATOM     26  C   UNL     1      11.719   4.344  23.329  0.00  0.00    +0.028 C 
BRANCH  26  27
ATOM     27  C   UNL     1      12.741   5.473  23.217  0.00  0.00    +0.156 C 
BRANCH  27  28
ATOM     28  O   UNL     1      14.056   4.931  23.179  0.00  0.00    -0.395 OA
ATOM     29  H   UNL     1      13.992   3.988  23.417  0.00  0.00    +0.209 HD
ENDBRANCH  27  28
ENDBRANCH  26  27
ENDBRANCH  25  26
ENDBRANCH  18  25
ENDBRANCH   1  18
BRANCH   1  30
ATOM     30  C   UNL     1       7.331   4.513  25.539  0.00  0.00    +0.016 C 
BRANCH  30  31
ATOM     31  C   UNL     1       7.143   5.033  26.983  0.00  0.00    -0.016 C 
ATOM     32  C   UNL     1       5.681   4.802  27.404  0.00  0.00    +0.007 C 
ATOM     33  C   UNL     1       7.459   6.514  27.172  0.00  0.00    +0.007 C 
ENDBRANCH  30  31
ENDBRANCH   1  30
TORSDOF 14
ENDMDL
MODEL 8
REMARK VINA RESULT:      -5.6      1.800      2.713
REMARK  Name = 
REMARK  17 active torsions:
REMARK  status: ('A' for Active; 'I' for Inactive)
REMARK    1  A    between atoms: C_2  and  C_3
REMARK    2  A    between atoms: C_2  and  C_7
REMARK    3  A    between atoms: C_2  and  C_11
REMARK    4  A    between atoms: C_3  and  C_4
REMARK    5  A    between atoms: C_4  and  C_5
REMARK    6  A    between atoms: C_5  and  O_6
REMARK    7  A    between atoms: N_9  and  O_10
REMARK    8  A    between atoms: C_11  and  C_13
REMARK    9  A    between atoms: C_11  and  C_17
REMARK   10  A    between atoms: C_13  and  C_14
REMARK   11  A    between atoms: C_14  and  C_15
REMARK   12  A    between atoms: C_14  and  C_16
REMARK   13  A    between atoms: N_19  and  C_20
REMARK   14  A    between atoms: N_26  and  C_27
REMARK   15  A    between atoms: C_27  and  C_28
REMARK   16  A    between atoms: C_28  and  O_29
REMARK   17  A    between atoms: O_29  and  C_30
REMARK                            x       y       z     vdW  Elec       q    Type
REMARK                         _______ _______ _______ _____ _____    ______ ____
ROOT
ATOM      1  C   UNL     1       4.965  -3.583  25.057  0.00  0.00    +0.087 C 
ENDROOT
BRANCH   1   2
ATOM      2  C   UNL     1       5.707  -2.263  24.787  0.00  0.00    +0.217 C 
ATOM      3  N   UNL     1       7.025  -2.295  24.421  0.00  0.00    -0.304 N 
ATOM      4  H   UNL     1       7.539  -3.151  24.255  0.00  0.00    +0.149 HD
ATOM      5  O   UNL     1       5.168  -1.174  24.972  0.00  0.00    -0.275 OA
BRANCH   3   6
ATOM      6  C   UNL     1       7.747  -1.037  24.219  0.00  0.00    +0.159 C 
ATOM      7  C   UNL     1       8.154  -0.839  22.754  0.00  0.00    +0.236 C 
ATOM      8  O   UNL     1       8.482  -1.775  22.030  0.00  0.00    -0.274 OA
ATOM      9  N   UNL     1       8.451   0.491  22.490  0.00  0.00    -0.298 N 
ATOM     10  C   UNL     1       9.839   0.903  22.494  0.00  0.00    +0.108 C 
ATOM     11  C   UNL     1      10.648   0.242  23.616  0.00  0.00    +0.019 C 
ATOM     12  C   UNL     1       9.918   0.196  24.968  0.00  0.00    +0.004 C 
ATOM     13  C   UNL     1       8.986  -1.015  25.129  0.00  0.00    +0.032 C 
BRANCH   9  14
ATOM     14  C   UNL     1       7.393   1.470  22.231  0.00  0.00    +0.136 C 
BRANCH  14  15
ATOM     15  C   UNL     1       7.379   2.627  23.238  0.00  0.00    +0.178 C 
BRANCH  15  16
ATOM     16  O   UNL     1       7.801   3.827  22.591  0.00  0.00    -0.381 OA
ATOM     17  C   UNL     1       8.504   4.688  23.474  0.00  0.00    +0.194 C 
ENDBRANCH  15  16
ENDBRANCH  14  15
ENDBRANCH   9  14
ENDBRANCH   3   6
ENDBRANCH   1   2
BRANCH   1  18
ATOM     18  C   UNL     1       5.875  -4.797  24.667  0.00  0.00    +0.089 C 
BRANCH  18  19
ATOM     19  C   UNL     1       6.250  -5.629  25.886  0.00  0.00    +0.239 C 
ATOM     20  N   UNL     1       7.412  -5.231  26.506  0.00  0.00    -0.197 N 
ATOM     21  H   UNL     1       7.733  -4.271  26.475  0.00  0.00    +0.182 HD
ATOM     22  O   UNL     1       5.624  -6.621  26.258  0.00  0.00    -0.273 OA
BRANCH  20  23
ATOM     23  O   UNL     1       7.736  -5.953  27.681  0.00  0.00    -0.295 OA
ATOM     24  H   UNL     1       8.165  -5.265  28.239  0.00  0.00    +0.241 HD
ENDBRANCH  20  23
ENDBRANCH  18  19
BRANCH  18  25
ATOM     25  C   UNL     1       5.332  -5.811  23.604  0.00  0.00    +0.016 C 
BRANCH  25  26
ATOM     26  C   UNL     1       3.870  -5.619  23.192  0.00  0.00    +0.028 C 
BRANCH  26  27
ATOM     27  C   UNL     1       2.990  -6.785  23.639  0.00  0.00    +0.156 C 
BRANCH  27  28
ATOM     28  O   UNL     1       3.799  -7.809  24.206  0.00  0.00    -0.395 OA
ATOM     29  H   UNL     1       3.570  -7.875  25.151  0.00  0.00    +0.209 HD
ENDBRANCH  27  28
ENDBRANCH  26  27
ENDBRANCH  25  26
ENDBRANCH  18  25
ENDBRANCH   1  18
BRANCH   1  30
ATOM     30  C   UNL     1       4.320  -3.706  26.471  0.00  0.00    +0.016 C 
BRANCH  30  31
ATOM     31  C   UNL     1       2.786  -3.829  26.624  0.00  0.00    -0.016 C 
ATOM     32  C   UNL     1       2.436  -5.298  26.922  0.00  0.00    +0.007 C 
ATOM     33  C   UNL     1       1.986  -3.394  25.399  0.00  0.00    +0.007 C 
ENDBRANCH  30  31
ENDBRANCH   1  30
TORSDOF 14
ENDMDL
MODEL 9
REMARK VINA RESULT:      -5.4      1.980      3.146
REMARK  Name = 
REMARK  17 active torsions:
REMARK  status: ('A' for Active; 'I' for Inactive)
REMARK    1  A    between atoms: C_2  and  C_3
REMARK    2  A    between atoms: C_2  and  C_7
REMARK    3  A    between atoms: C_2  and  C_11
REMARK    4  A    between atoms: C_3  and  C_4
REMARK    5  A    between atoms: C_4  and  C_5
REMARK    6  A    between atoms: C_5  and  O_6
REMARK    7  A    between atoms: N_9  and  O_10
REMARK    8  A    between atoms: C_11  and  C_13
REMARK    9  A    between atoms: C_11  and  C_17
REMARK   10  A    between atoms: C_13  and  C_14
REMARK   11  A    between atoms: C_14  and  C_15
REMARK   12  A    between atoms: C_14  and  C_16
REMARK   13  A    between atoms: N_19  and  C_20
REMARK   14  A    between atoms: N_26  and  C_27
REMARK   15  A    between atoms: C_27  and  C_28
REMARK   16  A    between atoms: C_28  and  O_29
REMARK   17  A    between atoms: O_29  and  C_30
REMARK                            x       y       z     vdW  Elec       q    Type
REMARK                         _______ _______ _______ _____ _____    ______ ____
ROOT
ATOM      1  C   UNL     1       5.632  -3.963  24.060  0.00  0.00    +0.087 C 
ENDROOT
BRANCH   1   2
ATOM      2  C   UNL     1       6.010  -2.499  23.776  0.00  0.00    +0.217 C 
ATOM      3  N   UNL     1       6.112  -1.616  24.815  0.00  0.00    -0.304 N 
ATOM      4  H   UNL     1       6.012  -1.881  25.787  0.00  0.00    +0.149 HD
ATOM      5  O   UNL     1       6.141  -2.082  22.626  0.00  0.00    -0.275 OA
BRANCH   3   6
ATOM      6  C   UNL     1       6.416  -0.210  24.540  0.00  0.00    +0.159 C 
ATOM      7  C   UNL     1       7.921   0.073  24.595  0.00  0.00    +0.236 C 
ATOM      8  O   UNL     1       8.669  -0.498  25.384  0.00  0.00    -0.274 OA
ATOM      9  N   UNL     1       8.235   1.258  23.943  0.00  0.00    -0.298 N 
ATOM     10  C   UNL     1       8.405   2.457  24.735  0.00  0.00    +0.108 C 
ATOM     11  C   UNL     1       7.383   2.565  25.873  0.00  0.00    +0.019 C 
ATOM     12  C   UNL     1       5.951   2.182  25.465  0.00  0.00    +0.004 C 
ATOM     13  C   UNL     1       5.664   0.675  25.547  0.00  0.00    +0.032 C 
BRANCH   9  14
ATOM     14  C   UNL     1       8.372   1.311  22.486  0.00  0.00    +0.136 C 
BRANCH  14  15
ATOM     15  C   UNL     1       9.736   0.814  21.989  0.00  0.00    +0.178 C 
BRANCH  15  16
ATOM     16  O   UNL     1       9.603  -0.515  21.487  0.00  0.00    -0.381 OA
ATOM     17  C   UNL     1      10.264  -1.463  22.312  0.00  0.00    +0.194 C 
ENDBRANCH  15  16
ENDBRANCH  14  15
ENDBRANCH   9  14
ENDBRANCH   3   6
ENDBRANCH   1   2
BRANCH   1  18
ATOM     18  C   UNL     1       6.886  -4.884  23.868  0.00  0.00    +0.089 C 
BRANCH  18  19
ATOM     19  C   UNL     1       6.921  -5.494  22.473  0.00  0.00    +0.239 C 
ATOM     20  N   UNL     1       5.887  -5.097  21.657  0.00  0.00    -0.197 N 
ATOM     21  H   UNL     1       5.435  -4.196  21.764  0.00  0.00    +0.182 HD
ATOM     22  O   UNL     1       7.747  -6.331  22.111  0.00  0.00    -0.273 OA
BRANCH  20  23
ATOM     23  O   UNL     1       5.945  -5.604  20.335  0.00  0.00    -0.295 OA
ATOM     24  H   UNL     1       6.788  -5.222  20.000  0.00  0.00    +0.241 HD
ENDBRANCH  20  23
ENDBRANCH  18  19
BRANCH  18  25
ATOM     25  C   UNL     1       8.302  -4.258  24.100  0.00  0.00    +0.016 C 
BRANCH  25  26
ATOM     26  C   UNL     1       9.120  -4.874  25.239  0.00  0.00    +0.028 C 
BRANCH  26  27
ATOM     27  C   UNL     1       8.475  -4.637  26.603  0.00  0.00    +0.156 C 
BRANCH  27  28
ATOM     28  O   UNL     1       8.029  -5.875  27.146  0.00  0.00    -0.395 OA
ATOM     29  H   UNL     1       7.734  -5.706  28.059  0.00  0.00    +0.209 HD
ENDBRANCH  27  28
ENDBRANCH  26  27
ENDBRANCH  25  26
ENDBRANCH  18  25
ENDBRANCH   1  18
BRANCH   1  30
ATOM     30  C   UNL     1       4.869  -4.206  25.398  0.00  0.00    +0.016 C 
BRANCH  30  31
ATOM     31  C   UNL     1       3.333  -4.385  25.402  0.00  0.00    -0.016 C 
ATOM     32  C   UNL     1       2.885  -4.833  24.000  0.00  0.00    +0.007 C 
ATOM     33  C   UNL     1       2.546  -3.130  25.770  0.00  0.00    +0.007 C 
ENDBRANCH  30  31
ENDBRANCH   1  30
TORSDOF 14
ENDMDL
