MODEL 1
REMARK VINA RESULT:      -7.8      0.000      0.000
REMARK  Name = 
REMARK  8 active torsions:
REMARK  status: ('A' for Active; 'I' for Inactive)
REMARK    1  A    between atoms: C_1  and  C_2
REMARK    2  A    between atoms: C_4  and  C_5
REMARK    3  A    between atoms: C_5  and  N_6
REMARK    4  A    between atoms: C_7  and  C_9
REMARK    5  A    between atoms: C_11  and  C_15
REMARK    6  A    between atoms: N_17  and  C_18
REMARK    7  A    between atoms: C_18  and  C_19
REMARK    8  A    between atoms: C_23  and  C_24
REMARK                            x       y       z     vdW  Elec       q    Type
REMARK                         _______ _______ _______ _____ _____    ______ ____
ROOT
ATOM      1  C   UNL     1       9.512  -1.940  23.872  0.00  0.00    +0.129 A 
ATOM      2  N   UNL     1      10.057  -2.024  22.633  0.00  0.00    -0.231 NA
ATOM      3  C   UNL     1      10.180  -0.863  21.975  0.00  0.00    +0.222 A 
ATOM      4  N   UNL     1       9.810   0.343  22.423  0.00  0.00    -0.231 NA
ATOM      5  C   UNL     1       9.262   0.362  23.663  0.00  0.00    +0.129 A 
ATOM      6  C   UNL     1       9.094  -0.760  24.447  0.00  0.00    +0.066 A 
ENDROOT
BRANCH   1   9
ATOM      7  N   UNL     1       8.292  -3.297  25.486  0.00  0.00    -0.306 N 
ATOM      8  H   UNL     1       7.754  -2.447  25.622  0.00  0.00    +0.149 HD
ATOM      9  C   UNL     1       9.367  -3.236  24.624  0.00  0.00    +0.263 C 
ATOM     10  O   UNL     1      10.163  -4.152  24.462  0.00  0.00    -0.269 OA
BRANCH   7  11
ATOM     11  C   UNL     1       8.035  -4.439  26.339  0.00  0.00    +0.140 C 
BRANCH  11  17
ATOM     12  C   UNL     1       4.779  -5.887  22.727  0.00  0.00    +0.044 C 
ATOM     13  C   UNL     1       5.230  -5.882  24.160  0.00  0.00    -0.050 A 
ATOM     14  C   UNL     1       4.515  -6.621  25.110  0.00  0.00    +0.003 A 
ATOM     15  C   UNL     1       4.928  -6.644  26.440  0.00  0.00    +0.001 A 
ATOM     16  C   UNL     1       6.066  -5.938  26.832  0.00  0.00    +0.005 A 
ATOM     17  C   UNL     1       6.809  -5.202  25.897  0.00  0.00    -0.030 A 
ATOM     18  C   UNL     1       6.373  -5.173  24.561  0.00  0.00    +0.008 A 
ENDBRANCH  11  17
ENDBRANCH   7  11
ENDBRANCH   1   9
BRANCH   5  19
ATOM     19  C   UNL     1       8.803   1.699  24.170  0.00  0.00    +0.263 C 
ATOM     20  N   UNL     1       8.932   2.754  23.288  0.00  0.00    -0.306 N 
ATOM     21  H   UNL     1       9.430   2.583  22.420  0.00  0.00    +0.149 HD
ATOM     22  O   UNL     1       8.338   1.813  25.301  0.00  0.00    -0.269 OA
BRANCH  20  23
ATOM     23  C   UNL     1       8.588   4.108  23.663  0.00  0.00    +0.140 C 
BRANCH  23  24
ATOM     24  C   UNL     1       9.800   4.934  24.019  0.00  0.00    -0.030 A 
ATOM     25  C   UNL     1      11.031   4.700  23.382  0.00  0.00    +0.008 A 
ATOM     26  C   UNL     1      12.154   5.495  23.660  0.00  0.00    -0.050 A 
ATOM     27  C   UNL     1      13.456   5.234  22.960  0.00  0.00    +0.044 C 
ATOM     28  C   UNL     1      12.049   6.514  24.612  0.00  0.00    +0.003 A 
ATOM     29  C   UNL     1      10.837   6.745  25.264  0.00  0.00    +0.001 A 
ATOM     30  C   UNL     1       9.720   5.959  24.971  0.00  0.00    +0.005 A 
ENDBRANCH  23  24
ENDBRANCH  20  23
ENDBRANCH   5  19
TORSDOF 6
ENDMDL
MODEL 2
REMARK VINA RESULT:      -7.8      0.611     10.063
REMARK  Name = 
REMARK  8 active torsions:
REMARK  status: ('A' for Active; 'I' for Inactive)
REMARK    1  A    between atoms: C_1  and  C_2
REMARK    2  A    between atoms: C_4  and  C_5
REMARK    3  A    between atoms: C_5  and  N_6
REMARK    4  A    between atoms: C_7  and  C_9
REMARK    5  A    between atoms: C_11  and  C_15
REMARK    6  A    between atoms: N_17  and  C_18
REMARK    7  A    between atoms: C_18  and  C_19
REMARK    8  A    between atoms: C_23  and  C_24
REMARK                            x       y       z     vdW  Elec       q    Type
REMARK                         _______ _______ _______ _____ _____    ______ ____
ROOT
ATOM      1  C   UNL     1       9.030   1.005  23.345  0.00  0.00    +0.129 A 
ATOM      2  N   UNL     1       9.307   1.004  22.017  0.00  0.00    -0.231 NA
ATOM      3  C   UNL     1       9.556  -0.198  21.479  0.00  0.00    +0.222 A 
ATOM      4  N   UNL     1       9.564  -1.369  22.127  0.00  0.00    -0.231 NA
ATOM      5  C   UNL     1       9.291  -1.303  23.454  0.00  0.00    +0.129 A 
ATOM      6  C   UNL     1       9.004  -0.132  24.123  0.00  0.00    +0.066 A 
ENDROOT
BRANCH   1   9
ATOM      7  N   UNL     1       8.738   3.409  23.084  0.00  0.00    -0.306 N 
ATOM      8  H   UNL     1       9.020   3.225  22.127  0.00  0.00    +0.149 HD
ATOM      9  C   UNL     1       8.747   2.347  23.964  0.00  0.00    +0.263 C 
ATOM     10  O   UNL     1       8.542   2.457  25.166  0.00  0.00    -0.269 OA
BRANCH   7  11
ATOM     11  C   UNL     1       8.549   4.780  23.512  0.00  0.00    +0.140 C 
BRANCH  11  17
ATOM     12  C   UNL     1      13.565   5.370  23.026  0.00  0.00    +0.044 C 
ATOM     13  C   UNL     1      12.269   5.685  23.718  0.00  0.00    -0.050 A 
ATOM     14  C   UNL     1      12.256   6.607  24.771  0.00  0.00    +0.003 A 
ATOM     15  C   UNL     1      11.061   6.925  25.412  0.00  0.00    +0.001 A 
ATOM     16  C   UNL     1       9.866   6.333  25.001  0.00  0.00    +0.005 A 
ATOM     17  C   UNL     1       9.850   5.416  23.940  0.00  0.00    -0.030 A 
ATOM     18  C   UNL     1      11.064   5.091  23.311  0.00  0.00    +0.008 A 
ENDBRANCH  11  17
ENDBRANCH   7  11
ENDBRANCH   1   9
BRANCH   5  19
ATOM     19  C   UNL     1       9.334  -2.600  24.210  0.00  0.00    +0.263 C 
ATOM     20  N   UNL     1       8.303  -2.810  25.106  0.00  0.00    -0.306 N 
ATOM     21  H   UNL     1       7.666  -2.039  25.278  0.00  0.00    +0.149 HD
ATOM     22  O   UNL     1      10.239  -3.406  24.017  0.00  0.00    -0.269 OA
BRANCH  20  23
ATOM     23  C   UNL     1       8.251  -3.985  25.947  0.00  0.00    +0.140 C 
BRANCH  23  24
ATOM     24  C   UNL     1       7.027  -4.828  25.688  0.00  0.00    -0.030 A 
ATOM     25  C   UNL     1       6.474  -4.899  24.398  0.00  0.00    +0.008 A 
ATOM     26  C   UNL     1       5.369  -5.721  24.126  0.00  0.00    -0.050 A 
ATOM     27  C   UNL     1       4.802  -5.790  22.738  0.00  0.00    +0.044 C 
ATOM     28  C   UNL     1       4.792  -6.454  25.169  0.00  0.00    +0.003 A 
ATOM     29  C   UNL     1       5.321  -6.378  26.458  0.00  0.00    +0.001 A 
ATOM     30  C   UNL     1       6.430  -5.568  26.717  0.00  0.00    +0.005 A 
ENDBRANCH  23  24
ENDBRANCH  20  23
ENDBRANCH   5  19
TORSDOF 6
ENDMDL
MODEL 3
REMARK VINA RESULT:      -7.6      2.756      4.843
REMARK  Name = 
REMARK  8 active torsions:
REMARK  status: ('A' for Active; 'I' for Inactive)
REMARK    1  A    between atoms: C_1  and  C_2
REMARK    2  A    between atoms: C_4  and  C_5
REMARK    3  A    between atoms: C_5  and  N_6
REMARK    4  A    between atoms: C_7  and  C_9
REMARK    5  A    between atoms: C_11  and  C_15
REMARK    6  A    between atoms: N_17  and  C_18
REMARK    7  A    between atoms: C_18  and  C_19
REMARK    8  A    between atoms: C_23  and  C_24
REMARK                            x       y       z     vdW  Elec       q    Type
REMARK                         _______ _______ _______ _____ _____    ______ ____
ROOT
ATOM      1  C   UNL     1       7.265  -5.096  25.470  0.00  0.00    +0.129 A 
ATOM      2  N   UNL     1       8.409  -5.627  25.969  0.00  0.00    -0.231 NA
ATOM      3  C   UNL     1       9.546  -5.130  25.462  0.00  0.00    +0.222 A 
ATOM      4  N   UNL     1       9.646  -4.183  24.522  0.00  0.00    -0.231 NA
ATOM      5  C   UNL     1       8.468  -3.698  24.055  0.00  0.00    +0.129 A 
ATOM      6  C   UNL     1       7.233  -4.115  24.504  0.00  0.00    +0.066 A 
ENDROOT
BRANCH   1   9
ATOM      7  N   UNL     1       4.830  -5.047  25.552  0.00  0.00    -0.306 N 
ATOM      8  H   UNL     1       4.941  -4.233  24.954  0.00  0.00    +0.149 HD
ATOM      9  C   UNL     1       5.979  -5.644  26.029  0.00  0.00    +0.263 C 
ATOM     10  O   UNL     1       5.983  -6.554  26.847  0.00  0.00    -0.269 OA
BRANCH   7  11
ATOM     11  C   UNL     1       3.509  -5.399  26.026  0.00  0.00    +0.140 C 
BRANCH  11  17
ATOM     12  C   UNL     1       1.283  -9.870  25.132  0.00  0.00    +0.044 C 
ATOM     13  C   UNL     1       1.765  -8.528  24.660  0.00  0.00    -0.050 A 
ATOM     14  C   UNL     1       1.553  -8.149  23.329  0.00  0.00    +0.003 A 
ATOM     15  C   UNL     1       1.977  -6.901  22.876  0.00  0.00    +0.001 A 
ATOM     16  C   UNL     1       2.607  -6.016  23.752  0.00  0.00    +0.005 A 
ATOM     17  C   UNL     1       2.819  -6.366  25.094  0.00  0.00    -0.030 A 
ATOM     18  C   UNL     1       2.402  -7.634  25.534  0.00  0.00    +0.008 A 
ENDBRANCH  11  17
ENDBRANCH   7  11
ENDBRANCH   1   9
BRANCH   5  19
ATOM     19  C   UNL     1       8.555  -2.663  22.970  0.00  0.00    +0.263 C 
ATOM     20  N   UNL     1       9.761  -1.996  22.870  0.00  0.00    -0.306 N 
ATOM     21  H   UNL     1      10.450  -2.159  23.596  0.00  0.00    +0.149 HD
ATOM     22  O   UNL     1       7.600  -2.452  22.229  0.00  0.00    -0.269 OA
BRANCH  20  23
ATOM     23  C   UNL     1       9.966  -0.931  21.913  0.00  0.00    +0.140 C 
BRANCH  23  24
ATOM     24  C   UNL     1       9.667   0.430  22.490  0.00  0.00    -0.030 A 
ATOM     25  C   UNL     1       8.602   1.196  21.988  0.00  0.00    +0.008 A 
ATOM     26  C   UNL     1       8.275   2.441  22.550  0.00  0.00    -0.050 A 
ATOM     27  C   UNL     1       7.125   3.237  22.004  0.00  0.00    +0.044 C 
ATOM     28  C   UNL     1       9.046   2.936  23.605  0.00  0.00    +0.003 A 
ATOM     29  C   UNL     1      10.118   2.192  24.101  0.00  0.00    +0.001 A 
ATOM     30  C   UNL     1      10.428   0.949  23.546  0.00  0.00    +0.005 A 
ENDBRANCH  23  24
ENDBRANCH  20  23
ENDBRANCH   5  19
TORSDOF 6
ENDMDL
MODEL 4
REMARK VINA RESULT:      -7.5      2.439      4.012
REMARK  Name = 
REMARK  8 active torsions:
REMARK  status: ('A' for Active; 'I' for Inactive)
REMARK    1  A    between atoms: C_1  and  C_2
REMARK    2  A    between atoms: C_4  and  C_5
REMARK    3  A    between atoms: C_5  and  N_6
REMARK    4  A    between atoms: C_7  and  C_9
REMARK    5  A    between atoms: C_11  and  C_15
REMARK    6  A    between atoms: N_17  and  C_18
REMARK    7  A    between atoms: C_18  and  C_19
REMARK    8  A    between atoms: C_23  and  C_24
REMARK                            x       y       z     vdW  Elec       q    Type
REMARK                         _______ _______ _______ _____ _____    ______ ____
ROOT
ATOM      1  C   UNL     1       6.886  -3.864  23.708  0.00  0.00    +0.129 A 
ATOM      2  N   UNL     1       7.399  -4.926  24.378  0.00  0.00    -0.231 NA
ATOM      3  C   UNL     1       8.707  -4.854  24.661  0.00  0.00    +0.222 A 
ATOM      4  N   UNL     1       9.533  -3.851  24.337  0.00  0.00    -0.231 NA
ATOM      5  C   UNL     1       8.964  -2.823  23.659  0.00  0.00    +0.129 A 
ATOM      6  C   UNL     1       7.629  -2.771  23.321  0.00  0.00    +0.066 A 
ENDROOT
BRANCH   1   9
ATOM      7  N   UNL     1       4.580  -4.047  24.473  0.00  0.00    -0.306 N 
ATOM      8  H   UNL     1       5.013  -4.183  25.381  0.00  0.00    +0.149 HD
ATOM      9  C   UNL     1       5.418  -3.929  23.383  0.00  0.00    +0.263 C 
ATOM     10  O   UNL     1       5.024  -3.879  22.225  0.00  0.00    -0.269 OA
BRANCH   7  11
ATOM     11  C   UNL     1       3.145  -4.189  24.347  0.00  0.00    +0.140 C 
BRANCH  11  17
ATOM     12  C   UNL     1       0.970  -7.943  21.716  0.00  0.00    +0.044 C 
ATOM     13  C   UNL     1       1.671  -7.439  22.945  0.00  0.00    -0.050 A 
ATOM     14  C   UNL     1       1.978  -8.333  23.978  0.00  0.00    +0.003 A 
ATOM     15  C   UNL     1       2.645  -7.888  25.118  0.00  0.00    +0.001 A 
ATOM     16  C   UNL     1       3.020  -6.549  25.232  0.00  0.00    +0.005 A 
ATOM     17  C   UNL     1       2.737  -5.636  24.205  0.00  0.00    -0.030 A 
ATOM     18  C   UNL     1       2.050  -6.093  23.067  0.00  0.00    +0.008 A 
ENDBRANCH  11  17
ENDBRANCH   7  11
ENDBRANCH   1   9
BRANCH   5  19
ATOM     19  C   UNL     1       9.880  -1.705  23.250  0.00  0.00    +0.263 C 
ATOM     20  N   UNL     1       9.811  -0.558  24.017  0.00  0.00    -0.306 N 
ATOM     21  H   UNL     1       9.076  -0.504  24.715  0.00  0.00    +0.149 HD
ATOM     22  O   UNL     1      10.637  -1.836  22.292  0.00  0.00    -0.269 OA
BRANCH  20  23
ATOM     23  C   UNL     1      10.589   0.619  23.701  0.00  0.00    +0.140 C 
BRANCH  23  24
ATOM     24  C   UNL     1       9.900   1.896  24.115  0.00  0.00    -0.030 A 
ATOM     25  C   UNL     1      10.408   3.141  23.708  0.00  0.00    +0.008 A 
ATOM     26  C   UNL     1       9.750   4.336  24.037  0.00  0.00    -0.050 A 
ATOM     27  C   UNL     1      10.305   5.654  23.583  0.00  0.00    +0.044 C 
ATOM     28  C   UNL     1       8.586   4.282  24.811  0.00  0.00    +0.003 A 
ATOM     29  C   UNL     1       8.081   3.053  25.237  0.00  0.00    +0.001 A 
ATOM     30  C   UNL     1       8.735   1.867  24.893  0.00  0.00    +0.005 A 
ENDBRANCH  23  24
ENDBRANCH  20  23
ENDBRANCH   5  19
TORSDOF 6
ENDMDL
MODEL 5
REMARK VINA RESULT:      -7.4      1.510     10.146
REMARK  Name = 
REMARK  8 active torsions:
REMARK  status: ('A' for Active; 'I' for Inactive)
REMARK    1  A    between atoms: C_1  and  C_2
REMARK    2  A    between atoms: C_4  and  C_5
REMARK    3  A    between atoms: C_5  and  N_6
REMARK    4  A    between atoms: C_7  and  C_9
REMARK    5  A    between atoms: C_11  and  C_15
REMARK    6  A    between atoms: N_17  and  C_18
REMARK    7  A    between atoms: C_18  and  C_19
REMARK    8  A    between atoms: C_23  and  C_24
REMARK                            x       y       z     vdW  Elec       q    Type
REMARK                         _______ _______ _______ _____ _____    ______ ____
ROOT
ATOM      1  C   UNL     1       8.504   0.742  23.491  0.00  0.00    +0.129 A 
ATOM      2  N   UNL     1       9.825   0.565  23.239  0.00  0.00    -0.231 NA
ATOM      3  C   UNL     1      10.164  -0.636  22.750  0.00  0.00    +0.222 A 
ATOM      4  N   UNL     1       9.331  -1.655  22.504  0.00  0.00    -0.231 NA
ATOM      5  C   UNL     1       8.025  -1.421  22.786  0.00  0.00    +0.129 A 
ATOM      6  C   UNL     1       7.547  -0.225  23.278  0.00  0.00    +0.066 A 
ENDROOT
BRANCH   1   9
ATOM      7  N   UNL     1       8.630   3.172  23.369  0.00  0.00    -0.306 N 
ATOM      8  H   UNL     1       9.310   2.986  22.639  0.00  0.00    +0.149 HD
ATOM      9  C   UNL     1       8.107   2.086  24.040  0.00  0.00    +0.263 C 
ATOM     10  O   UNL     1       7.370   2.178  25.013  0.00  0.00    -0.269 OA
BRANCH   7  11
ATOM     11  C   UNL     1       8.409   4.538  23.795  0.00  0.00    +0.140 C 
BRANCH  11  17
ATOM     12  C   UNL     1      13.383   5.206  23.049  0.00  0.00    +0.044 C 
ATOM     13  C   UNL     1      12.107   5.549  23.763  0.00  0.00    -0.050 A 
ATOM     14  C   UNL     1      12.109   6.563  24.729  0.00  0.00    +0.003 A 
ATOM     15  C   UNL     1      10.931   6.908  25.389  0.00  0.00    +0.001 A 
ATOM     16  C   UNL     1       9.739   6.252  25.083  0.00  0.00    +0.005 A 
ATOM     17  C   UNL     1       9.707   5.243  24.110  0.00  0.00    -0.030 A 
ATOM     18  C   UNL     1      10.904   4.892  23.462  0.00  0.00    +0.008 A 
ENDBRANCH  11  17
ENDBRANCH   7  11
ENDBRANCH   1   9
BRANCH   5  19
ATOM     19  C   UNL     1       7.078  -2.563  22.556  0.00  0.00    +0.263 C 
ATOM     20  N   UNL     1       7.615  -3.829  22.695  0.00  0.00    -0.306 N 
ATOM     21  H   UNL     1       8.619  -3.902  22.820  0.00  0.00    +0.149 HD
ATOM     22  O   UNL     1       5.902  -2.353  22.272  0.00  0.00    -0.269 OA
BRANCH  20  23
ATOM     23  C   UNL     1       6.835  -5.020  22.442  0.00  0.00    +0.140 C 
BRANCH  23  24
ATOM     24  C   UNL     1       6.202  -5.574  23.694  0.00  0.00    -0.030 A 
ATOM     25  C   UNL     1       6.747  -5.278  24.955  0.00  0.00    +0.008 A 
ATOM     26  C   UNL     1       6.140  -5.739  26.134  0.00  0.00    -0.050 A 
ATOM     27  C   UNL     1       6.733  -5.402  27.471  0.00  0.00    +0.044 C 
ATOM     28  C   UNL     1       4.991  -6.531  26.044  0.00  0.00    +0.003 A 
ATOM     29  C   UNL     1       4.451  -6.847  24.797  0.00  0.00    +0.001 A 
ATOM     30  C   UNL     1       5.053  -6.373  23.629  0.00  0.00    +0.005 A 
ENDBRANCH  23  24
ENDBRANCH  20  23
ENDBRANCH   5  19
TORSDOF 6
ENDMDL
MODEL 6
REMARK VINA RESULT:      -7.2      1.350     10.219
REMARK  Name = 
REMARK  8 active torsions:
REMARK  status: ('A' for Active; 'I' for Inactive)
REMARK    1  A    between atoms: C_1  and  C_2
REMARK    2  A    between atoms: C_4  and  C_5
REMARK    3  A    between atoms: C_5  and  N_6
REMARK    4  A    between atoms: C_7  and  C_9
REMARK    5  A    between atoms: C_11  and  C_15
REMARK    6  A    between atoms: N_17  and  C_18
REMARK    7  A    between atoms: C_18  and  C_19
REMARK    8  A    between atoms: C_23  and  C_24
REMARK                            x       y       z     vdW  Elec       q    Type
REMARK                         _______ _______ _______ _____ _____    ______ ____
ROOT
ATOM      1  C   UNL     1       8.704   0.891  24.833  0.00  0.00    +0.129 A 
ATOM      2  N   UNL     1       9.725   0.544  24.010  0.00  0.00    -0.231 NA
ATOM      3  C   UNL     1       9.987  -0.768  23.935  0.00  0.00    +0.222 A 
ATOM      4  N   UNL     1       9.348  -1.742  24.595  0.00  0.00    -0.231 NA
ATOM      5  C   UNL     1       8.344  -1.332  25.410  0.00  0.00    +0.129 A 
ATOM      6  C   UNL     1       7.967  -0.015  25.564  0.00  0.00    +0.066 A 
ENDROOT
BRANCH   1   9
ATOM      7  N   UNL     1       8.657   3.090  23.787  0.00  0.00    -0.306 N 
ATOM      8  H   UNL     1       9.123   2.611  23.023  0.00  0.00    +0.149 HD
ATOM      9  C   UNL     1       8.396   2.361  24.928  0.00  0.00    +0.263 C 
ATOM     10  O   UNL     1       7.947   2.847  25.958  0.00  0.00    -0.269 OA
BRANCH   7  11
ATOM     11  C   UNL     1       8.484   4.526  23.717  0.00  0.00    +0.140 C 
BRANCH  11  17
ATOM     12  C   UNL     1      13.448   5.338  23.050  0.00  0.00    +0.044 C 
ATOM     13  C   UNL     1      12.154   5.636  23.752  0.00  0.00    -0.050 A 
ATOM     14  C   UNL     1      12.116   6.633  24.734  0.00  0.00    +0.003 A 
ATOM     15  C   UNL     1      10.921   6.936  25.383  0.00  0.00    +0.001 A 
ATOM     16  C   UNL     1       9.751   6.253  25.050  0.00  0.00    +0.005 A 
ATOM     17  C   UNL     1       9.759   5.260  24.060  0.00  0.00    -0.030 A 
ATOM     18  C   UNL     1      10.973   4.952  23.424  0.00  0.00    +0.008 A 
ENDBRANCH  11  17
ENDBRANCH   7  11
ENDBRANCH   1   9
BRANCH   5  19
ATOM     19  C   UNL     1       7.640  -2.404  26.192  0.00  0.00    +0.263 C 
ATOM     20  N   UNL     1       8.127  -3.687  26.029  0.00  0.00    -0.306 N 
ATOM     21  H   UNL     1       8.832  -3.834  25.315  0.00  0.00    +0.149 HD
ATOM     22  O   UNL     1       6.698  -2.124  26.929  0.00  0.00    -0.269 OA
BRANCH  20  23
ATOM     23  C   UNL     1       7.506  -4.825  26.671  0.00  0.00    +0.140 C 
BRANCH  23  24
ATOM     24  C   UNL     1       6.449  -5.470  25.809  0.00  0.00    -0.030 A 
ATOM     25  C   UNL     1       6.506  -5.352  24.409  0.00  0.00    +0.008 A 
ATOM     26  C   UNL     1       5.563  -5.991  23.589  0.00  0.00    -0.050 A 
ATOM     27  C   UNL     1       5.649  -5.861  22.096  0.00  0.00    +0.044 C 
ATOM     28  C   UNL     1       4.533  -6.729  24.181  0.00  0.00    +0.003 A 
ATOM     29  C   UNL     1       4.456  -6.838  25.571  0.00  0.00    +0.001 A 
ATOM     30  C   UNL     1       5.406  -6.211  26.379  0.00  0.00    +0.005 A 
ENDBRANCH  23  24
ENDBRANCH  20  23
ENDBRANCH   5  19
TORSDOF 6
ENDMDL
MODEL 7
REMARK VINA RESULT:      -7.1      1.840      9.493
REMARK  Name = 
REMARK  8 active torsions:
REMARK  status: ('A' for Active; 'I' for Inactive)
REMARK    1  A    between atoms: C_1  and  C_2
REMARK    2  A    between atoms: C_4  and  C_5
REMARK    3  A    between atoms: C_5  and  N_6
REMARK    4  A    between atoms: C_7  and  C_9
REMARK    5  A    between atoms: C_11  and  C_15
REMARK    6  A    between atoms: N_17  and  C_18
REMARK    7  A    between atoms: C_18  and  C_19
REMARK    8  A    between atoms: C_23  and  C_24
REMARK                            x       y       z     vdW  Elec       q    Type
REMARK                         _______ _______ _______ _____ _____    ______ ____
ROOT
ATOM      1  C   UNL     1       9.705   0.353  23.437  0.00  0.00    +0.129 A 
ATOM      2  N   UNL     1       9.684   0.210  22.088  0.00  0.00    -0.231 NA
ATOM      3  C   UNL     1       9.575  -1.049  21.642  0.00  0.00    +0.222 A 
ATOM      4  N   UNL     1       9.496  -2.152  22.396  0.00  0.00    -0.231 NA
ATOM      5  C   UNL     1       9.532  -1.946  23.736  0.00  0.00    +0.129 A 
ATOM      6  C   UNL     1       9.628  -0.701  24.320  0.00  0.00    +0.066 A 
ENDROOT
BRANCH   1   9
ATOM      7  N   UNL     1       8.690   2.267  24.551  0.00  0.00    -0.306 N 
ATOM      8  H   UNL     1       7.847   1.704  24.503  0.00  0.00    +0.149 HD
ATOM      9  C   UNL     1       9.827   1.761  23.954  0.00  0.00    +0.263 C 
ATOM     10  O   UNL     1      10.873   2.387  23.841  0.00  0.00    -0.269 OA
BRANCH   7  11
ATOM     11  C   UNL     1       8.604   3.625  25.046  0.00  0.00    +0.140 C 
BRANCH  11  17
ATOM     12  C   UNL     1       4.317   5.103  22.769  0.00  0.00    +0.044 C 
ATOM     13  C   UNL     1       5.800   5.222  22.975  0.00  0.00    -0.050 A 
ATOM     14  C   UNL     1       6.515   6.204  22.279  0.00  0.00    +0.003 A 
ATOM     15  C   UNL     1       7.889   6.341  22.469  0.00  0.00    +0.001 A 
ATOM     16  C   UNL     1       8.558   5.506  23.365  0.00  0.00    +0.005 A 
ATOM     17  C   UNL     1       7.863   4.524  24.085  0.00  0.00    -0.030 A 
ATOM     18  C   UNL     1       6.480   4.384  23.872  0.00  0.00    +0.008 A 
ENDBRANCH  11  17
ENDBRANCH   7  11
ENDBRANCH   1   9
BRANCH   5  19
ATOM     19  C   UNL     1       9.486  -3.173  24.602  0.00  0.00    +0.263 C 
ATOM     20  N   UNL     1       8.564  -3.149  25.631  0.00  0.00    -0.306 N 
ATOM     21  H   UNL     1       8.076  -2.276  25.804  0.00  0.00    +0.149 HD
ATOM     22  O   UNL     1      10.229  -4.124  24.378  0.00  0.00    -0.269 OA
BRANCH  20  23
ATOM     23  C   UNL     1       8.453  -4.234  26.580  0.00  0.00    +0.140 C 
BRANCH  23  24
ATOM     24  C   UNL     1       7.160  -4.999  26.436  0.00  0.00    -0.030 A 
ATOM     25  C   UNL     1       6.593  -5.201  25.166  0.00  0.00    +0.008 A 
ATOM     26  C   UNL     1       5.420  -5.957  25.008  0.00  0.00    -0.050 A 
ATOM     27  C   UNL     1       4.838  -6.170  23.641  0.00  0.00    +0.044 C 
ATOM     28  C   UNL     1       4.793  -6.486  26.140  0.00  0.00    +0.003 A 
ATOM     29  C   UNL     1       5.336  -6.277  27.408  0.00  0.00    +0.001 A 
ATOM     30  C   UNL     1       6.511  -5.535  27.556  0.00  0.00    +0.005 A 
ENDBRANCH  23  24
ENDBRANCH  20  23
ENDBRANCH   5  19
TORSDOF 6
ENDMDL
MODEL 8
REMARK VINA RESULT:      -7.1      2.811      4.707
REMARK  Name = 
REMARK  8 active torsions:
REMARK  status: ('A' for Active; 'I' for Inactive)
REMARK    1  A    between atoms: C_1  and  C_2
REMARK    2  A    between atoms: C_4  and  C_5
REMARK    3  A    between atoms: C_5  and  N_6
REMARK    4  A    between atoms: C_7  and  C_9
REMARK    5  A    between atoms: C_11  and  C_15
REMARK    6  A    between atoms: N_17  and  C_18
REMARK    7  A    between atoms: C_18  and  C_19
REMARK    8  A    between atoms: C_23  and  C_24
REMARK                            x       y       z     vdW  Elec       q    Type
REMARK                         _______ _______ _______ _____ _____    ______ ____
ROOT
ATOM      1  C   UNL     1       7.095  -4.474  23.441  0.00  0.00    +0.129 A 
ATOM      2  N   UNL     1       7.699  -5.187  24.425  0.00  0.00    -0.231 NA
ATOM      3  C   UNL     1       8.884  -4.716  24.836  0.00  0.00    +0.222 A 
ATOM      4  N   UNL     1       9.512  -3.632  24.364  0.00  0.00    -0.231 NA
ATOM      5  C   UNL     1       8.864  -2.967  23.376  0.00  0.00    +0.129 A 
ATOM      6  C   UNL     1       7.636  -3.340  22.875  0.00  0.00    +0.066 A 
ENDROOT
BRANCH   1   9
ATOM      7  N   UNL     1       5.135  -5.869  23.826  0.00  0.00    -0.306 N 
ATOM      8  H   UNL     1       5.655  -6.175  24.643  0.00  0.00    +0.149 HD
ATOM      9  C   UNL     1       5.763  -4.990  22.968  0.00  0.00    +0.263 C 
ATOM     10  O   UNL     1       5.295  -4.636  21.893  0.00  0.00    -0.269 OA
BRANCH   7  11
ATOM     11  C   UNL     1       3.880  -6.515  23.506  0.00  0.00    +0.140 C 
BRANCH  11  17
ATOM     12  C   UNL     1       1.634  -2.994  26.386  0.00  0.00    +0.044 C 
ATOM     13  C   UNL     1       1.610  -3.950  25.228  0.00  0.00    -0.050 A 
ATOM     14  C   UNL     1       0.477  -4.012  24.408  0.00  0.00    +0.003 A 
ATOM     15  C   UNL     1       0.443  -4.879  23.318  0.00  0.00    +0.001 A 
ATOM     16  C   UNL     1       1.545  -5.685  23.031  0.00  0.00    +0.005 A 
ATOM     17  C   UNL     1       2.698  -5.632  23.827  0.00  0.00    -0.030 A 
ATOM     18  C   UNL     1       2.714  -4.765  24.934  0.00  0.00    +0.008 A 
ENDBRANCH  11  17
ENDBRANCH   7  11
ENDBRANCH   1   9
BRANCH   5  19
ATOM     19  C   UNL     1       9.569  -1.771  22.803  0.00  0.00    +0.263 C 
ATOM     20  N   UNL     1       8.859  -1.045  21.865  0.00  0.00    -0.306 N 
ATOM     21  H   UNL     1       7.977  -1.430  21.543  0.00  0.00    +0.149 HD
ATOM     22  O   UNL     1      10.703  -1.477  23.171  0.00  0.00    -0.269 OA
BRANCH  20  23
ATOM     23  C   UNL     1       9.436   0.093  21.184  0.00  0.00    +0.140 C 
BRANCH  23  24
ATOM     24  C   UNL     1       9.210   1.386  21.927  0.00  0.00    -0.030 A 
ATOM     25  C   UNL     1       7.969   2.042  21.847  0.00  0.00    +0.008 A 
ATOM     26  C   UNL     1       7.722   3.217  22.575  0.00  0.00    -0.050 A 
ATOM     27  C   UNL     1       6.386   3.895  22.483  0.00  0.00    +0.044 C 
ATOM     28  C   UNL     1       8.742   3.757  23.365  0.00  0.00    +0.003 A 
ATOM     29  C   UNL     1       9.984   3.124  23.438  0.00  0.00    +0.001 A 
ATOM     30  C   UNL     1      10.217   1.948  22.722  0.00  0.00    +0.005 A 
ENDBRANCH  23  24
ENDBRANCH  20  23
ENDBRANCH   5  19
TORSDOF 6
ENDMDL
MODEL 9
REMARK VINA RESULT:      -7.1      1.616      2.267
REMARK  Name = 
REMARK  8 active torsions:
REMARK  status: ('A' for Active; 'I' for Inactive)
REMARK    1  A    between atoms: C_1  and  C_2
REMARK    2  A    between atoms: C_4  and  C_5
REMARK    3  A    between atoms: C_5  and  N_6
REMARK    4  A    between atoms: C_7  and  C_9
REMARK    5  A    between atoms: C_11  and  C_15
REMARK    6  A    between atoms: N_17  and  C_18
REMARK    7  A    between atoms: C_18  and  C_19
REMARK    8  A    between atoms: C_23  and  C_24
REMARK                            x       y       z     vdW  Elec       q    Type
REMARK                         _______ _______ _______ _____ _____    ______ ____
ROOT
ATOM      1  C   UNL     1       8.178  -2.141  22.906  0.00  0.00    +0.129 A 
ATOM      2  N   UNL     1       9.362  -2.481  23.474  0.00  0.00    -0.231 NA
ATOM      3  C   UNL     1      10.171  -1.457  23.781  0.00  0.00    +0.222 A 
ATOM      4  N   UNL     1       9.919  -0.160  23.571  0.00  0.00    -0.231 NA
ATOM      5  C   UNL     1       8.725   0.116  22.991  0.00  0.00    +0.129 A 
ATOM      6  C   UNL     1       7.800  -0.844  22.640  0.00  0.00    +0.066 A 
ENDROOT
BRANCH   1   9
ATOM      7  N   UNL     1       7.122  -4.246  23.530  0.00  0.00    -0.306 N 
ATOM      8  H   UNL     1       7.719  -4.171  24.348  0.00  0.00    +0.149 HD
ATOM      9  C   UNL     1       7.258  -3.280  22.555  0.00  0.00    +0.263 C 
ATOM     10  O   UNL     1       6.685  -3.318  21.474  0.00  0.00    -0.269 OA
BRANCH   7  11
ATOM     11  C   UNL     1       6.331  -5.444  23.342  0.00  0.00    +0.140 C 
BRANCH  11  17
ATOM     12  C   UNL     1       6.191  -5.591  28.412  0.00  0.00    +0.044 C 
ATOM     13  C   UNL     1       5.635  -5.985  27.074  0.00  0.00    -0.050 A 
ATOM     14  C   UNL     1       4.479  -6.772  27.012  0.00  0.00    +0.003 A 
ATOM     15  C   UNL     1       3.937  -7.133  25.780  0.00  0.00    +0.001 A 
ATOM     16  C   UNL     1       4.539  -6.700  24.598  0.00  0.00    +0.005 A 
ATOM     17  C   UNL     1       5.689  -5.898  24.631  0.00  0.00    -0.030 A 
ATOM     18  C   UNL     1       6.236  -5.555  25.880  0.00  0.00    +0.008 A 
ENDBRANCH  11  17
ENDBRANCH   7  11
ENDBRANCH   1   9
BRANCH   5  19
ATOM     19  C   UNL     1       8.438   1.564  22.708  0.00  0.00    +0.263 C 
ATOM     20  N   UNL     1       8.600   2.429  23.774  0.00  0.00    -0.306 N 
ATOM     21  H   UNL     1       8.780   2.022  24.686  0.00  0.00    +0.149 HD
ATOM     22  O   UNL     1       8.091   1.925  21.588  0.00  0.00    -0.269 OA
BRANCH  20  23
ATOM     23  C   UNL     1       8.299   3.839  23.663  0.00  0.00    +0.140 C 
BRANCH  23  24
ATOM     24  C   UNL     1       9.485   4.711  23.994  0.00  0.00    -0.030 A 
ATOM     25  C   UNL     1      10.740   4.452  23.417  0.00  0.00    +0.008 A 
ATOM     26  C   UNL     1      11.841   5.286  23.670  0.00  0.00    -0.050 A 
ATOM     27  C   UNL     1      13.169   4.996  23.034  0.00  0.00    +0.044 C 
ATOM     28  C   UNL     1      11.689   6.371  24.539  0.00  0.00    +0.003 A 
ATOM     29  C   UNL     1      10.452   6.628  25.133  0.00  0.00    +0.001 A 
ATOM     30  C   UNL     1       9.358   5.802  24.864  0.00  0.00    +0.005 A 
ENDBRANCH  23  24
ENDBRANCH  20  23
ENDBRANCH   5  19
TORSDOF 6
ENDMDL
