MODEL 1
REMARK VINA RESULT:      -5.8      0.000      0.000
REMARK  Name = 
REMARK  5 active torsions:
REMARK  status: ('A' for Active; 'I' for Inactive)
REMARK    1  A    between atoms: C5M_1  and  C5_2
REMARK    2  A    between atoms: N1_4  and  C1*_5
REMARK    3  A    between atoms: C3*_8  and  O3*_10
REMARK    4  A    between atoms: C4*_11  and  C5*_13
REMARK    5  A    between atoms: C5*_13  and  O5*_14
REMARK                            x       y       z     vdW  Elec       q    Type
REMARK                         _______ _______ _______ _____ _____    ______ ____
ROOT
ATOM      1  C5M   T A   1       7.941  -3.447  22.776  0.00  0.00    +0.051 C 
ATOM      2  C5    T A   1       7.776  -4.217  24.044  0.00  0.00    +0.030 A 
ATOM      3  C4    T A   1       8.997  -4.531  24.816  0.00  0.00    +0.257 A 
ATOM      4  O4    T A   1      10.099  -4.104  24.493  0.00  0.00    -0.267 OA
ATOM      5  N3    T A   1       8.807  -5.280  25.936  0.00  0.00    -0.275 N 
ATOM      6  H3    T A   1       9.621  -5.413  26.517  0.00  0.00    +0.173 HD
ATOM      7  C2    T A   1       7.602  -5.485  26.551  0.00  0.00    +0.331 A 
ATOM      8  O2    T A   1       7.583  -5.790  27.740  0.00  0.00    -0.246 OA
ATOM      9  N1    T A   1       6.476  -5.289  25.757  0.00  0.00    -0.274 N 
ATOM     10  C6    T A   1       6.599  -4.608  24.549  0.00  0.00    +0.101 A 
ENDROOT
BRANCH   9  11
ATOM     11  C1*   T A   1       5.129  -5.477  26.327  0.00  0.00    +0.226 C 
ATOM     12  O4*   T A   1       4.162  -4.882  25.422  0.00  0.00    -0.348 OA
ATOM     13  C4*   T A   1       3.384  -5.937  24.810  0.00  0.00    +0.175 C 
ATOM     14  C3*   T A   1       4.044  -7.252  25.200  0.00  0.00    +0.150 C 
ATOM     15  C2*   T A   1       4.618  -6.898  26.547  0.00  0.00    +0.088 C 
BRANCH  14  16
ATOM     16  O3*   T A   1       3.120  -8.329  25.258  0.00  0.00    -0.389 OA
ATOM     17  H3*   T A   1       3.487  -9.041  25.810  0.00  0.00    +0.210 HD
ENDBRANCH  14  16
BRANCH  13  18
ATOM     18  C5*   T A   1       3.301  -5.725  23.298  0.00  0.00    +0.190 C 
BRANCH  18  19
ATOM     19  O5*   T A   1       2.877  -6.910  22.627  0.00  0.00    -0.392 OA
ATOM     20  H5*   T A   1       3.140  -6.804  21.697  0.00  0.00    +0.210 HD
ENDBRANCH  18  19
ENDBRANCH  13  18
ENDBRANCH   9  11
TORSDOF 4
ENDMDL
MODEL 2
REMARK VINA RESULT:      -5.8      3.233      6.164
REMARK  Name = 
REMARK  5 active torsions:
REMARK  status: ('A' for Active; 'I' for Inactive)
REMARK    1  A    between atoms: C5M_1  and  C5_2
REMARK    2  A    between atoms: N1_4  and  C1*_5
REMARK    3  A    between atoms: C3*_8  and  O3*_10
REMARK    4  A    between atoms: C4*_11  and  C5*_13
REMARK    5  A    between atoms: C5*_13  and  O5*_14
REMARK                            x       y       z     vdW  Elec       q    Type
REMARK                         _______ _______ _______ _____ _____    ______ ____
ROOT
ATOM      1  C5M   T A   1       5.378  -4.056  27.235  0.00  0.00    +0.051 C 
ATOM      2  C5    T A   1       6.733  -4.148  26.616  0.00  0.00    +0.030 A 
ATOM      3  C4    T A   1       7.651  -5.184  27.133  0.00  0.00    +0.257 A 
ATOM      4  O4    T A   1       7.300  -6.006  27.972  0.00  0.00    -0.267 OA
ATOM      5  N3    T A   1       8.894  -5.198  26.579  0.00  0.00    -0.275 N 
ATOM      6  H3    T A   1       9.489  -5.963  26.857  0.00  0.00    +0.173 HD
ATOM      7  C2    T A   1       9.242  -4.572  25.413  0.00  0.00    +0.331 A 
ATOM      8  O2    T A   1      10.216  -4.978  24.785  0.00  0.00    -0.246 OA
ATOM      9  N1    T A   1       8.415  -3.526  25.017  0.00  0.00    -0.274 N 
ATOM     10  C6    T A   1       7.159  -3.386  25.601  0.00  0.00    +0.101 A 
ENDROOT
BRANCH   9  11
ATOM     11  C1*   T A   1       8.699  -2.790  23.770  0.00  0.00    +0.226 C 
ATOM     12  O4*   T A   1       7.754  -1.693  23.660  0.00  0.00    -0.348 OA
ATOM     13  C4*   T A   1       8.464  -0.445  23.838  0.00  0.00    +0.175 C 
ATOM     14  C3*   T A   1       9.875  -0.803  24.285  0.00  0.00    +0.150 C 
ATOM     15  C2*   T A   1      10.066  -2.132  23.602  0.00  0.00    +0.088 C 
BRANCH  14  16
ATOM     16  O3*   T A   1      10.834   0.166  23.888  0.00  0.00    -0.389 OA
ATOM     17  H3*   T A   1      11.729  -0.199  24.000  0.00  0.00    +0.210 HD
ENDBRANCH  14  16
BRANCH  13  18
ATOM     18  C5*   T A   1       7.721   0.450  24.830  0.00  0.00    +0.190 C 
BRANCH  18  19
ATOM     19  O5*   T A   1       8.628   1.174  25.660  0.00  0.00    -0.392 OA
ATOM     20  H5*   T A   1       8.996   1.883  25.106  0.00  0.00    +0.210 HD
ENDBRANCH  18  19
ENDBRANCH  13  18
ENDBRANCH   9  11
TORSDOF 4
ENDMDL
MODEL 3
REMARK VINA RESULT:      -5.7      3.511      4.920
REMARK  Name = 
REMARK  5 active torsions:
REMARK  status: ('A' for Active; 'I' for Inactive)
REMARK    1  A    between atoms: C5M_1  and  C5_2
REMARK    2  A    between atoms: N1_4  and  C1*_5
REMARK    3  A    between atoms: C3*_8  and  O3*_10
REMARK    4  A    between atoms: C4*_11  and  C5*_13
REMARK    5  A    between atoms: C5*_13  and  O5*_14
REMARK                            x       y       z     vdW  Elec       q    Type
REMARK                         _______ _______ _______ _____ _____    ______ ____
ROOT
ATOM      1  C5M   T A   1       9.829  -0.241  22.007  0.00  0.00    +0.051 C 
ATOM      2  C5    T A   1       9.522  -0.464  23.450  0.00  0.00    +0.030 A 
ATOM      3  C4    T A   1      10.160   0.439  24.432  0.00  0.00    +0.257 A 
ATOM      4  O4    T A   1      10.842   1.397  24.088  0.00  0.00    -0.267 OA
ATOM      5  N3    T A   1       9.895   0.167  25.739  0.00  0.00    -0.275 N 
ATOM      6  H3    T A   1      10.247   0.837  26.406  0.00  0.00    +0.173 HD
ATOM      7  C2    T A   1       8.881  -0.636  26.186  0.00  0.00    +0.331 A 
ATOM      8  O2    T A   1       8.460  -0.484  27.330  0.00  0.00    -0.246 OA
ATOM      9  N1    T A   1       8.383  -1.551  25.265  0.00  0.00    -0.274 N 
ATOM     10  C6    T A   1       8.681  -1.397  23.914  0.00  0.00    +0.101 A 
ENDROOT
BRANCH   9  11
ATOM     11  C1*   T A   1       7.283  -2.458  25.646  0.00  0.00    +0.226 C 
ATOM     12  O4*   T A   1       7.089  -3.418  24.574  0.00  0.00    -0.348 OA
ATOM     13  C4*   T A   1       7.508  -4.724  25.034  0.00  0.00    +0.175 C 
ATOM     14  C3*   T A   1       8.185  -4.517  26.382  0.00  0.00    +0.150 C 
ATOM     15  C2*   T A   1       7.439  -3.315  26.898  0.00  0.00    +0.088 C 
BRANCH  14  16
ATOM     16  O3*   T A   1       8.066  -5.649  27.231  0.00  0.00    -0.389 OA
ATOM     17  H3*   T A   1       8.772  -5.629  27.900  0.00  0.00    +0.210 HD
ENDBRANCH  14  16
BRANCH  13  18
ATOM     18  C5*   T A   1       8.413  -5.387  23.995  0.00  0.00    +0.190 C 
BRANCH  18  19
ATOM     19  O5*   T A   1       9.647  -5.809  24.571  0.00  0.00    -0.392 OA
ATOM     20  H5*   T A   1       9.446  -6.061  25.489  0.00  0.00    +0.210 HD
ENDBRANCH  18  19
ENDBRANCH  13  18
ENDBRANCH   9  11
TORSDOF 4
ENDMDL
MODEL 4
REMARK VINA RESULT:      -5.7      2.093      5.429
REMARK  Name = 
REMARK  5 active torsions:
REMARK  status: ('A' for Active; 'I' for Inactive)
REMARK    1  A    between atoms: C5M_1  and  C5_2
REMARK    2  A    between atoms: N1_4  and  C1*_5
REMARK    3  A    between atoms: C3*_8  and  O3*_10
REMARK    4  A    between atoms: C4*_11  and  C5*_13
REMARK    5  A    between atoms: C5*_13  and  O5*_14
REMARK                            x       y       z     vdW  Elec       q    Type
REMARK                         _______ _______ _______ _____ _____    ______ ____
ROOT
ATOM      1  C5M   T A   1       5.858  -5.930  21.906  0.00  0.00    +0.051 C 
ATOM      2  C5    T A   1       6.192  -5.696  23.342  0.00  0.00    +0.030 A 
ATOM      3  C4    T A   1       5.348  -6.362  24.356  0.00  0.00    +0.257 A 
ATOM      4  O4    T A   1       4.463  -7.153  24.049  0.00  0.00    -0.267 OA
ATOM      5  N3    T A   1       5.653  -6.080  25.652  0.00  0.00    -0.275 N 
ATOM      6  H3    T A   1       5.145  -6.607  26.346  0.00  0.00    +0.173 HD
ATOM      7  C2    T A   1       6.822  -5.512  26.079  0.00  0.00    +0.331 A 
ATOM      8  O2    T A   1       7.182  -5.688  27.240  0.00  0.00    -0.246 OA
ATOM      9  N1    T A   1       7.533  -4.797  25.120  0.00  0.00    -0.274 N 
ATOM     10  C6    T A   1       7.223  -4.960  23.773  0.00  0.00    +0.101 A 
ENDROOT
BRANCH   9  11
ATOM     11  C1*   T A   1       8.811  -4.152  25.478  0.00  0.00    +0.226 C 
ATOM     12  O4*   T A   1       9.543  -3.878  24.254  0.00  0.00    -0.348 OA
ATOM     13  C4*   T A   1       9.583  -2.447  24.043  0.00  0.00    +0.175 C 
ATOM     14  C3*   T A   1       8.653  -1.826  25.075  0.00  0.00    +0.150 C 
ATOM     15  C2*   T A   1       8.778  -2.812  26.207  0.00  0.00    +0.088 C 
BRANCH  14  16
ATOM     16  O3*   T A   1       9.045  -0.511  25.441  0.00  0.00    -0.389 OA
ATOM     17  H3*   T A   1       9.537  -0.541  26.280  0.00  0.00    +0.210 HD
ENDBRANCH  14  16
BRANCH  13  18
ATOM     18  C5*   T A   1       9.200  -2.114  22.601  0.00  0.00    +0.190 C 
BRANCH  18  19
ATOM     19  O5*   T A   1      10.324  -1.649  21.856  0.00  0.00    -0.392 OA
ATOM     20  H5*   T A   1      10.730  -2.437  21.457  0.00  0.00    +0.210 HD
ENDBRANCH  18  19
ENDBRANCH  13  18
ENDBRANCH   9  11
TORSDOF 4
ENDMDL
MODEL 5
REMARK VINA RESULT:      -5.6      2.901      4.847
REMARK  Name = 
REMARK  5 active torsions:
REMARK  status: ('A' for Active; 'I' for Inactive)
REMARK    1  A    between atoms: C5M_1  and  C5_2
REMARK    2  A    between atoms: N1_4  and  C1*_5
REMARK    3  A    between atoms: C3*_8  and  O3*_10
REMARK    4  A    between atoms: C4*_11  and  C5*_13
REMARK    5  A    between atoms: C5*_13  and  O5*_14
REMARK                            x       y       z     vdW  Elec       q    Type
REMARK                         _______ _______ _______ _____ _____    ______ ____
ROOT
ATOM      1  C5M   T A   1       5.385  -3.956  27.429  0.00  0.00    +0.051 C 
ATOM      2  C5    T A   1       6.725  -4.093  26.786  0.00  0.00    +0.030 A 
ATOM      3  C4    T A   1       7.584  -5.210  27.230  0.00  0.00    +0.257 A 
ATOM      4  O4    T A   1       7.193  -6.056  28.025  0.00  0.00    -0.267 OA
ATOM      5  N3    T A   1       8.817  -5.267  26.657  0.00  0.00    -0.275 N 
ATOM      6  H3    T A   1       9.369  -6.081  26.883  0.00  0.00    +0.173 HD
ATOM      7  C2    T A   1       9.190  -4.596  25.524  0.00  0.00    +0.331 A 
ATOM      8  O2    T A   1      10.131  -5.023  24.860  0.00  0.00    -0.246 OA
ATOM      9  N1    T A   1       8.423  -3.481  25.201  0.00  0.00    -0.274 N 
ATOM     10  C6    T A   1       7.185  -3.300  25.810  0.00  0.00    +0.101 A 
ENDROOT
BRANCH   9  11
ATOM     11  C1*   T A   1       8.738  -2.693  23.994  0.00  0.00    +0.226 C 
ATOM     12  O4*   T A   1       8.051  -3.291  22.864  0.00  0.00    -0.348 OA
ATOM     13  C4*   T A   1       7.000  -2.397  22.429  0.00  0.00    +0.175 C 
ATOM     14  C3*   T A   1       6.904  -1.293  23.473  0.00  0.00    +0.150 C 
ATOM     15  C2*   T A   1       8.331  -1.223  23.951  0.00  0.00    +0.088 C 
BRANCH  14  16
ATOM     16  O3*   T A   1       6.443  -0.066  22.927  0.00  0.00    -0.389 OA
ATOM     17  H3*   T A   1       5.716  -0.240  22.304  0.00  0.00    +0.210 HD
ENDBRANCH  14  16
BRANCH  13  18
ATOM     18  C5*   T A   1       5.693  -3.168  22.239  0.00  0.00    +0.190 C 
BRANCH  18  19
ATOM     19  O5*   T A   1       5.769  -4.057  21.126  0.00  0.00    -0.392 OA
ATOM     20  H5*   T A   1       6.712  -4.263  21.008  0.00  0.00    +0.210 HD
ENDBRANCH  18  19
ENDBRANCH  13  18
ENDBRANCH   9  11
TORSDOF 4
ENDMDL
MODEL 6
REMARK VINA RESULT:      -5.5      2.861      5.024
REMARK  Name = 
REMARK  5 active torsions:
REMARK  status: ('A' for Active; 'I' for Inactive)
REMARK    1  A    between atoms: C5M_1  and  C5_2
REMARK    2  A    between atoms: N1_4  and  C1*_5
REMARK    3  A    between atoms: C3*_8  and  O3*_10
REMARK    4  A    between atoms: C4*_11  and  C5*_13
REMARK    5  A    between atoms: C5*_13  and  O5*_14
REMARK                            x       y       z     vdW  Elec       q    Type
REMARK                         _______ _______ _______ _____ _____    ______ ____
ROOT
ATOM      1  C5M   T A   1       9.814  -0.489  21.865  0.00  0.00    +0.051 C 
ATOM      2  C5    T A   1       8.607  -1.111  22.485  0.00  0.00    +0.030 A 
ATOM      3  C4    T A   1       7.452  -0.231  22.761  0.00  0.00    +0.257 A 
ATOM      4  O4    T A   1       7.431   0.944  22.416  0.00  0.00    -0.267 OA
ATOM      5  N3    T A   1       6.393  -0.827  23.375  0.00  0.00    -0.275 N 
ATOM      6  H3    T A   1       5.568  -0.256  23.476  0.00  0.00    +0.173 HD
ATOM      7  C2    T A   1       6.194  -2.178  23.464  0.00  0.00    +0.331 A 
ATOM      8  O2    T A   1       5.054  -2.602  23.637  0.00  0.00    -0.246 OA
ATOM      9  N1    T A   1       7.327  -2.969  23.311  0.00  0.00    -0.274 N 
ATOM     10  C6    T A   1       8.484  -2.413  22.772  0.00  0.00    +0.101 A 
ENDROOT
BRANCH   9  11
ATOM     11  C1*   T A   1       7.218  -4.438  23.383  0.00  0.00    +0.226 C 
ATOM     12  O4*   T A   1       8.543  -4.985  23.614  0.00  0.00    -0.348 OA
ATOM     13  C4*   T A   1       8.594  -5.535  24.952  0.00  0.00    +0.175 C 
ATOM     14  C3*   T A   1       7.305  -5.120  25.647  0.00  0.00    +0.150 C 
ATOM     15  C2*   T A   1       6.355  -5.057  24.479  0.00  0.00    +0.088 C 
BRANCH  14  16
ATOM     16  O3*   T A   1       6.899  -6.048  26.641  0.00  0.00    -0.389 OA
ATOM     17  H3*   T A   1       7.573  -6.743  26.731  0.00  0.00    +0.210 HD
ENDBRANCH  14  16
BRANCH  13  18
ATOM     18  C5*   T A   1       9.855  -5.056  25.673  0.00  0.00    +0.190 C 
BRANCH  18  19
ATOM     19  O5*   T A   1       9.581  -4.713  27.030  0.00  0.00    -0.392 OA
ATOM     20  H5*   T A   1       9.428  -5.553  27.497  0.00  0.00    +0.210 HD
ENDBRANCH  18  19
ENDBRANCH  13  18
ENDBRANCH   9  11
TORSDOF 4
ENDMDL
MODEL 7
REMARK VINA RESULT:      -5.5      3.531      6.704
REMARK  Name = 
REMARK  5 active torsions:
REMARK  status: ('A' for Active; 'I' for Inactive)
REMARK    1  A    between atoms: C5M_1  and  C5_2
REMARK    2  A    between atoms: N1_4  and  C1*_5
REMARK    3  A    between atoms: C3*_8  and  O3*_10
REMARK    4  A    between atoms: C4*_11  and  C5*_13
REMARK    5  A    between atoms: C5*_13  and  O5*_14
REMARK                            x       y       z     vdW  Elec       q    Type
REMARK                         _______ _______ _______ _____ _____    ______ ____
ROOT
ATOM      1  C5M   T A   1       5.771  -3.301  21.560  0.00  0.00    +0.051 C 
ATOM      2  C5    T A   1       6.880  -3.448  22.548  0.00  0.00    +0.030 A 
ATOM      3  C4    T A   1       6.926  -4.694  23.342  0.00  0.00    +0.257 A 
ATOM      4  O4    T A   1       6.148  -5.620  23.146  0.00  0.00    -0.267 OA
ATOM      5  N3    T A   1       7.921  -4.764  24.268  0.00  0.00    -0.275 N 
ATOM      6  H3    T A   1       8.016  -5.649  24.743  0.00  0.00    +0.173 HD
ATOM      7  C2    T A   1       9.023  -3.953  24.302  0.00  0.00    +0.331 A 
ATOM      8  O2    T A   1      10.036  -4.347  24.873  0.00  0.00    -0.246 OA
ATOM      9  N1    T A   1       8.901  -2.738  23.637  0.00  0.00    -0.274 N 
ATOM     10  C6    T A   1       7.856  -2.550  22.736  0.00  0.00    +0.101 A 
ENDROOT
BRANCH   9  11
ATOM     11  C1*   T A   1      10.035  -1.795  23.608  0.00  0.00    +0.226 C 
ATOM     12  O4*   T A   1       9.915  -0.971  22.418  0.00  0.00    -0.348 OA
ATOM     13  C4*   T A   1       9.593   0.382  22.817  0.00  0.00    +0.175 C 
ATOM     14  C3*   T A   1       9.296   0.340  24.309  0.00  0.00    +0.150 C 
ATOM     15  C2*   T A   1      10.186  -0.793  24.748  0.00  0.00    +0.088 C 
BRANCH  14  16
ATOM     16  O3*   T A   1       9.599   1.566  24.959  0.00  0.00    -0.389 OA
ATOM     17  H3*   T A   1       9.597   2.288  24.307  0.00  0.00    +0.210 HD
ENDBRANCH  14  16
BRANCH  13  18
ATOM     18  C5*   T A   1       8.429   0.917  21.981  0.00  0.00    +0.190 C 
BRANCH  18  19
ATOM     19  O5*   T A   1       8.806   2.080  21.246  0.00  0.00    -0.392 OA
ATOM     20  H5*   T A   1       9.755   2.212  21.414  0.00  0.00    +0.210 HD
ENDBRANCH  18  19
ENDBRANCH  13  18
ENDBRANCH   9  11
TORSDOF 4
ENDMDL
MODEL 8
REMARK VINA RESULT:      -5.4      1.902      5.645
REMARK  Name = 
REMARK  5 active torsions:
REMARK  status: ('A' for Active; 'I' for Inactive)
REMARK    1  A    between atoms: C5M_1  and  C5_2
REMARK    2  A    between atoms: N1_4  and  C1*_5
REMARK    3  A    between atoms: C3*_8  and  O3*_10
REMARK    4  A    between atoms: C4*_11  and  C5*_13
REMARK    5  A    between atoms: C5*_13  and  O5*_14
REMARK                            x       y       z     vdW  Elec       q    Type
REMARK                         _______ _______ _______ _____ _____    ______ ____
ROOT
ATOM      1  C5M   T A   1       4.379  -6.754  26.935  0.00  0.00    +0.051 C 
ATOM      2  C5    T A   1       4.805  -6.318  25.573  0.00  0.00    +0.030 A 
ATOM      3  C4    T A   1       4.339  -7.120  24.422  0.00  0.00    +0.257 A 
ATOM      4  O4    T A   1       3.556  -8.054  24.554  0.00  0.00    -0.267 OA
ATOM      5  N3    T A   1       4.794  -6.720  23.204  0.00  0.00    -0.275 N 
ATOM      6  H3    T A   1       4.402  -7.202  22.410  0.00  0.00    +0.173 HD
ATOM      7  C2    T A   1       5.361  -5.503  22.937  0.00  0.00    +0.331 A 
ATOM      8  O2    T A   1       5.342  -5.075  21.786  0.00  0.00    -0.246 OA
ATOM      9  N1    T A   1       5.891  -4.828  24.032  0.00  0.00    -0.274 N 
ATOM     10  C6    T A   1       5.546  -5.232  25.319  0.00  0.00    +0.101 A 
ENDROOT
BRANCH   9  11
ATOM     11  C1*   T A   1       6.518  -3.505  23.852  0.00  0.00    +0.226 C 
ATOM     12  O4*   T A   1       6.785  -2.943  25.163  0.00  0.00    -0.348 OA
ATOM     13  C4*   T A   1       8.216  -2.912  25.376  0.00  0.00    +0.175 C 
ATOM     14  C3*   T A   1       8.847  -3.685  24.226  0.00  0.00    +0.150 C 
ATOM     15  C2*   T A   1       7.856  -3.421  23.123  0.00  0.00    +0.088 C 
BRANCH  14  16
ATOM     16  O3*   T A   1      10.155  -3.229  23.916  0.00  0.00    -0.389 OA
ATOM     17  H3*   T A   1      10.162  -2.256  23.888  0.00  0.00    +0.210 HD
ENDBRANCH  14  16
BRANCH  13  18
ATOM     18  C5*   T A   1       8.559  -3.485  26.752  0.00  0.00    +0.190 C 
BRANCH  18  19
ATOM     19  O5*   T A   1       9.105  -4.799  26.650  0.00  0.00    -0.392 OA
ATOM     20  H5*   T A   1      10.023  -4.736  26.964  0.00  0.00    +0.210 HD
ENDBRANCH  18  19
ENDBRANCH  13  18
ENDBRANCH   9  11
TORSDOF 4
ENDMDL
MODEL 9
REMARK VINA RESULT:      -5.3      5.111      7.982
REMARK  Name = 
REMARK  5 active torsions:
REMARK  status: ('A' for Active; 'I' for Inactive)
REMARK    1  A    between atoms: C5M_1  and  C5_2
REMARK    2  A    between atoms: N1_4  and  C1*_5
REMARK    3  A    between atoms: C3*_8  and  O3*_10
REMARK    4  A    between atoms: C4*_11  and  C5*_13
REMARK    5  A    between atoms: C5*_13  and  O5*_14
REMARK                            x       y       z     vdW  Elec       q    Type
REMARK                         _______ _______ _______ _____ _____    ______ ____
ROOT
ATOM      1  C5M   T A   1       8.630  -0.639  26.819  0.00  0.00    +0.051 C 
ATOM      2  C5    T A   1       9.108  -0.918  25.433  0.00  0.00    +0.030 A 
ATOM      3  C4    T A   1       9.091  -2.324  24.976  0.00  0.00    +0.257 A 
ATOM      4  O4    T A   1       8.620  -3.225  25.659  0.00  0.00    -0.267 OA
ATOM      5  N3    T A   1       9.585  -2.541  23.727  0.00  0.00    -0.275 N 
ATOM      6  H3    T A   1       9.486  -3.481  23.373  0.00  0.00    +0.173 HD
ATOM      7  C2    T A   1       9.789  -1.573  22.782  0.00  0.00    +0.331 A 
ATOM      8  O2    T A   1       9.818  -1.892  21.596  0.00  0.00    -0.246 OA
ATOM      9  N1    T A   1       9.912  -0.273  23.263  0.00  0.00    -0.274 N 
ATOM     10  C6    T A   1       9.513   0.017  24.565  0.00  0.00    +0.101 A 
ENDROOT
BRANCH   9  11
ATOM     11  C1*   T A   1      10.127   0.844  22.325  0.00  0.00    +0.226 C 
ATOM     12  O4*   T A   1       8.912   1.033  21.553  0.00  0.00    -0.348 OA
ATOM     13  C4*   T A   1       8.299   2.284  21.944  0.00  0.00    +0.175 C 
ATOM     14  C3*   T A   1       9.063   2.784  23.162  0.00  0.00    +0.150 C 
ATOM     15  C2*   T A   1      10.436   2.228  22.890  0.00  0.00    +0.088 C 
BRANCH  14  16
ATOM     16  O3*   T A   1       9.051   4.200  23.268  0.00  0.00    -0.389 OA
ATOM     17  H3*   T A   1       9.964   4.535  23.251  0.00  0.00    +0.210 HD
ENDBRANCH  14  16
BRANCH  13  18
ATOM     18  C5*   T A   1       6.805   2.082  22.205  0.00  0.00    +0.190 C 
BRANCH  18  19
ATOM     19  O5*   T A   1       6.523   0.744  22.612  0.00  0.00    -0.392 OA
ATOM     20  H5*   T A   1       5.558   0.640  22.548  0.00  0.00    +0.210 HD
ENDBRANCH  18  19
ENDBRANCH  13  18
ENDBRANCH   9  11
TORSDOF 4
ENDMDL
