MODEL 1
REMARK VINA RESULT:      -5.2      0.000      0.000
REMARK  Name = 
REMARK  1 active torsions:
REMARK  status: ('A' for Active; 'I' for Inactive)
REMARK    1  A    between atoms: C_1  and  C_2
REMARK                            x       y       z     vdW  Elec       q    Type
REMARK                         _______ _______ _______ _____ _____    ______ ____
ROOT
ATOM      1  C   UNL     1       8.002  -3.927  23.428  0.00  0.00    +0.048 C 
ATOM      2  C   UNL     1       8.508  -2.562  23.782  0.00  0.00    +0.000 C 
ATOM      3  C   UNL     1       8.864  -1.674  22.642  0.00  0.00    +0.190 C 
ATOM      4  O   UNL     1       8.743  -2.052  21.482  0.00  0.00    -0.287 OA
ATOM      5  C   UNL     1       9.366  -0.319  22.947  0.00  0.00    +0.033 A 
ATOM      6  C   UNL     1       9.502   0.108  24.266  0.00  0.00    +0.032 A 
ATOM      7  C   UNL     1       9.980   1.396  24.541  0.00  0.00    +0.012 A 
ATOM      8  C   UNL     1      10.321   2.252  23.493  0.00  0.00    +0.001 A 
ATOM      9  C   UNL     1      10.186   1.825  22.172  0.00  0.00    +0.001 A 
ATOM     10  C   UNL     1       9.144  -0.789  25.379  0.00  0.00    +0.187 C 
ATOM     11  O   UNL     1       9.251  -0.445  26.549  0.00  0.00    -0.287 OA
ATOM     12  C   UNL     1       9.710   0.542  21.897  0.00  0.00    +0.012 A 
ATOM     13  C   UNL     1       8.644  -2.136  25.044  0.00  0.00    +0.058 C 
ENDROOT
TORSDOF 0
ENDMDL
MODEL 2
REMARK VINA RESULT:      -5.2      3.585      6.385
REMARK  Name = 
REMARK  1 active torsions:
REMARK  status: ('A' for Active; 'I' for Inactive)
REMARK    1  A    between atoms: C_1  and  C_2
REMARK                            x       y       z     vdW  Elec       q    Type
REMARK                         _______ _______ _______ _____ _____    ______ ____
ROOT
ATOM      1  C   UNL     1       9.677  -3.038  24.210  0.00  0.00    +0.048 C 
ATOM      2  C   UNL     1       8.596  -3.923  24.751  0.00  0.00    +0.000 C 
ATOM      3  C   UNL     1       7.519  -4.305  23.798  0.00  0.00    +0.190 C 
ATOM      4  O   UNL     1       7.530  -3.911  22.637  0.00  0.00    -0.287 OA
ATOM      5  C   UNL     1       6.434  -5.177  24.291  0.00  0.00    +0.033 A 
ATOM      6  C   UNL     1       6.424  -5.624  25.610  0.00  0.00    +0.032 A 
ATOM      7  C   UNL     1       5.388  -6.451  26.064  0.00  0.00    +0.012 A 
ATOM      8  C   UNL     1       4.364  -6.827  25.193  0.00  0.00    +0.001 A 
ATOM      9  C   UNL     1       4.373  -6.380  23.872  0.00  0.00    +0.001 A 
ATOM     10  C   UNL     1       7.501  -5.232  26.536  0.00  0.00    +0.187 C 
ATOM     11  O   UNL     1       7.523  -5.606  27.701  0.00  0.00    -0.287 OA
ATOM     12  C   UNL     1       5.405  -5.556  23.419  0.00  0.00    +0.012 A 
ATOM     13  C   UNL     1       8.572  -4.360  26.016  0.00  0.00    +0.058 C 
ENDROOT
TORSDOF 0
ENDMDL
MODEL 3
REMARK VINA RESULT:      -5.2      1.069      2.869
REMARK  Name = 
REMARK  1 active torsions:
REMARK  status: ('A' for Active; 'I' for Inactive)
REMARK    1  A    between atoms: C_1  and  C_2
REMARK                            x       y       z     vdW  Elec       q    Type
REMARK                         _______ _______ _______ _____ _____    ______ ____
ROOT
ATOM      1  C   UNL     1       8.588  -3.168  26.203  0.00  0.00    +0.048 C 
ATOM      2  C   UNL     1       9.004  -2.169  25.168  0.00  0.00    +0.000 C 
ATOM      3  C   UNL     1       8.787  -0.736  25.509  0.00  0.00    +0.190 C 
ATOM      4  O   UNL     1       8.295  -0.408  26.583  0.00  0.00    -0.287 OA
ATOM      5  C   UNL     1       9.184   0.282  24.516  0.00  0.00    +0.033 A 
ATOM      6  C   UNL     1       9.744  -0.094  23.297  0.00  0.00    +0.032 A 
ATOM      7  C   UNL     1      10.116   0.882  22.364  0.00  0.00    +0.012 A 
ATOM      8  C   UNL     1       9.925   2.234  22.656  0.00  0.00    +0.001 A 
ATOM      9  C   UNL     1       9.365   2.612  23.876  0.00  0.00    +0.001 A 
ATOM     10  C   UNL     1       9.949  -1.519  22.981  0.00  0.00    +0.187 C 
ATOM     11  O   UNL     1      10.438  -1.884  21.920  0.00  0.00    -0.287 OA
ATOM     12  C   UNL     1       8.994   1.639  24.806  0.00  0.00    +0.012 A 
ATOM     13  C   UNL     1       9.543  -2.514  23.993  0.00  0.00    +0.058 C 
ENDROOT
TORSDOF 0
ENDMDL
MODEL 4
REMARK VINA RESULT:      -5.2      2.994      4.196
REMARK  Name = 
REMARK  1 active torsions:
REMARK  status: ('A' for Active; 'I' for Inactive)
REMARK    1  A    between atoms: C_1  and  C_2
REMARK                            x       y       z     vdW  Elec       q    Type
REMARK                         _______ _______ _______ _____ _____    ______ ____
ROOT
ATOM      1  C   UNL     1       4.139  -5.564  23.038  0.00  0.00    +0.048 C 
ATOM      2  C   UNL     1       5.477  -5.046  23.469  0.00  0.00    +0.000 C 
ATOM      3  C   UNL     1       6.081  -3.987  22.616  0.00  0.00    +0.190 C 
ATOM      4  O   UNL     1       5.503  -3.570  21.619  0.00  0.00    -0.287 OA
ATOM      5  C   UNL     1       7.399  -3.449  23.007  0.00  0.00    +0.033 A 
ATOM      6  C   UNL     1       8.054  -3.924  24.141  0.00  0.00    +0.032 A 
ATOM      7  C   UNL     1       9.304  -3.404  24.500  0.00  0.00    +0.012 A 
ATOM      8  C   UNL     1       9.895  -2.409  23.720  0.00  0.00    +0.001 A 
ATOM      9  C   UNL     1       9.241  -1.932  22.584  0.00  0.00    +0.001 A 
ATOM     10  C   UNL     1       7.437  -4.974  24.971  0.00  0.00    +0.187 C 
ATOM     11  O   UNL     1       7.985  -5.415  25.973  0.00  0.00    -0.287 OA
ATOM     12  C   UNL     1       7.995  -2.450  22.226  0.00  0.00    +0.012 A 
ATOM     13  C   UNL     1       6.119  -5.493  24.556  0.00  0.00    +0.058 C 
ENDROOT
TORSDOF 0
ENDMDL
MODEL 5
REMARK VINA RESULT:      -5.1      3.085      5.068
REMARK  Name = 
REMARK  1 active torsions:
REMARK  status: ('A' for Active; 'I' for Inactive)
REMARK    1  A    between atoms: C_1  and  C_2
REMARK                            x       y       z     vdW  Elec       q    Type
REMARK                         _______ _______ _______ _____ _____    ______ ____
ROOT
ATOM      1  C   UNL     1       4.841  -6.691  24.795  0.00  0.00    +0.048 C 
ATOM      2  C   UNL     1       5.612  -5.621  24.085  0.00  0.00    +0.000 C 
ATOM      3  C   UNL     1       6.843  -5.132  24.764  0.00  0.00    +0.190 C 
ATOM      4  O   UNL     1       7.195  -5.591  25.844  0.00  0.00    -0.287 OA
ATOM      5  C   UNL     1       7.631  -4.077  24.096  0.00  0.00    +0.033 A 
ATOM      6  C   UNL     1       7.229  -3.558  22.868  0.00  0.00    +0.032 A 
ATOM      7  C   UNL     1       7.987  -2.557  22.246  0.00  0.00    +0.012 A 
ATOM      8  C   UNL     1       9.147  -2.079  22.859  0.00  0.00    +0.001 A 
ATOM      9  C   UNL     1       9.551  -2.598  24.089  0.00  0.00    +0.001 A 
ATOM     10  C   UNL     1       6.006  -4.056  22.214  0.00  0.00    +0.187 C 
ATOM     11  O   UNL     1       5.623  -3.621  21.136  0.00  0.00    -0.287 OA
ATOM     12  C   UNL     1       8.796  -3.596  24.709  0.00  0.00    +0.012 A 
ATOM     13  C   UNL     1       5.238  -5.111  22.905  0.00  0.00    +0.058 C 
ENDROOT
TORSDOF 0
ENDMDL
MODEL 6
REMARK VINA RESULT:      -5.0      1.362      3.903
REMARK  Name = 
REMARK  1 active torsions:
REMARK  status: ('A' for Active; 'I' for Inactive)
REMARK    1  A    between atoms: C_1  and  C_2
REMARK                            x       y       z     vdW  Elec       q    Type
REMARK                         _______ _______ _______ _____ _____    ______ ____
ROOT
ATOM      1  C   UNL     1       9.862   1.120  21.886  0.00  0.00    +0.048 C 
ATOM      2  C   UNL     1       9.429   0.326  23.080  0.00  0.00    +0.000 C 
ATOM      3  C   UNL     1       9.738  -1.130  23.053  0.00  0.00    +0.190 C 
ATOM      4  O   UNL     1      10.319  -1.636  22.099  0.00  0.00    -0.287 OA
ATOM      5  C   UNL     1       9.327  -1.949  24.211  0.00  0.00    +0.033 A 
ATOM      6  C   UNL     1       8.669  -1.370  25.293  0.00  0.00    +0.032 A 
ATOM      7  C   UNL     1       8.285  -2.159  26.385  0.00  0.00    +0.012 A 
ATOM      8  C   UNL     1       8.562  -3.527  26.389  0.00  0.00    +0.001 A 
ATOM      9  C   UNL     1       9.222  -4.107  25.305  0.00  0.00    +0.001 A 
ATOM     10  C   UNL     1       8.372   0.074  25.298  0.00  0.00    +0.187 C 
ATOM     11  O   UNL     1       7.794   0.614  26.232  0.00  0.00    -0.287 OA
ATOM     12  C   UNL     1       9.605  -3.322  24.217  0.00  0.00    +0.012 A 
ATOM     13  C   UNL     1       8.794   0.867  24.127  0.00  0.00    +0.058 C 
ENDROOT
TORSDOF 0
ENDMDL
MODEL 7
REMARK VINA RESULT:      -4.9      1.423      2.013
REMARK  Name = 
REMARK  1 active torsions:
REMARK  status: ('A' for Active; 'I' for Inactive)
REMARK    1  A    between atoms: C_1  and  C_2
REMARK                            x       y       z     vdW  Elec       q    Type
REMARK                         _______ _______ _______ _____ _____    ______ ____
ROOT
ATOM      1  C   UNL     1       6.826  -4.950  25.430  0.00  0.00    +0.048 C 
ATOM      2  C   UNL     1       7.618  -3.689  25.268  0.00  0.00    +0.000 C 
ATOM      3  C   UNL     1       8.074  -3.367  23.888  0.00  0.00    +0.190 C 
ATOM      4  O   UNL     1       7.807  -4.103  22.946  0.00  0.00    -0.287 OA
ATOM      5  C   UNL     1       8.858  -2.133  23.686  0.00  0.00    +0.033 A 
ATOM      6  C   UNL     1       9.160  -1.298  24.760  0.00  0.00    +0.032 A 
ATOM      7  C   UNL     1       9.905  -0.129  24.553  0.00  0.00    +0.012 A 
ATOM      8  C   UNL     1      10.345   0.199  23.269  0.00  0.00    +0.001 A 
ATOM      9  C   UNL     1      10.044  -0.637  22.194  0.00  0.00    +0.001 A 
ATOM     10  C   UNL     1       8.699  -1.636  26.118  0.00  0.00    +0.187 C 
ATOM     11  O   UNL     1       8.946  -0.925  27.083  0.00  0.00    -0.287 OA
ATOM     12  C   UNL     1       9.302  -1.801  22.399  0.00  0.00    +0.012 A 
ATOM     13  C   UNL     1       7.917  -2.876  26.290  0.00  0.00    +0.058 C 
ENDROOT
TORSDOF 0
ENDMDL
MODEL 8
REMARK VINA RESULT:      -4.9      2.832      6.312
REMARK  Name = 
REMARK  1 active torsions:
REMARK  status: ('A' for Active; 'I' for Inactive)
REMARK    1  A    between atoms: C_1  and  C_2
REMARK                            x       y       z     vdW  Elec       q    Type
REMARK                         _______ _______ _______ _____ _____    ______ ____
ROOT
ATOM      1  C   UNL     1       9.670  -2.082  23.378  0.00  0.00    +0.048 C 
ATOM      2  C   UNL     1       8.431  -2.923  23.324  0.00  0.00    +0.000 C 
ATOM      3  C   UNL     1       8.138  -3.746  24.529  0.00  0.00    +0.190 C 
ATOM      4  O   UNL     1       8.879  -3.725  25.505  0.00  0.00    -0.287 OA
ATOM      5  C   UNL     1       6.926  -4.589  24.516  0.00  0.00    +0.033 A 
ATOM      6  C   UNL     1       6.086  -4.610  23.405  0.00  0.00    +0.032 A 
ATOM      7  C   UNL     1       4.940  -5.415  23.407  0.00  0.00    +0.012 A 
ATOM      8  C   UNL     1       4.639  -6.197  24.523  0.00  0.00    +0.001 A 
ATOM      9  C   UNL     1       5.479  -6.177  25.636  0.00  0.00    +0.001 A 
ATOM     10  C   UNL     1       6.397  -3.788  22.222  0.00  0.00    +0.187 C 
ATOM     11  O   UNL     1       5.681  -3.784  21.229  0.00  0.00    -0.287 OA
ATOM     12  C   UNL     1       6.622  -5.375  25.635  0.00  0.00    +0.012 A 
ATOM     13  C   UNL     1       7.614  -2.955  22.263  0.00  0.00    +0.058 C 
ENDROOT
TORSDOF 0
ENDMDL
MODEL 9
REMARK VINA RESULT:      -4.9      4.661      6.232
REMARK  Name = 
REMARK  1 active torsions:
REMARK  status: ('A' for Active; 'I' for Inactive)
REMARK    1  A    between atoms: C_1  and  C_2
REMARK                            x       y       z     vdW  Elec       q    Type
REMARK                         _______ _______ _______ _____ _____    ______ ____
ROOT
ATOM      1  C   UNL     1       2.762  -6.091  23.196  0.00  0.00    +0.048 C 
ATOM      2  C   UNL     1       4.013  -5.936  24.006  0.00  0.00    +0.000 C 
ATOM      3  C   UNL     1       5.107  -5.141  23.386  0.00  0.00    +0.190 C 
ATOM      4  O   UNL     1       4.977  -4.645  22.272  0.00  0.00    -0.287 OA
ATOM      5  C   UNL     1       6.357  -4.965  24.152  0.00  0.00    +0.033 A 
ATOM      6  C   UNL     1       6.501  -5.529  25.417  0.00  0.00    +0.032 A 
ATOM      7  C   UNL     1       7.693  -5.353  26.133  0.00  0.00    +0.012 A 
ATOM      8  C   UNL     1       8.737  -4.611  25.577  0.00  0.00    +0.001 A 
ATOM      9  C   UNL     1       8.594  -4.046  24.310  0.00  0.00    +0.001 A 
ATOM     10  C   UNL     1       5.404  -6.313  26.012  0.00  0.00    +0.187 C 
ATOM     11  O   UNL     1       5.498  -6.823  27.121  0.00  0.00    -0.287 OA
ATOM     12  C   UNL     1       7.407  -4.221  23.597  0.00  0.00    +0.012 A 
ATOM     13  C   UNL     1       4.167  -6.473  25.223  0.00  0.00    +0.058 C 
ENDROOT
TORSDOF 0
ENDMDL
