MODEL 1
REMARK VINA RESULT:      -6.1      0.000      0.000
REMARK  Name = 
REMARK  10 active torsions:
REMARK  status: ('A' for Active; 'I' for Inactive)
REMARK    1  A    between atoms: C_2  and  C_3
REMARK    2  A    between atoms: C_2  and  N_4
REMARK    3  A    between atoms: C_2  and  C_8
REMARK    4  A    between atoms: C_5  and  C_6
REMARK    5  A    between atoms: N_10  and  C_11
REMARK    6  A    between atoms: C_11  and  C_13
REMARK    7  A    between atoms: C_11  and  C_20
REMARK    8  A    between atoms: C_13  and  C_14
REMARK    9  A    between atoms: C_20  and  C_22
REMARK   10  A    between atoms: C_22  and  C_23
REMARK                            x       y       z     vdW  Elec       q    Type
REMARK                         _______ _______ _______ _____ _____    ______ ____
ROOT
ATOM      1  C   UNL     1       9.399  -1.083  24.026  0.00  0.00    +0.143 C 
ENDROOT
BRANCH   1   3
ATOM      2  C   UNL     1       8.566  -2.655  25.782  0.00  0.00    +0.234 C 
ATOM      3  N   UNL     1       9.323  -2.404  24.658  0.00  0.00    -0.304 N 
ATOM      4  H   UNL     1       9.448  -3.229  24.072  0.00  0.00    +0.149 HD
ATOM      5  O   UNL     1       7.851  -1.808  26.314  0.00  0.00    -0.274 OA
BRANCH   2   6
ATOM      6  C   UNL     1       8.581  -4.128  26.261  0.00  0.00    +0.156 C 
ATOM      7  C   UNL     1       9.699  -4.991  25.679  0.00  0.00    +0.038 C 
BRANCH   6   8
ATOM      8  N   UNL     1       7.256  -4.709  26.086  0.00  0.00    -0.304 N 
ATOM      9  H   UNL     1       6.746  -4.465  25.243  0.00  0.00    +0.149 HD
ATOM     10  C   UNL     1       6.710  -5.595  26.976  0.00  0.00    +0.211 C 
ATOM     11  O   UNL     1       7.269  -5.930  28.019  0.00  0.00    -0.276 OA
ATOM     12  C   UNL     1       5.371  -6.142  26.569  0.00  0.00    +0.109 C 
ENDBRANCH   6   8
ENDBRANCH   2   6
ENDBRANCH   1   3
BRANCH   1  13
ATOM     13  C   UNL     1       9.915  -1.171  22.567  0.00  0.00    +0.155 C 
ATOM     14  O   UNL     1      10.920  -1.818  22.258  0.00  0.00    -0.295 OA
BRANCH  13  15
ATOM     15  C   UNL     1       9.297  -0.249  21.533  0.00  0.00    +0.092 C 
BRANCH  15  16
ATOM     16  C   UNL     1       7.941   0.237  22.006  0.00  0.00    +0.116 C 
ATOM     17 CL   UNL     1       7.704   1.942  21.548  0.00  0.00    -0.125 Cl
ENDBRANCH  15  16
ENDBRANCH  13  15
ENDBRANCH   1  13
BRANCH   1  18
ATOM     18  C   UNL     1      10.192  -0.032  24.848  0.00  0.00    +0.065 C 
BRANCH  18  19
ATOM     19  C   UNL     1       9.848   1.420  24.588  0.00  0.00    -0.045 A 
ATOM     20  C   UNL     1       8.672   1.995  25.085  0.00  0.00    +0.004 A 
ATOM     21  C   UNL     1       8.384   3.343  24.874  0.00  0.00    +0.000 A 
ATOM     22  C   UNL     1       9.252   4.126  24.120  0.00  0.00    +0.000 A 
ATOM     23  C   UNL     1      10.404   3.562  23.579  0.00  0.00    +0.000 A 
ATOM     24  C   UNL     1      10.703   2.218  23.814  0.00  0.00    +0.004 A 
ENDBRANCH  18  19
ENDBRANCH   1  18
TORSDOF 8
ENDMDL
MODEL 2
REMARK VINA RESULT:      -6.1      2.787      3.745
REMARK  Name = 
REMARK  10 active torsions:
REMARK  status: ('A' for Active; 'I' for Inactive)
REMARK    1  A    between atoms: C_2  and  C_3
REMARK    2  A    between atoms: C_2  and  N_4
REMARK    3  A    between atoms: C_2  and  C_8
REMARK    4  A    between atoms: C_5  and  C_6
REMARK    5  A    between atoms: N_10  and  C_11
REMARK    6  A    between atoms: C_11  and  C_13
REMARK    7  A    between atoms: C_11  and  C_20
REMARK    8  A    between atoms: C_13  and  C_14
REMARK    9  A    between atoms: C_20  and  C_22
REMARK   10  A    between atoms: C_22  and  C_23
REMARK                            x       y       z     vdW  Elec       q    Type
REMARK                         _______ _______ _______ _____ _____    ______ ____
ROOT
ATOM      1  C   UNL     1       8.596  -3.051  24.421  0.00  0.00    +0.143 C 
ENDROOT
BRANCH   1   3
ATOM      2  C   UNL     1       7.185  -5.061  23.957  0.00  0.00    +0.234 C 
ATOM      3  N   UNL     1       7.847  -3.934  23.521  0.00  0.00    -0.304 N 
ATOM      4  H   UNL     1       7.434  -3.531  22.681  0.00  0.00    +0.149 HD
ATOM      5  O   UNL     1       7.121  -5.389  25.141  0.00  0.00    -0.274 OA
BRANCH   2   6
ATOM      6  C   UNL     1       6.412  -5.829  22.856  0.00  0.00    +0.156 C 
ATOM      7  C   UNL     1       6.992  -5.705  21.447  0.00  0.00    +0.038 C 
BRANCH   6   8
ATOM      8  N   UNL     1       4.997  -5.486  22.927  0.00  0.00    -0.304 N 
ATOM      9  H   UNL     1       4.693  -4.652  22.436  0.00  0.00    +0.149 HD
ATOM     10  C   UNL     1       4.077  -6.264  23.576  0.00  0.00    +0.211 C 
ATOM     11  O   UNL     1       4.377  -7.284  24.196  0.00  0.00    -0.276 OA
ATOM     12  C   UNL     1       2.659  -5.780  23.460  0.00  0.00    +0.109 C 
ENDBRANCH   6   8
ENDBRANCH   2   6
ENDBRANCH   1   3
BRANCH   1  13
ATOM     13  C   UNL     1       7.718  -1.888  24.950  0.00  0.00    +0.155 C 
ATOM     14  O   UNL     1       7.894  -1.377  26.060  0.00  0.00    -0.295 OA
BRANCH  13  15
ATOM     15  C   UNL     1       6.465  -1.528  24.174  0.00  0.00    +0.092 C 
BRANCH  15  16
ATOM     16  C   UNL     1       5.924  -0.190  24.638  0.00  0.00    +0.116 C 
ATOM     17 CL   UNL     1       6.545   1.117  23.599  0.00  0.00    -0.125 Cl
ENDBRANCH  15  16
ENDBRANCH  13  15
ENDBRANCH   1  13
BRANCH   1  18
ATOM     18  C   UNL     1       9.934  -2.532  23.833  0.00  0.00    +0.065 C 
BRANCH  18  19
ATOM     19  C   UNL     1       9.894  -1.167  23.179  0.00  0.00    -0.045 A 
ATOM     20  C   UNL     1       9.396  -0.989  21.882  0.00  0.00    +0.004 A 
ATOM     21  C   UNL     1       9.327   0.278  21.304  0.00  0.00    +0.000 A 
ATOM     22  C   UNL     1       9.800   1.384  22.003  0.00  0.00    +0.000 A 
ATOM     23  C   UNL     1      10.340   1.222  23.276  0.00  0.00    +0.000 A 
ATOM     24  C   UNL     1      10.384  -0.045  23.862  0.00  0.00    +0.004 A 
ENDBRANCH  18  19
ENDBRANCH   1  18
TORSDOF 8
ENDMDL
MODEL 3
REMARK VINA RESULT:      -6.0      3.331      4.107
REMARK  Name = 
REMARK  10 active torsions:
REMARK  status: ('A' for Active; 'I' for Inactive)
REMARK    1  A    between atoms: C_2  and  C_3
REMARK    2  A    between atoms: C_2  and  N_4
REMARK    3  A    between atoms: C_2  and  C_8
REMARK    4  A    between atoms: C_5  and  C_6
REMARK    5  A    between atoms: N_10  and  C_11
REMARK    6  A    between atoms: C_11  and  C_13
REMARK    7  A    between atoms: C_11  and  C_20
REMARK    8  A    between atoms: C_13  and  C_14
REMARK    9  A    between atoms: C_20  and  C_22
REMARK   10  A    between atoms: C_22  and  C_23
REMARK                            x       y       z     vdW  Elec       q    Type
REMARK                         _______ _______ _______ _____ _____    ______ ____
ROOT
ATOM      1  C   UNL     1       8.080  -2.544  22.944  0.00  0.00    +0.143 C 
ENDROOT
BRANCH   1   3
ATOM      2  C   UNL     1       7.385  -4.945  22.976  0.00  0.00    +0.234 C 
ATOM      3  N   UNL     1       7.431  -3.718  22.351  0.00  0.00    -0.304 N 
ATOM      4  H   UNL     1       6.651  -3.568  21.712  0.00  0.00    +0.149 HD
ATOM      5  O   UNL     1       7.834  -5.143  24.103  0.00  0.00    -0.274 OA
BRANCH   2   6
ATOM      6  C   UNL     1       6.609  -6.040  22.203  0.00  0.00    +0.156 C 
ATOM      7  C   UNL     1       6.317  -5.720  20.738  0.00  0.00    +0.038 C 
BRANCH   6   8
ATOM      8  N   UNL     1       5.419  -6.416  22.957  0.00  0.00    -0.304 N 
ATOM      9  H   UNL     1       5.401  -7.343  23.371  0.00  0.00    +0.149 HD
ATOM     10  C   UNL     1       4.371  -5.561  23.164  0.00  0.00    +0.211 C 
ATOM     11  O   UNL     1       4.324  -4.428  22.687  0.00  0.00    -0.276 OA
ATOM     12  C   UNL     1       3.280  -6.112  24.038  0.00  0.00    +0.109 C 
ENDBRANCH   6   8
ENDBRANCH   2   6
ENDBRANCH   1   3
BRANCH   1  13
ATOM     13  C   UNL     1       7.051  -1.583  23.592  0.00  0.00    +0.155 C 
ATOM     14  O   UNL     1       6.547  -0.640  22.976  0.00  0.00    -0.295 OA
BRANCH  13  15
ATOM     15  C   UNL     1       6.836  -1.671  25.092  0.00  0.00    +0.092 C 
BRANCH  15  16
ATOM     16  C   UNL     1       8.094  -2.169  25.775  0.00  0.00    +0.116 C 
ATOM     17 CL   UNL     1       8.714  -0.933  26.899  0.00  0.00    -0.125 Cl
ENDBRANCH  15  16
ENDBRANCH  13  15
ENDBRANCH   1  13
BRANCH   1  18
ATOM     18  C   UNL     1       9.035  -1.791  21.980  0.00  0.00    +0.065 C 
BRANCH  18  19
ATOM     19  C   UNL     1       9.617  -0.492  22.494  0.00  0.00    -0.045 A 
ATOM     20  C   UNL     1       9.517   0.698  21.761  0.00  0.00    +0.004 A 
ATOM     21  C   UNL     1      10.023   1.897  22.261  0.00  0.00    +0.000 A 
ATOM     22  C   UNL     1      10.678   1.914  23.487  0.00  0.00    +0.000 A 
ATOM     23  C   UNL     1      10.827   0.734  24.211  0.00  0.00    +0.000 A 
ATOM     24  C   UNL     1      10.297  -0.461  23.720  0.00  0.00    +0.004 A 
ENDBRANCH  18  19
ENDBRANCH   1  18
TORSDOF 8
ENDMDL
MODEL 4
REMARK VINA RESULT:      -5.9      3.561      7.340
REMARK  Name = 
REMARK  10 active torsions:
REMARK  status: ('A' for Active; 'I' for Inactive)
REMARK    1  A    between atoms: C_2  and  C_3
REMARK    2  A    between atoms: C_2  and  N_4
REMARK    3  A    between atoms: C_2  and  C_8
REMARK    4  A    between atoms: C_5  and  C_6
REMARK    5  A    between atoms: N_10  and  C_11
REMARK    6  A    between atoms: C_11  and  C_13
REMARK    7  A    between atoms: C_11  and  C_20
REMARK    8  A    between atoms: C_13  and  C_14
REMARK    9  A    between atoms: C_20  and  C_22
REMARK   10  A    between atoms: C_22  and  C_23
REMARK                            x       y       z     vdW  Elec       q    Type
REMARK                         _______ _______ _______ _____ _____    ______ ____
ROOT
ATOM      1  C   UNL     1       8.348  -2.331  24.013  0.00  0.00    +0.143 C 
ENDROOT
BRANCH   1   3
ATOM      2  C   UNL     1       8.652   0.135  24.284  0.00  0.00    +0.234 C 
ATOM      3  N   UNL     1       9.142  -1.101  23.925  0.00  0.00    -0.304 N 
ATOM      4  H   UNL     1      10.154  -1.171  24.023  0.00  0.00    +0.149 HD
ATOM      5  O   UNL     1       7.530   0.302  24.759  0.00  0.00    -0.274 OA
BRANCH   2   6
ATOM      6  C   UNL     1       9.667   1.299  24.163  0.00  0.00    +0.156 C 
ATOM      7  C   UNL     1      11.121   0.927  24.455  0.00  0.00    +0.038 C 
BRANCH   6   8
ATOM      8  N   UNL     1       9.197   2.437  24.944  0.00  0.00    -0.304 N 
ATOM      9  H   UNL     1       9.300   2.387  25.952  0.00  0.00    +0.149 HD
ATOM     10  C   UNL     1       8.680   3.567  24.370  0.00  0.00    +0.211 C 
ATOM     11  O   UNL     1       8.522   3.692  23.156  0.00  0.00    -0.276 OA
ATOM     12  C   UNL     1       8.333   4.657  25.344  0.00  0.00    +0.109 C 
ENDBRANCH   6   8
ENDBRANCH   2   6
ENDBRANCH   1   3
BRANCH   1  13
ATOM     13  C   UNL     1       9.034  -3.396  24.906  0.00  0.00    +0.155 C 
ATOM     14  O   UNL     1       9.968  -4.096  24.503  0.00  0.00    -0.295 OA
BRANCH  13  15
ATOM     15  C   UNL     1       8.384  -3.744  26.232  0.00  0.00    +0.092 C 
BRANCH  15  16
ATOM     16  C   UNL     1       8.162  -5.240  26.333  0.00  0.00    +0.116 C 
ATOM     17 CL   UNL     1       6.460  -5.634  25.982  0.00  0.00    -0.125 Cl
ENDBRANCH  15  16
ENDBRANCH  13  15
ENDBRANCH   1  13
BRANCH   1  18
ATOM     18  C   UNL     1       7.935  -2.920  22.638  0.00  0.00    +0.065 C 
BRANCH  18  19
ATOM     19  C   UNL     1       6.819  -3.943  22.655  0.00  0.00    -0.045 A 
ATOM     20  C   UNL     1       7.034  -5.269  22.259  0.00  0.00    +0.004 A 
ATOM     21  C   UNL     1       6.010  -6.213  22.316  0.00  0.00    +0.000 A 
ATOM     22  C   UNL     1       4.739  -5.831  22.731  0.00  0.00    +0.000 A 
ATOM     23  C   UNL     1       4.493  -4.507  23.087  0.00  0.00    +0.000 A 
ATOM     24  C   UNL     1       5.528  -3.569  23.053  0.00  0.00    +0.004 A 
ENDBRANCH  18  19
ENDBRANCH   1  18
TORSDOF 8
ENDMDL
MODEL 5
REMARK VINA RESULT:      -5.9      3.077      4.412
REMARK  Name = 
REMARK  10 active torsions:
REMARK  status: ('A' for Active; 'I' for Inactive)
REMARK    1  A    between atoms: C_2  and  C_3
REMARK    2  A    between atoms: C_2  and  N_4
REMARK    3  A    between atoms: C_2  and  C_8
REMARK    4  A    between atoms: C_5  and  C_6
REMARK    5  A    between atoms: N_10  and  C_11
REMARK    6  A    between atoms: C_11  and  C_13
REMARK    7  A    between atoms: C_11  and  C_20
REMARK    8  A    between atoms: C_13  and  C_14
REMARK    9  A    between atoms: C_20  and  C_22
REMARK   10  A    between atoms: C_22  and  C_23
REMARK                            x       y       z     vdW  Elec       q    Type
REMARK                         _______ _______ _______ _____ _____    ______ ____
ROOT
ATOM      1  C   UNL     1       8.942  -2.904  23.990  0.00  0.00    +0.143 C 
ENDROOT
BRANCH   1   3
ATOM      2  C   UNL     1       6.801  -1.621  23.851  0.00  0.00    +0.234 C 
ATOM      3  N   UNL     1       7.950  -1.967  24.528  0.00  0.00    -0.304 N 
ATOM      4  H   UNL     1       7.852  -1.895  25.540  0.00  0.00    +0.149 HD
ATOM      5  O   UNL     1       6.486  -2.110  22.768  0.00  0.00    -0.274 OA
BRANCH   2   6
ATOM      6  C   UNL     1       5.861  -0.655  24.615  0.00  0.00    +0.156 C 
ATOM      7  C   UNL     1       6.268   0.817  24.575  0.00  0.00    +0.038 C 
BRANCH   6   8
ATOM      8  N   UNL     1       5.647  -1.155  25.968  0.00  0.00    -0.304 N 
ATOM      9  H   UNL     1       6.303  -0.862  26.684  0.00  0.00    +0.149 HD
ATOM     10  C   UNL     1       4.583  -1.948  26.305  0.00  0.00    +0.211 C 
ATOM     11  O   UNL     1       3.754  -2.345  25.488  0.00  0.00    -0.276 OA
ATOM     12  C   UNL     1       4.498  -2.286  27.768  0.00  0.00    +0.109 C 
ENDBRANCH   6   8
ENDBRANCH   2   6
ENDBRANCH   1   3
BRANCH   1  13
ATOM     13  C   UNL     1       9.213  -4.078  24.965  0.00  0.00    +0.155 C 
ATOM     14  O   UNL     1       9.644  -5.170  24.582  0.00  0.00    -0.295 OA
BRANCH  13  15
ATOM     15  C   UNL     1       8.715  -3.952  26.392  0.00  0.00    +0.092 C 
BRANCH  15  16
ATOM     16  C   UNL     1       7.756  -5.080  26.717  0.00  0.00    +0.116 C 
ATOM     17 CL   UNL     1       6.372  -5.052  25.595  0.00  0.00    -0.125 Cl
ENDBRANCH  15  16
ENDBRANCH  13  15
ENDBRANCH   1  13
BRANCH   1  18
ATOM     18  C   UNL     1      10.262  -2.234  23.524  0.00  0.00    +0.065 C 
BRANCH  18  19
ATOM     19  C   UNL     1      10.196  -0.748  23.242  0.00  0.00    -0.045 A 
ATOM     20  C   UNL     1       9.773  -0.255  22.001  0.00  0.00    +0.004 A 
ATOM     21  C   UNL     1       9.678   1.116  21.764  0.00  0.00    +0.000 A 
ATOM     22  C   UNL     1      10.050   2.016  22.757  0.00  0.00    +0.000 A 
ATOM     23  C   UNL     1      10.515   1.547  23.982  0.00  0.00    +0.000 A 
ATOM     24  C   UNL     1      10.584   0.173  24.225  0.00  0.00    +0.004 A 
ENDBRANCH  18  19
ENDBRANCH   1  18
TORSDOF 8
ENDMDL
MODEL 6
REMARK VINA RESULT:      -5.8      2.752      4.004
REMARK  Name = 
REMARK  10 active torsions:
REMARK  status: ('A' for Active; 'I' for Inactive)
REMARK    1  A    between atoms: C_2  and  C_3
REMARK    2  A    between atoms: C_2  and  N_4
REMARK    3  A    between atoms: C_2  and  C_8
REMARK    4  A    between atoms: C_5  and  C_6
REMARK    5  A    between atoms: N_10  and  C_11
REMARK    6  A    between atoms: C_11  and  C_13
REMARK    7  A    between atoms: C_11  and  C_20
REMARK    8  A    between atoms: C_13  and  C_14
REMARK    9  A    between atoms: C_20  and  C_22
REMARK   10  A    between atoms: C_22  and  C_23
REMARK                            x       y       z     vdW  Elec       q    Type
REMARK                         _______ _______ _______ _____ _____    ______ ____
ROOT
ATOM      1  C   UNL     1       8.230  -1.514  22.155  0.00  0.00    +0.143 C 
ENDROOT
BRANCH   1   3
ATOM      2  C   UNL     1       7.185  -3.783  22.255  0.00  0.00    +0.234 C 
ATOM      3  N   UNL     1       8.190  -2.908  22.609  0.00  0.00    -0.304 N 
ATOM      4  H   UNL     1       9.072  -3.377  22.810  0.00  0.00    +0.149 HD
ATOM      5  O   UNL     1       6.272  -3.483  21.488  0.00  0.00    -0.274 OA
BRANCH   2   6
ATOM      6  C   UNL     1       7.355  -5.223  22.799  0.00  0.00    +0.156 C 
ATOM      7  C   UNL     1       6.482  -6.281  22.124  0.00  0.00    +0.038 C 
BRANCH   6   8
ATOM      8  N   UNL     1       7.226  -5.213  24.251  0.00  0.00    -0.304 N 
ATOM      9  H   UNL     1       6.295  -5.325  24.638  0.00  0.00    +0.149 HD
ATOM     10  C   UNL     1       8.303  -5.109  25.091  0.00  0.00    +0.211 C 
ATOM     11  O   UNL     1       9.456  -4.964  24.689  0.00  0.00    -0.276 OA
ATOM     12  C   UNL     1       7.964  -5.203  26.552  0.00  0.00    +0.109 C 
ENDBRANCH   6   8
ENDBRANCH   2   6
ENDBRANCH   1   3
BRANCH   1  13
ATOM     13  C   UNL     1       9.682  -0.975  22.079  0.00  0.00    +0.155 C 
ATOM     14  O   UNL     1      10.668  -1.707  22.209  0.00  0.00    -0.295 OA
BRANCH  13  15
ATOM     15  C   UNL     1       9.887   0.528  22.074  0.00  0.00    +0.092 C 
BRANCH  15  16
ATOM     16  C   UNL     1      10.467   0.984  23.399  0.00  0.00    +0.116 C 
ATOM     17 CL   UNL     1      10.650   2.756  23.413  0.00  0.00    -0.125 Cl
ENDBRANCH  15  16
ENDBRANCH  13  15
ENDBRANCH   1  13
BRANCH   1  18
ATOM     18  C   UNL     1       7.309  -0.558  22.958  0.00  0.00    +0.065 C 
BRANCH  18  19
ATOM     19  C   UNL     1       6.939  -1.001  24.357  0.00  0.00    -0.045 A 
ATOM     20  C   UNL     1       5.662  -1.489  24.659  0.00  0.00    +0.004 A 
ATOM     21  C   UNL     1       5.344  -1.931  25.943  0.00  0.00    +0.000 A 
ATOM     22  C   UNL     1       6.292  -1.850  26.957  0.00  0.00    +0.000 A 
ATOM     23  C   UNL     1       7.554  -1.327  26.688  0.00  0.00    +0.000 A 
ATOM     24  C   UNL     1       7.877  -0.909  25.395  0.00  0.00    +0.004 A 
ENDBRANCH  18  19
ENDBRANCH   1  18
TORSDOF 8
ENDMDL
MODEL 7
REMARK VINA RESULT:      -5.7      3.020      5.220
REMARK  Name = 
REMARK  10 active torsions:
REMARK  status: ('A' for Active; 'I' for Inactive)
REMARK    1  A    between atoms: C_2  and  C_3
REMARK    2  A    between atoms: C_2  and  N_4
REMARK    3  A    between atoms: C_2  and  C_8
REMARK    4  A    between atoms: C_5  and  C_6
REMARK    5  A    between atoms: N_10  and  C_11
REMARK    6  A    between atoms: C_11  and  C_13
REMARK    7  A    between atoms: C_11  and  C_20
REMARK    8  A    between atoms: C_13  and  C_14
REMARK    9  A    between atoms: C_20  and  C_22
REMARK   10  A    between atoms: C_22  and  C_23
REMARK                            x       y       z     vdW  Elec       q    Type
REMARK                         _______ _______ _______ _____ _____    ______ ____
ROOT
ATOM      1  C   UNL     1       8.896  -3.007  24.173  0.00  0.00    +0.143 C 
ENDROOT
BRANCH   1   3
ATOM      2  C   UNL     1       6.791  -1.670  24.333  0.00  0.00    +0.234 C 
ATOM      3  N   UNL     1       8.007  -2.059  24.851  0.00  0.00    -0.304 N 
ATOM      4  H   UNL     1       8.040  -2.008  25.868  0.00  0.00    +0.149 HD
ATOM      5  O   UNL     1       6.327  -2.126  23.290  0.00  0.00    -0.274 OA
BRANCH   2   6
ATOM      6  C   UNL     1       5.982  -0.699  25.230  0.00  0.00    +0.156 C 
ATOM      7  C   UNL     1       4.827  -1.336  26.002  0.00  0.00    +0.038 C 
BRANCH   6   8
ATOM      8  N   UNL     1       5.578   0.462  24.447  0.00  0.00    -0.304 N 
ATOM      9  H   UNL     1       4.680   0.420  23.977  0.00  0.00    +0.149 HD
ATOM     10  C   UNL     1       6.331   1.603  24.369  0.00  0.00    +0.211 C 
ATOM     11  O   UNL     1       7.431   1.720  24.907  0.00  0.00    -0.276 OA
ATOM     12  C   UNL     1       5.698   2.714  23.580  0.00  0.00    +0.109 C 
ENDBRANCH   6   8
ENDBRANCH   2   6
ENDBRANCH   1   3
BRANCH   1  13
ATOM     13  C   UNL     1       9.226  -4.229  25.067  0.00  0.00    +0.155 C 
ATOM     14  O   UNL     1       9.661  -5.289  24.607  0.00  0.00    -0.295 OA
BRANCH  13  15
ATOM     15  C   UNL     1       8.782  -4.194  26.518  0.00  0.00    +0.092 C 
BRANCH  15  16
ATOM     16  C   UNL     1       7.768  -5.289  26.785  0.00  0.00    +0.116 C 
ATOM     17 CL   UNL     1       6.333  -5.064  25.753  0.00  0.00    -0.125 Cl
ENDBRANCH  15  16
ENDBRANCH  13  15
ENDBRANCH   1  13
BRANCH   1  18
ATOM     18  C   UNL     1      10.183  -2.365  23.589  0.00  0.00    +0.065 C 
BRANCH  18  19
ATOM     19  C   UNL     1      10.041  -0.962  23.037  0.00  0.00    -0.045 A 
ATOM     20  C   UNL     1       9.412  -0.717  21.810  0.00  0.00    +0.004 A 
ATOM     21  C   UNL     1       9.252   0.582  21.329  0.00  0.00    +0.000 A 
ATOM     22  C   UNL     1       9.761   1.655  22.053  0.00  0.00    +0.000 A 
ATOM     23  C   UNL     1      10.429   1.429  23.253  0.00  0.00    +0.000 A 
ATOM     24  C   UNL     1      10.565   0.129  23.745  0.00  0.00    +0.004 A 
ENDBRANCH  18  19
ENDBRANCH   1  18
TORSDOF 8
ENDMDL
MODEL 8
REMARK VINA RESULT:      -5.6      2.800      6.593
REMARK  Name = 
REMARK  10 active torsions:
REMARK  status: ('A' for Active; 'I' for Inactive)
REMARK    1  A    between atoms: C_2  and  C_3
REMARK    2  A    between atoms: C_2  and  N_4
REMARK    3  A    between atoms: C_2  and  C_8
REMARK    4  A    between atoms: C_5  and  C_6
REMARK    5  A    between atoms: N_10  and  C_11
REMARK    6  A    between atoms: C_11  and  C_13
REMARK    7  A    between atoms: C_11  and  C_20
REMARK    8  A    between atoms: C_13  and  C_14
REMARK    9  A    between atoms: C_20  and  C_22
REMARK   10  A    between atoms: C_22  and  C_23
REMARK                            x       y       z     vdW  Elec       q    Type
REMARK                         _______ _______ _______ _____ _____    ______ ____
ROOT
ATOM      1  C   UNL     1       8.978  -3.627  24.359  0.00  0.00    +0.143 C 
ENDROOT
BRANCH   1   3
ATOM      2  C   UNL     1      10.052  -1.561  23.451  0.00  0.00    +0.234 C 
ATOM      3  N   UNL     1       9.208  -2.179  24.347  0.00  0.00    -0.304 N 
ATOM      4  H   UNL     1       8.460  -1.568  24.675  0.00  0.00    +0.149 HD
ATOM      5  O   UNL     1      10.639  -2.164  22.554  0.00  0.00    -0.274 OA
BRANCH   2   6
ATOM      6  C   UNL     1      10.117  -0.018  23.574  0.00  0.00    +0.156 C 
ATOM      7  C   UNL     1      10.848   0.506  24.809  0.00  0.00    +0.038 C 
BRANCH   6   8
ATOM      8  N   UNL     1       8.778   0.537  23.419  0.00  0.00    -0.304 N 
ATOM      9  H   UNL     1       8.205   0.613  24.253  0.00  0.00    +0.149 HD
ATOM     10  C   UNL     1       8.299   0.997  22.222  0.00  0.00    +0.211 C 
ATOM     11  O   UNL     1       8.938   0.930  21.173  0.00  0.00    -0.276 OA
ATOM     12  C   UNL     1       6.928   1.609  22.293  0.00  0.00    +0.109 C 
ENDBRANCH   6   8
ENDBRANCH   2   6
ENDBRANCH   1   3
BRANCH   1  13
ATOM     13  C   UNL     1       7.793  -4.029  23.443  0.00  0.00    +0.155 C 
ATOM     14  O   UNL     1       7.689  -5.158  22.952  0.00  0.00    -0.295 OA
BRANCH  13  15
ATOM     15  C   UNL     1       6.863  -2.935  22.955  0.00  0.00    +0.092 C 
BRANCH  15  16
ATOM     16  C   UNL     1       5.571  -3.535  22.436  0.00  0.00    +0.116 C 
ATOM     17 CL   UNL     1       4.445  -3.832  23.785  0.00  0.00    -0.125 Cl
ENDBRANCH  15  16
ENDBRANCH  13  15
ENDBRANCH   1  13
BRANCH   1  18
ATOM     18  C   UNL     1       8.832  -4.236  25.779  0.00  0.00    +0.065 C 
BRANCH  18  19
ATOM     19  C   UNL     1       7.428  -4.292  26.343  0.00  0.00    -0.045 A 
ATOM     20  C   UNL     1       6.775  -3.141  26.801  0.00  0.00    +0.004 A 
ATOM     21  C   UNL     1       5.468  -3.198  27.283  0.00  0.00    +0.000 A 
ATOM     22  C   UNL     1       4.810  -4.420  27.354  0.00  0.00    +0.000 A 
ATOM     23  C   UNL     1       5.457  -5.583  26.946  0.00  0.00    +0.000 A 
ATOM     24  C   UNL     1       6.758  -5.520  26.440  0.00  0.00    +0.004 A 
ENDBRANCH  18  19
ENDBRANCH   1  18
TORSDOF 8
ENDMDL
MODEL 9
REMARK VINA RESULT:      -5.6      3.586      7.418
REMARK  Name = 
REMARK  10 active torsions:
REMARK  status: ('A' for Active; 'I' for Inactive)
REMARK    1  A    between atoms: C_2  and  C_3
REMARK    2  A    between atoms: C_2  and  N_4
REMARK    3  A    between atoms: C_2  and  C_8
REMARK    4  A    between atoms: C_5  and  C_6
REMARK    5  A    between atoms: N_10  and  C_11
REMARK    6  A    between atoms: C_11  and  C_13
REMARK    7  A    between atoms: C_11  and  C_20
REMARK    8  A    between atoms: C_13  and  C_14
REMARK    9  A    between atoms: C_20  and  C_22
REMARK   10  A    between atoms: C_22  and  C_23
REMARK                            x       y       z     vdW  Elec       q    Type
REMARK                         _______ _______ _______ _____ _____    ______ ____
ROOT
ATOM      1  C   UNL     1       8.153  -1.791  22.998  0.00  0.00    +0.143 C 
ENDROOT
BRANCH   1   3
ATOM      2  C   UNL     1       8.290   0.594  23.735  0.00  0.00    +0.234 C 
ATOM      3  N   UNL     1       8.169  -0.348  22.737  0.00  0.00    -0.304 N 
ATOM      4  H   UNL     1       8.525  -0.023  21.839  0.00  0.00    +0.149 HD
ATOM      5  O   UNL     1       8.450   0.302  24.919  0.00  0.00    -0.274 OA
BRANCH   2   6
ATOM      6  C   UNL     1       8.336   2.062  23.243  0.00  0.00    +0.156 C 
ATOM      7  C   UNL     1       7.526   2.351  21.980  0.00  0.00    +0.038 C 
BRANCH   6   8
ATOM      8  N   UNL     1       9.724   2.499  23.149  0.00  0.00    -0.304 N 
ATOM      9  H   UNL     1      10.375   1.886  22.670  0.00  0.00    +0.149 HD
ATOM     10  C   UNL     1      10.156   3.706  23.629  0.00  0.00    +0.211 C 
ATOM     11  O   UNL     1       9.422   4.494  24.224  0.00  0.00    -0.276 OA
ATOM     12  C   UNL     1      11.604   4.003  23.357  0.00  0.00    +0.109 C 
ENDBRANCH   6   8
ENDBRANCH   2   6
ENDBRANCH   1   3
BRANCH   1  13
ATOM     13  C   UNL     1       9.556  -2.320  23.391  0.00  0.00    +0.155 C 
ATOM     14  O   UNL     1      10.569  -2.060  22.735  0.00  0.00    -0.295 OA
BRANCH  13  15
ATOM     15  C   UNL     1       9.644  -3.374  24.479  0.00  0.00    +0.092 C 
BRANCH  15  16
ATOM     16  C   UNL     1       8.495  -3.217  25.456  0.00  0.00    +0.116 C 
ATOM     17 CL   UNL     1       7.640  -4.768  25.653  0.00  0.00    -0.125 Cl
ENDBRANCH  15  16
ENDBRANCH  13  15
ENDBRANCH   1  13
BRANCH   1  18
ATOM     18  C   UNL     1       7.523  -2.636  21.860  0.00  0.00    +0.065 C 
BRANCH  18  19
ATOM     19  C   UNL     1       6.582  -3.742  22.287  0.00  0.00    -0.045 A 
ATOM     20  C   UNL     1       5.351  -3.463  22.895  0.00  0.00    +0.004 A 
ATOM     21  C   UNL     1       4.474  -4.488  23.250  0.00  0.00    +0.000 A 
ATOM     22  C   UNL     1       4.838  -5.813  23.040  0.00  0.00    +0.000 A 
ATOM     23  C   UNL     1       6.076  -6.113  22.478  0.00  0.00    +0.000 A 
ATOM     24  C   UNL     1       6.941  -5.084  22.100  0.00  0.00    +0.004 A 
ENDBRANCH  18  19
ENDBRANCH   1  18
TORSDOF 8
ENDMDL
