MODEL 1
REMARK VINA RESULT:      -6.1      0.000      0.000
REMARK  Name = 
REMARK  3 active torsions:
REMARK  status: ('A' for Active; 'I' for Inactive)
REMARK    1  A    between atoms: O_1  and  C_2
REMARK    2  A    between atoms: C_6  and  O_7
REMARK    3  A    between atoms: O_7  and  C_8
REMARK                            x       y       z     vdW  Elec       q    Type
REMARK                         _______ _______ _______ _____ _____    ______ ____
ROOT
ATOM      1  C   UNL     1       7.497  -4.120  24.068  0.00  0.00    +0.145 A 
ATOM      2  C   UNL     1       7.260  -3.415  22.885  0.00  0.00    +0.064 A 
ATOM      3 BR   UNL     1       5.666  -3.664  21.887  0.00  0.00    -0.046 Br
ATOM      4  C   UNL     1       8.211  -2.513  22.400  0.00  0.00    +0.065 A 
ATOM      5  C   UNL     1       9.430  -2.358  23.064  0.00  0.00    +0.131 A 
ATOM      6  C   UNL     1       9.651  -3.032  24.268  0.00  0.00    +0.065 A 
ATOM      7  C   UNL     1       8.686  -3.906  24.770  0.00  0.00    +0.064 A 
ATOM      8 BR   UNL     1       9.021  -4.794  26.410  0.00  0.00    -0.046 Br
ENDROOT
BRANCH   1   9
ATOM      9  O   UNL     1       6.560  -5.008  24.526  0.00  0.00    -0.505 OA
ATOM     10  H   UNL     1       5.749  -4.887  23.999  0.00  0.00    +0.292 HD
ENDBRANCH   1   9
BRANCH   5  11
ATOM     11  O   UNL     1      10.445  -1.518  22.667  0.00  0.00    -0.456 OA
BRANCH  11  12
ATOM     12  C   UNL     1      10.372  -0.163  22.886  0.00  0.00    +0.128 A 
ATOM     13  C   UNL     1      10.704   0.478  24.082  0.00  0.00    +0.046 A 
ATOM     14  C   UNL     1      10.598   1.867  24.182  0.00  0.00    +0.004 A 
ATOM     15  C   UNL     1      10.109   2.612  23.111  0.00  0.00    +0.000 A 
ATOM     16  C   UNL     1       9.715   1.969  21.939  0.00  0.00    +0.004 A 
ATOM     17  C   UNL     1       9.845   0.584  21.830  0.00  0.00    +0.046 A 
ENDBRANCH  11  12
ENDBRANCH   5  11
TORSDOF 3
ENDMDL
MODEL 2
REMARK VINA RESULT:      -6.0      0.394      2.670
REMARK  Name = 
REMARK  3 active torsions:
REMARK  status: ('A' for Active; 'I' for Inactive)
REMARK    1  A    between atoms: O_1  and  C_2
REMARK    2  A    between atoms: C_6  and  O_7
REMARK    3  A    between atoms: O_7  and  C_8
REMARK                            x       y       z     vdW  Elec       q    Type
REMARK                         _______ _______ _______ _____ _____    ______ ____
ROOT
ATOM      1  C   UNL     1       7.115  -4.120  24.164  0.00  0.00    +0.145 A 
ATOM      2  C   UNL     1       8.243  -4.066  24.986  0.00  0.00    +0.064 A 
ATOM      3 BR   UNL     1       8.301  -4.974  26.650  0.00  0.00    -0.046 Br
ATOM      4  C   UNL     1       9.361  -3.319  24.600  0.00  0.00    +0.065 A 
ATOM      5  C   UNL     1       9.328  -2.574  23.419  0.00  0.00    +0.131 A 
ATOM      6  C   UNL     1       8.216  -2.660  22.578  0.00  0.00    +0.065 A 
ATOM      7  C   UNL     1       7.116  -3.434  22.947  0.00  0.00    +0.064 A 
ATOM      8 BR   UNL     1       5.631  -3.532  21.774  0.00  0.00    -0.046 Br
ENDROOT
BRANCH   1   9
ATOM      9  O   UNL     1       6.024  -4.848  24.560  0.00  0.00    -0.505 OA
ATOM     10  H   UNL     1       5.295  -4.657  23.943  0.00  0.00    +0.292 HD
ENDBRANCH   1   9
BRANCH   5  11
ATOM     11  O   UNL     1      10.358  -1.789  22.952  0.00  0.00    -0.456 OA
BRANCH  11  12
ATOM     12  C   UNL     1      10.253  -0.418  22.932  0.00  0.00    +0.128 A 
ATOM     13  C   UNL     1       9.904   0.346  21.816  0.00  0.00    +0.046 A 
ATOM     14  C   UNL     1       9.820   1.737  21.921  0.00  0.00    +0.004 A 
ATOM     15  C   UNL     1      10.140   2.369  23.120  0.00  0.00    +0.000 A 
ATOM     16  C   UNL     1      10.553   1.615  24.217  0.00  0.00    +0.004 A 
ATOM     17  C   UNL     1      10.611   0.224  24.120  0.00  0.00    +0.046 A 
ENDBRANCH  11  12
ENDBRANCH   5  11
TORSDOF 3
ENDMDL
MODEL 3
REMARK VINA RESULT:      -5.9      1.529      3.127
REMARK  Name = 
REMARK  3 active torsions:
REMARK  status: ('A' for Active; 'I' for Inactive)
REMARK    1  A    between atoms: O_1  and  C_2
REMARK    2  A    between atoms: C_6  and  O_7
REMARK    3  A    between atoms: O_7  and  C_8
REMARK                            x       y       z     vdW  Elec       q    Type
REMARK                         _______ _______ _______ _____ _____    ______ ____
ROOT
ATOM      1  C   UNL     1       6.440  -5.295  24.640  0.00  0.00    +0.145 A 
ATOM      2  C   UNL     1       7.194  -4.880  25.739  0.00  0.00    +0.064 A 
ATOM      3 BR   UNL     1       6.625  -5.220  27.516  0.00  0.00    -0.046 Br
ATOM      4  C   UNL     1       8.391  -4.183  25.550  0.00  0.00    +0.065 A 
ATOM      5  C   UNL     1       8.806  -3.846  24.259  0.00  0.00    +0.131 A 
ATOM      6  C   UNL     1       8.073  -4.296  23.158  0.00  0.00    +0.065 A 
ATOM      7  C   UNL     1       6.897  -5.022  23.348  0.00  0.00    +0.064 A 
ATOM      8 BR   UNL     1       5.936  -5.622  21.829  0.00  0.00    -0.046 Br
ENDROOT
BRANCH   1   9
ATOM      9  O   UNL     1       5.264  -5.969  24.842  0.00  0.00    -0.505 OA
ATOM     10  H   UNL     1       5.473  -6.815  25.278  0.00  0.00    +0.292 HD
ENDBRANCH   1   9
BRANCH   5  11
ATOM     11  O   UNL     1       9.951  -3.146  23.955  0.00  0.00    -0.456 OA
BRANCH  11  12
ATOM     12  C   UNL     1       9.893  -1.851  23.500  0.00  0.00    +0.128 A 
ATOM     13  C   UNL     1       9.903  -1.467  22.157  0.00  0.00    +0.046 A 
ATOM     14  C   UNL     1       9.829  -0.115  21.816  0.00  0.00    +0.004 A 
ATOM     15  C   UNL     1       9.802   0.858  22.813  0.00  0.00    +0.000 A 
ATOM     16  C   UNL     1       9.859   0.483  24.154  0.00  0.00    +0.004 A 
ATOM     17  C   UNL     1       9.905  -0.869  24.495  0.00  0.00    +0.046 A 
ENDBRANCH  11  12
ENDBRANCH   5  11
TORSDOF 3
ENDMDL
MODEL 4
REMARK VINA RESULT:      -5.8      1.532      2.257
REMARK  Name = 
REMARK  3 active torsions:
REMARK  status: ('A' for Active; 'I' for Inactive)
REMARK    1  A    between atoms: O_1  and  C_2
REMARK    2  A    between atoms: C_6  and  O_7
REMARK    3  A    between atoms: O_7  and  C_8
REMARK                            x       y       z     vdW  Elec       q    Type
REMARK                         _______ _______ _______ _____ _____    ______ ____
ROOT
ATOM      1  C   UNL     1       6.419  -5.317  24.639  0.00  0.00    +0.145 A 
ATOM      2  C   UNL     1       6.816  -5.067  23.324  0.00  0.00    +0.064 A 
ATOM      3 BR   UNL     1       5.844  -5.757  21.848  0.00  0.00    -0.046 Br
ATOM      4  C   UNL     1       7.960  -4.306  23.065  0.00  0.00    +0.065 A 
ATOM      5  C   UNL     1       8.746  -3.845  24.124  0.00  0.00    +0.131 A 
ATOM      6  C   UNL     1       8.328  -4.061  25.440  0.00  0.00    +0.065 A 
ATOM      7  C   UNL     1       7.167  -4.790  25.696  0.00  0.00    +0.064 A 
ATOM      8 BR   UNL     1       6.629  -5.053  27.494  0.00  0.00    -0.046 Br
ENDROOT
BRANCH   1   9
ATOM      9  O   UNL     1       5.301  -6.072  24.877  0.00  0.00    -0.505 OA
ATOM     10  H   UNL     1       5.545  -7.010  24.773  0.00  0.00    +0.292 HD
ENDBRANCH   1   9
BRANCH   5  11
ATOM     11  O   UNL     1       9.900  -3.109  23.989  0.00  0.00    -0.456 OA
BRANCH  11  12
ATOM     12  C   UNL     1       9.871  -1.826  23.497  0.00  0.00    +0.128 A 
ATOM     13  C   UNL     1       9.865  -1.483  22.142  0.00  0.00    +0.046 A 
ATOM     14  C   UNL     1       9.824  -0.139  21.763  0.00  0.00    +0.004 A 
ATOM     15  C   UNL     1       9.848   0.863  22.730  0.00  0.00    +0.000 A 
ATOM     16  C   UNL     1       9.922   0.526  24.080  0.00  0.00    +0.004 A 
ATOM     17  C   UNL     1       9.935  -0.816  24.461  0.00  0.00    +0.046 A 
ENDBRANCH  11  12
ENDBRANCH   5  11
TORSDOF 3
ENDMDL
MODEL 5
REMARK VINA RESULT:      -5.4      2.714      5.851
REMARK  Name = 
REMARK  3 active torsions:
REMARK  status: ('A' for Active; 'I' for Inactive)
REMARK    1  A    between atoms: O_1  and  C_2
REMARK    2  A    between atoms: C_6  and  O_7
REMARK    3  A    between atoms: O_7  and  C_8
REMARK                            x       y       z     vdW  Elec       q    Type
REMARK                         _______ _______ _______ _____ _____    ______ ____
ROOT
ATOM      1  C   UNL     1       8.997  -0.272  24.302  0.00  0.00    +0.145 A 
ATOM      2  C   UNL     1       9.123  -0.760  22.999  0.00  0.00    +0.064 A 
ATOM      3 BR   UNL     1       9.393   0.404  21.527  0.00  0.00    -0.046 Br
ATOM      4  C   UNL     1       9.035  -2.133  22.750  0.00  0.00    +0.065 A 
ATOM      5  C   UNL     1       8.760  -3.016  23.797  0.00  0.00    +0.131 A 
ATOM      6  C   UNL     1       8.674  -2.533  25.105  0.00  0.00    +0.065 A 
ATOM      7  C   UNL     1       8.796  -1.166  25.356  0.00  0.00    +0.064 A 
ATOM      8 BR   UNL     1       8.683  -0.551  27.145  0.00  0.00    -0.046 Br
ENDROOT
BRANCH   1   9
ATOM      9  O   UNL     1       9.075   1.077  24.529  0.00  0.00    -0.505 OA
ATOM     10  H   UNL     1       9.949   1.383  24.225  0.00  0.00    +0.292 HD
ENDBRANCH   1   9
BRANCH   5  11
ATOM     11  O   UNL     1       8.630  -4.380  23.666  0.00  0.00    -0.456 OA
BRANCH  11  12
ATOM     12  C   UNL     1       7.460  -4.943  23.217  0.00  0.00    +0.128 A 
ATOM     13  C   UNL     1       7.178  -5.262  21.886  0.00  0.00    +0.046 A 
ATOM     14  C   UNL     1       5.952  -5.842  21.552  0.00  0.00    +0.004 A 
ATOM     15  C   UNL     1       4.985  -6.052  22.532  0.00  0.00    +0.000 A 
ATOM     16  C   UNL     1       5.237  -5.674  23.850  0.00  0.00    +0.004 A 
ATOM     17  C   UNL     1       6.472  -5.119  24.189  0.00  0.00    +0.046 A 
ENDBRANCH  11  12
ENDBRANCH   5  11
TORSDOF 3
ENDMDL
MODEL 6
REMARK VINA RESULT:      -5.3      2.765      5.787
REMARK  Name = 
REMARK  3 active torsions:
REMARK  status: ('A' for Active; 'I' for Inactive)
REMARK    1  A    between atoms: O_1  and  C_2
REMARK    2  A    between atoms: C_6  and  O_7
REMARK    3  A    between atoms: O_7  and  C_8
REMARK                            x       y       z     vdW  Elec       q    Type
REMARK                         _______ _______ _______ _____ _____    ______ ____
ROOT
ATOM      1  C   UNL     1       8.908  -0.194  24.359  0.00  0.00    +0.145 A 
ATOM      2  C   UNL     1       9.139  -0.678  23.070  0.00  0.00    +0.064 A 
ATOM      3 BR   UNL     1       9.508   0.493  21.624  0.00  0.00    -0.046 Br
ATOM      4  C   UNL     1       9.087  -2.051  22.813  0.00  0.00    +0.065 A 
ATOM      5  C   UNL     1       8.743  -2.940  23.834  0.00  0.00    +0.131 A 
ATOM      6  C   UNL     1       8.552  -2.460  25.132  0.00  0.00    +0.065 A 
ATOM      7  C   UNL     1       8.639  -1.093  25.394  0.00  0.00    +0.064 A 
ATOM      8 BR   UNL     1       8.381  -0.484  27.170  0.00  0.00    -0.046 Br
ENDROOT
BRANCH   1   9
ATOM      9  O   UNL     1       8.953   1.155  24.593  0.00  0.00    -0.505 OA
ATOM     10  H   UNL     1       9.771   1.503  24.193  0.00  0.00    +0.292 HD
ENDBRANCH   1   9
BRANCH   5  11
ATOM     11  O   UNL     1       8.641  -4.305  23.692  0.00  0.00    -0.456 OA
BRANCH  11  12
ATOM     12  C   UNL     1       7.446  -4.897  23.357  0.00  0.00    +0.128 A 
ATOM     13  C   UNL     1       6.427  -5.219  24.257  0.00  0.00    +0.046 A 
ATOM     14  C   UNL     1       5.250  -5.812  23.795  0.00  0.00    +0.004 A 
ATOM     15  C   UNL     1       5.110  -6.136  22.448  0.00  0.00    +0.000 A 
ATOM     16  C   UNL     1       6.151  -5.877  21.558  0.00  0.00    +0.004 A 
ATOM     17  C   UNL     1       7.317  -5.260  22.014  0.00  0.00    +0.046 A 
ENDBRANCH  11  12
ENDBRANCH   5  11
TORSDOF 3
ENDMDL
MODEL 7
REMARK VINA RESULT:      -5.3      2.738      6.165
REMARK  Name = 
REMARK  3 active torsions:
REMARK  status: ('A' for Active; 'I' for Inactive)
REMARK    1  A    between atoms: O_1  and  C_2
REMARK    2  A    between atoms: C_6  and  O_7
REMARK    3  A    between atoms: O_7  and  C_8
REMARK                            x       y       z     vdW  Elec       q    Type
REMARK                         _______ _______ _______ _____ _____    ______ ____
ROOT
ATOM      1  C   UNL     1       8.927  -0.298  24.365  0.00  0.00    +0.145 A 
ATOM      2  C   UNL     1       8.614  -1.113  25.455  0.00  0.00    +0.064 A 
ATOM      3 BR   UNL     1       8.372  -0.393  27.193  0.00  0.00    -0.046 Br
ATOM      4  C   UNL     1       8.488  -2.496  25.289  0.00  0.00    +0.065 A 
ATOM      5  C   UNL     1       8.734  -3.074  24.041  0.00  0.00    +0.131 A 
ATOM      6  C   UNL     1       9.007  -2.255  22.942  0.00  0.00    +0.065 A 
ATOM      7  C   UNL     1       9.099  -0.873  23.103  0.00  0.00    +0.064 A 
ATOM      8 BR   UNL     1       9.462   0.203  21.586  0.00  0.00    -0.046 Br
ENDROOT
BRANCH   1   9
ATOM      9  O   UNL     1       9.058   1.053  24.546  0.00  0.00    -0.505 OA
ATOM     10  H   UNL     1       9.296   1.450  23.688  0.00  0.00    +0.292 HD
ENDBRANCH   1   9
BRANCH   5  11
ATOM     11  O   UNL     1       8.661  -4.420  23.766  0.00  0.00    -0.456 OA
BRANCH  11  12
ATOM     12  C   UNL     1       7.511  -4.982  23.265  0.00  0.00    +0.128 A 
ATOM     13  C   UNL     1       7.304  -5.338  21.930  0.00  0.00    +0.046 A 
ATOM     14  C   UNL     1       6.091  -5.912  21.541  0.00  0.00    +0.004 A 
ATOM     15  C   UNL     1       5.065  -6.079  22.468  0.00  0.00    +0.000 A 
ATOM     16  C   UNL     1       5.244  -5.664  23.786  0.00  0.00    +0.004 A 
ATOM     17  C   UNL     1       6.464  -5.115  24.182  0.00  0.00    +0.046 A 
ENDBRANCH  11  12
ENDBRANCH   5  11
TORSDOF 3
ENDMDL
MODEL 8
REMARK VINA RESULT:      -5.2      3.533      6.009
REMARK  Name = 
REMARK  3 active torsions:
REMARK  status: ('A' for Active; 'I' for Inactive)
REMARK    1  A    between atoms: O_1  and  C_2
REMARK    2  A    between atoms: C_6  and  O_7
REMARK    3  A    between atoms: O_7  and  C_8
REMARK                            x       y       z     vdW  Elec       q    Type
REMARK                         _______ _______ _______ _____ _____    ______ ____
ROOT
ATOM      1  C   UNL     1       8.579   3.328  22.933  0.00  0.00    +0.145 A 
ATOM      2  C   UNL     1       7.496   2.563  22.494  0.00  0.00    +0.064 A 
ATOM      3 BR   UNL     1       5.721   3.228  22.562  0.00  0.00    -0.046 Br
ATOM      4  C   UNL     1       7.700   1.270  22.004  0.00  0.00    +0.065 A 
ATOM      5  C   UNL     1       8.982   0.716  22.008  0.00  0.00    +0.131 A 
ATOM      6  C   UNL     1      10.071   1.494  22.410  0.00  0.00    +0.065 A 
ATOM      7  C   UNL     1       9.870   2.797  22.866  0.00  0.00    +0.064 A 
ATOM      8 BR   UNL     1      11.373   3.824  23.393  0.00  0.00    -0.046 Br
ENDROOT
BRANCH   1   9
ATOM      9  O   UNL     1       8.363   4.590  23.420  0.00  0.00    -0.505 OA
ATOM     10  H   UNL     1       7.684   5.015  22.864  0.00  0.00    +0.292 HD
ENDBRANCH   1   9
BRANCH   5  11
ATOM     11  O   UNL     1       9.297  -0.551  21.571  0.00  0.00    -0.456 OA
BRANCH  11  12
ATOM     12  C   UNL     1       9.006  -1.658  22.332  0.00  0.00    +0.128 A 
ATOM     13  C   UNL     1       7.855  -2.441  22.207  0.00  0.00    +0.046 A 
ATOM     14  C   UNL     1       7.674  -3.552  23.034  0.00  0.00    +0.004 A 
ATOM     15  C   UNL     1       8.609  -3.851  24.022  0.00  0.00    +0.000 A 
ATOM     16  C   UNL     1       9.725  -3.033  24.193  0.00  0.00    +0.004 A 
ATOM     17  C   UNL     1       9.920  -1.939  23.350  0.00  0.00    +0.046 A 
ENDBRANCH  11  12
ENDBRANCH   5  11
TORSDOF 3
ENDMDL
MODEL 9
REMARK VINA RESULT:      -5.1      4.359      6.827
REMARK  Name = 
REMARK  3 active torsions:
REMARK  status: ('A' for Active; 'I' for Inactive)
REMARK    1  A    between atoms: O_1  and  C_2
REMARK    2  A    between atoms: C_6  and  O_7
REMARK    3  A    between atoms: O_7  and  C_8
REMARK                            x       y       z     vdW  Elec       q    Type
REMARK                         _______ _______ _______ _____ _____    ______ ____
ROOT
ATOM      1  C   UNL     1       9.939   4.818  23.813  0.00  0.00    +0.145 A 
ATOM      2  C   UNL     1       8.920   3.964  24.238  0.00  0.00    +0.064 A 
ATOM      3 BR   UNL     1       7.207   4.624  24.713  0.00  0.00    -0.046 Br
ATOM      4  C   UNL     1       9.150   2.588  24.339  0.00  0.00    +0.065 A 
ATOM      5  C   UNL     1      10.421   2.072  24.073  0.00  0.00    +0.131 A 
ATOM      6  C   UNL     1      11.429   2.921  23.609  0.00  0.00    +0.065 A 
ATOM      7  C   UNL     1      11.187   4.288  23.475  0.00  0.00    +0.064 A 
ATOM      8 BR   UNL     1      12.578   5.404  22.834  0.00  0.00    -0.046 Br
ENDROOT
BRANCH   1   9
ATOM      9  O   UNL     1       9.702   6.165  23.729  0.00  0.00    -0.505 OA
ATOM     10  H   UNL     1      10.516   6.595  23.409  0.00  0.00    +0.292 HD
ENDBRANCH   1   9
BRANCH   5  11
ATOM     11  O   UNL     1      10.767   0.743  24.160  0.00  0.00    -0.456 OA
BRANCH  11  12
ATOM     12  C   UNL     1      10.039  -0.225  23.509  0.00  0.00    +0.128 A 
ATOM     13  C   UNL     1       9.862  -0.305  22.125  0.00  0.00    +0.046 A 
ATOM     14  C   UNL     1       9.106  -1.345  21.578  0.00  0.00    +0.004 A 
ATOM     15  C   UNL     1       8.481  -2.270  22.409  0.00  0.00    +0.000 A 
ATOM     16  C   UNL     1       8.600  -2.155  23.793  0.00  0.00    +0.004 A 
ATOM     17  C   UNL     1       9.377  -1.133  24.340  0.00  0.00    +0.046 A 
ENDBRANCH  11  12
ENDBRANCH   5  11
TORSDOF 3
ENDMDL
