MODEL 1
REMARK VINA RESULT:      -7.8      0.000      0.000
REMARK  Name = 
REMARK  4 active torsions:
REMARK  status: ('A' for Active; 'I' for Inactive)
REMARK    1  A    between atoms: C_2  and  C_24
REMARK    2  A    between atoms: C_9  and  C_11
REMARK    3  A    between atoms: C_11  and  C_12
REMARK    4  A    between atoms: C_12  and  N_13
REMARK                            x       y       z     vdW  Elec       q    Type
REMARK                         _______ _______ _______ _____ _____    ______ ____
ROOT
ATOM      1  C   UNL     1       5.041  -5.027  23.699  0.00  0.00    +0.168 C 
ATOM      2  N   UNL     1       6.355  -5.055  24.370  0.00  0.00    -0.284 N 
ATOM      3  C   UNL     1       6.552  -4.636  25.669  0.00  0.00    +0.218 C 
ATOM      4  O   UNL     1       5.619  -4.273  26.383  0.00  0.00    -0.276 OA
ATOM      5  C   UNL     1       7.383  -5.567  23.467  0.00  0.00    +0.184 C 
ATOM      6  C   UNL     1       6.698  -5.821  22.136  0.00  0.00    +0.266 C 
ATOM      7  F   UNL     1       6.489  -7.135  21.929  0.00  0.00    -0.204 F 
ATOM      8  F   UNL     1       7.460  -5.377  21.110  0.00  0.00    -0.204 F 
ATOM      9  C   UNL     1       5.399  -5.037  22.206  0.00  0.00    +0.109 C 
ENDROOT
BRANCH   1  10
ATOM     10  C   UNL     1       4.202  -6.274  24.070  0.00  0.00    +0.236 C 
ATOM     11  N   UNL     1       2.829  -6.152  24.076  0.00  0.00    -0.300 N 
ATOM     12  C   UNL     1       2.050  -5.211  23.289  0.00  0.00    +0.108 C 
ATOM     13  C   UNL     1       0.623  -5.752  23.301  0.00  0.00    +0.020 C 
ATOM     14  C   UNL     1       0.756  -7.195  23.775  0.00  0.00    +0.020 C 
ATOM     15  C   UNL     1       1.982  -7.169  24.666  0.00  0.00    +0.108 C 
ATOM     16  O   UNL     1       4.749  -7.315  24.437  0.00  0.00    -0.274 OA
ENDBRANCH   1  10
BRANCH   3  17
ATOM     17  C   UNL     1       7.991  -4.573  26.165  0.00  0.00    +0.115 C 
BRANCH  17  18
ATOM     18  C   UNL     1       8.420  -3.157  26.522  0.00  0.00    +0.126 C 
BRANCH  18  19
ATOM     19  N   UNL     1       8.526  -2.321  25.329  0.00  0.00    -0.234 N 
ATOM     20  C   UNL     1       7.863  -1.135  25.148  0.00  0.00    +0.254 C 
ATOM     21  O   UNL     1       7.095  -0.569  25.903  0.00  0.00    -0.270 OA
ATOM     22  C   UNL     1       8.287  -0.609  23.846  0.00  0.00    +0.049 A 
ATOM     23  C   UNL     1       7.908   0.529  23.157  0.00  0.00    +0.014 A 
ATOM     24  C   UNL     1       8.509   0.758  21.911  0.00  0.00    +0.001 A 
ATOM     25  C   UNL     1       9.467  -0.139  21.394  0.00  0.00    +0.001 A 
ATOM     26  C   UNL     1       9.838  -1.279  22.112  0.00  0.00    +0.014 A 
ATOM     27  C   UNL     1       9.225  -1.487  23.335  0.00  0.00    +0.049 A 
ATOM     28  C   UNL     1       9.397  -2.565  24.306  0.00  0.00    +0.254 C 
ATOM     29  O   UNL     1      10.202  -3.470  24.177  0.00  0.00    -0.270 OA
ENDBRANCH  18  19
ENDBRANCH  17  18
ENDBRANCH   3  17
TORSDOF 4
ENDMDL
MODEL 2
REMARK VINA RESULT:      -7.6      3.389      8.560
REMARK  Name = 
REMARK  4 active torsions:
REMARK  status: ('A' for Active; 'I' for Inactive)
REMARK    1  A    between atoms: C_2  and  C_24
REMARK    2  A    between atoms: C_9  and  C_11
REMARK    3  A    between atoms: C_11  and  C_12
REMARK    4  A    between atoms: C_12  and  N_13
REMARK                            x       y       z     vdW  Elec       q    Type
REMARK                         _______ _______ _______ _____ _____    ______ ____
ROOT
ATOM      1  C   UNL     1       9.914   1.417  23.478  0.00  0.00    +0.168 C 
ATOM      2  N   UNL     1       8.908   0.384  23.789  0.00  0.00    -0.284 N 
ATOM      3  C   UNL     1       8.688  -0.100  25.062  0.00  0.00    +0.218 C 
ATOM      4  O   UNL     1       9.275   0.356  26.041  0.00  0.00    -0.276 OA
ATOM      5  C   UNL     1       8.215  -0.042  22.576  0.00  0.00    +0.184 C 
ATOM      6  C   UNL     1       8.855   0.717  21.427  0.00  0.00    +0.266 C 
ATOM      7  F   UNL     1       8.066   1.720  20.996  0.00  0.00    -0.204 F 
ATOM      8  F   UNL     1       9.068  -0.099  20.370  0.00  0.00    -0.204 F 
ATOM      9  C   UNL     1      10.177   1.224  21.978  0.00  0.00    +0.109 C 
ENDROOT
BRANCH   1  10
ATOM     10  C   UNL     1       9.359   2.835  23.760  0.00  0.00    +0.236 C 
ATOM     11  N   UNL     1      10.263   3.863  23.925  0.00  0.00    -0.300 N 
ATOM     12  C   UNL     1      11.600   3.926  23.360  0.00  0.00    +0.108 C 
ATOM     13  C   UNL     1      12.010   5.395  23.447  0.00  0.00    +0.020 C 
ATOM     14  C   UNL     1      10.709   6.149  23.701  0.00  0.00    +0.020 C 
ATOM     15  C   UNL     1       9.855   5.149  24.455  0.00  0.00    +0.108 C 
ATOM     16  O   UNL     1       8.152   3.018  23.921  0.00  0.00    -0.274 OA
ENDBRANCH   1  10
BRANCH   3  17
ATOM     17  C   UNL     1       7.732  -1.279  25.198  0.00  0.00    +0.115 C 
BRANCH  17  18
ATOM     18  C   UNL     1       8.449  -2.618  25.115  0.00  0.00    +0.126 C 
BRANCH  18  19
ATOM     19  N   UNL     1       7.497  -3.725  25.068  0.00  0.00    -0.234 N 
ATOM     20  C   UNL     1       6.982  -4.357  26.170  0.00  0.00    +0.254 C 
ATOM     21  O   UNL     1       7.199  -4.135  27.346  0.00  0.00    -0.270 OA
ATOM     22  C   UNL     1       6.041  -5.369  25.676  0.00  0.00    +0.049 A 
ATOM     23  C   UNL     1       5.275  -6.304  26.346  0.00  0.00    +0.014 A 
ATOM     24  C   UNL     1       4.458  -7.142  25.574  0.00  0.00    +0.001 A 
ATOM     25  C   UNL     1       4.422  -7.023  24.169  0.00  0.00    +0.001 A 
ATOM     26  C   UNL     1       5.201  -6.064  23.514  0.00  0.00    +0.014 A 
ATOM     27  C   UNL     1       6.004  -5.255  24.298  0.00  0.00    +0.049 A 
ATOM     28  C   UNL     1       6.915  -4.178  23.918  0.00  0.00    +0.254 C 
ATOM     29  O   UNL     1       7.065  -3.789  22.774  0.00  0.00    -0.270 OA
ENDBRANCH  18  19
ENDBRANCH  17  18
ENDBRANCH   3  17
TORSDOF 4
ENDMDL
MODEL 3
REMARK VINA RESULT:      -7.6      3.095      6.691
REMARK  Name = 
REMARK  4 active torsions:
REMARK  status: ('A' for Active; 'I' for Inactive)
REMARK    1  A    between atoms: C_2  and  C_24
REMARK    2  A    between atoms: C_9  and  C_11
REMARK    3  A    between atoms: C_11  and  C_12
REMARK    4  A    between atoms: C_12  and  N_13
REMARK                            x       y       z     vdW  Elec       q    Type
REMARK                         _______ _______ _______ _____ _____    ______ ____
ROOT
ATOM      1  C   UNL     1       9.250   0.546  24.065  0.00  0.00    +0.168 C 
ATOM      2  N   UNL     1       9.057  -0.746  24.750  0.00  0.00    -0.284 N 
ATOM      3  C   UNL     1       8.502  -0.862  26.007  0.00  0.00    +0.218 C 
ATOM      4  O   UNL     1       8.063   0.112  26.616  0.00  0.00    -0.276 OA
ATOM      5  C   UNL     1       9.541  -1.846  23.920  0.00  0.00    +0.184 C 
ATOM      6  C   UNL     1      10.126  -1.215  22.669  0.00  0.00    +0.266 C 
ATOM      7  F   UNL     1       9.307  -1.362  21.610  0.00  0.00    -0.204 F 
ATOM      8  F   UNL     1      11.303  -1.797  22.341  0.00  0.00    -0.204 F 
ATOM      9  C   UNL     1      10.342   0.245  23.030  0.00  0.00    +0.109 C 
ENDROOT
BRANCH   1  10
ATOM     10  C   UNL     1       7.946   1.007  23.369  0.00  0.00    +0.236 C 
ATOM     11  N   UNL     1       7.646   2.352  23.381  0.00  0.00    -0.300 N 
ATOM     12  C   UNL     1       8.603   3.442  23.475  0.00  0.00    +0.108 C 
ATOM     13  C   UNL     1       7.851   4.686  23.009  0.00  0.00    +0.020 C 
ATOM     14  C   UNL     1       6.613   4.150  22.298  0.00  0.00    +0.020 C 
ATOM     15  C   UNL     1       6.334   2.837  23.002  0.00  0.00    +0.108 C 
ATOM     16  O   UNL     1       7.158   0.184  22.900  0.00  0.00    -0.274 OA
ENDBRANCH   1  10
BRANCH   3  17
ATOM     17  C   UNL     1       8.518  -2.245  26.646  0.00  0.00    +0.115 C 
BRANCH  17  18
ATOM     18  C   UNL     1       7.162  -2.931  26.579  0.00  0.00    +0.126 C 
BRANCH  18  19
ATOM     19  N   UNL     1       6.953  -3.563  25.278  0.00  0.00    -0.234 N 
ATOM     20  C   UNL     1       6.153  -3.059  24.287  0.00  0.00    +0.254 C 
ATOM     21  O   UNL     1       5.491  -2.038  24.288  0.00  0.00    -0.270 OA
ATOM     22  C   UNL     1       6.263  -3.975  23.146  0.00  0.00    +0.049 A 
ATOM     23  C   UNL     1       5.648  -3.967  21.908  0.00  0.00    +0.014 A 
ATOM     24  C   UNL     1       5.973  -5.001  21.020  0.00  0.00    +0.001 A 
ATOM     25  C   UNL     1       6.898  -6.002  21.381  0.00  0.00    +0.001 A 
ATOM     26  C   UNL     1       7.513  -5.985  22.637  0.00  0.00    +0.014 A 
ATOM     27  C   UNL     1       7.170  -4.959  23.499  0.00  0.00    +0.049 A 
ATOM     28  C   UNL     1       7.632  -4.670  24.854  0.00  0.00    +0.254 C 
ATOM     29  O   UNL     1       8.483  -5.321  25.432  0.00  0.00    -0.270 OA
ENDBRANCH  18  19
ENDBRANCH  17  18
ENDBRANCH   3  17
TORSDOF 4
ENDMDL
MODEL 4
REMARK VINA RESULT:      -7.5      2.845      7.174
REMARK  Name = 
REMARK  4 active torsions:
REMARK  status: ('A' for Active; 'I' for Inactive)
REMARK    1  A    between atoms: C_2  and  C_24
REMARK    2  A    between atoms: C_9  and  C_11
REMARK    3  A    between atoms: C_11  and  C_12
REMARK    4  A    between atoms: C_12  and  N_13
REMARK                            x       y       z     vdW  Elec       q    Type
REMARK                         _______ _______ _______ _____ _____    ______ ____
ROOT
ATOM      1  C   UNL     1       8.150  -0.594  23.827  0.00  0.00    +0.168 C 
ATOM      2  N   UNL     1       7.732  -1.629  22.863  0.00  0.00    -0.284 N 
ATOM      3  C   UNL     1       6.502  -2.251  22.904  0.00  0.00    +0.218 C 
ATOM      4  O   UNL     1       5.637  -1.928  23.717  0.00  0.00    -0.276 OA
ATOM      5  C   UNL     1       8.795  -1.892  21.896  0.00  0.00    +0.184 C 
ATOM      6  C   UNL     1       9.971  -1.022  22.304  0.00  0.00    +0.266 C 
ATOM      7  F   UNL     1      10.103   0.044  21.493  0.00  0.00    -0.204 F 
ATOM      8  F   UNL     1      11.130  -1.716  22.235  0.00  0.00    -0.204 F 
ATOM      9  C   UNL     1       9.682  -0.619  23.740  0.00  0.00    +0.109 C 
ENDROOT
BRANCH   1  10
ATOM     10  C   UNL     1       7.600   0.796  23.423  0.00  0.00    +0.236 C 
ATOM     11  N   UNL     1       7.163   1.635  24.425  0.00  0.00    -0.300 N 
ATOM     12  C   UNL     1       7.622   1.634  25.804  0.00  0.00    +0.108 C 
ATOM     13  C   UNL     1       7.195   2.983  26.377  0.00  0.00    +0.020 C 
ATOM     14  C   UNL     1       6.859   3.836  25.159  0.00  0.00    +0.020 C 
ATOM     15  C   UNL     1       6.391   2.826  24.131  0.00  0.00    +0.108 C 
ATOM     16  O   UNL     1       7.474   1.102  22.237  0.00  0.00    -0.274 OA
ENDBRANCH   1  10
BRANCH   3  17
ATOM     17  C   UNL     1       6.280  -3.412  21.942  0.00  0.00    +0.115 C 
BRANCH  17  18
ATOM     18  C   UNL     1       7.025  -4.668  22.368  0.00  0.00    +0.126 C 
BRANCH  18  19
ATOM     19  N   UNL     1       6.693  -5.041  23.740  0.00  0.00    -0.234 N 
ATOM     20  C   UNL     1       5.577  -5.747  24.107  0.00  0.00    +0.254 C 
ATOM     21  O   UNL     1       4.687  -6.183  23.403  0.00  0.00    -0.270 OA
ATOM     22  C   UNL     1       5.656  -5.939  25.559  0.00  0.00    +0.049 A 
ATOM     23  C   UNL     1       4.788  -6.548  26.447  0.00  0.00    +0.014 A 
ATOM     24  C   UNL     1       5.158  -6.572  27.798  0.00  0.00    +0.001 A 
ATOM     25  C   UNL     1       6.375  -6.001  28.226  0.00  0.00    +0.001 A 
ATOM     26  C   UNL     1       7.240  -5.397  27.309  0.00  0.00    +0.014 A 
ATOM     27  C   UNL     1       6.849  -5.379  25.982  0.00  0.00    +0.049 A 
ATOM     28  C   UNL     1       7.522  -4.834  24.806  0.00  0.00    +0.254 C 
ATOM     29  O   UNL     1       8.628  -4.323  24.835  0.00  0.00    -0.270 OA
ENDBRANCH  18  19
ENDBRANCH  17  18
ENDBRANCH   3  17
TORSDOF 4
ENDMDL
MODEL 5
REMARK VINA RESULT:      -7.4      3.437      8.346
REMARK  Name = 
REMARK  4 active torsions:
REMARK  status: ('A' for Active; 'I' for Inactive)
REMARK    1  A    between atoms: C_2  and  C_24
REMARK    2  A    between atoms: C_9  and  C_11
REMARK    3  A    between atoms: C_11  and  C_12
REMARK    4  A    between atoms: C_12  and  N_13
REMARK                            x       y       z     vdW  Elec       q    Type
REMARK                         _______ _______ _______ _____ _____    ______ ____
ROOT
ATOM      1  C   UNL     1       9.332   1.648  23.829  0.00  0.00    +0.168 C 
ATOM      2  N   UNL     1       8.039   0.943  23.926  0.00  0.00    -0.284 N 
ATOM      3  C   UNL     1       7.303   0.867  25.089  0.00  0.00    +0.218 C 
ATOM      4  O   UNL     1       7.649   1.449  26.117  0.00  0.00    -0.276 OA
ATOM      5  C   UNL     1       7.679   0.349  22.641  0.00  0.00    +0.184 C 
ATOM      6  C   UNL     1       8.831   0.639  21.695  0.00  0.00    +0.266 C 
ATOM      7  F   UNL     1       8.523   1.620  20.827  0.00  0.00    -0.204 F 
ATOM      8  F   UNL     1       9.140  -0.455  20.962  0.00  0.00    -0.204 F 
ATOM      9  C   UNL     1       9.995   1.016  22.597  0.00  0.00    +0.109 C 
ENDROOT
BRANCH   1  10
ATOM     10  C   UNL     1       9.121   3.168  23.620  0.00  0.00    +0.236 C 
ATOM     11  N   UNL     1      10.211   3.998  23.768  0.00  0.00    -0.300 N 
ATOM     12  C   UNL     1      11.602   3.629  23.568  0.00  0.00    +0.108 C 
ATOM     13  C   UNL     1      12.356   4.948  23.413  0.00  0.00    +0.020 C 
ATOM     14  C   UNL     1      11.273   5.987  23.141  0.00  0.00    +0.020 C 
ATOM     15  C   UNL     1      10.058   5.437  23.861  0.00  0.00    +0.108 C 
ATOM     16  O   UNL     1       7.996   3.625  23.418  0.00  0.00    -0.274 OA
ENDBRANCH   1  10
BRANCH   3  17
ATOM     17  C   UNL     1       6.072  -0.031  25.072  0.00  0.00    +0.115 C 
BRANCH  17  18
ATOM     18  C   UNL     1       6.290  -1.328  25.838  0.00  0.00    +0.126 C 
BRANCH  18  19
ATOM     19  N   UNL     1       6.240  -2.483  24.947  0.00  0.00    -0.234 N 
ATOM     20  C   UNL     1       5.088  -3.108  24.544  0.00  0.00    +0.254 C 
ATOM     21  O   UNL     1       3.937  -2.840  24.831  0.00  0.00    -0.270 OA
ATOM     22  C   UNL     1       5.487  -4.181  23.627  0.00  0.00    +0.049 A 
ATOM     23  C   UNL     1       4.739  -5.135  22.961  0.00  0.00    +0.014 A 
ATOM     24  C   UNL     1       5.430  -6.036  22.139  0.00  0.00    +0.001 A 
ATOM     25  C   UNL     1       6.831  -5.961  21.998  0.00  0.00    +0.001 A 
ATOM     26  C   UNL     1       7.564  -4.983  22.676  0.00  0.00    +0.014 A 
ATOM     27  C   UNL     1       6.861  -4.110  23.487  0.00  0.00    +0.049 A 
ATOM     28  C   UNL     1       7.333  -3.000  24.311  0.00  0.00    +0.254 C 
ATOM     29  O   UNL     1       8.495  -2.638  24.358  0.00  0.00    -0.270 OA
ENDBRANCH  18  19
ENDBRANCH  17  18
ENDBRANCH   3  17
TORSDOF 4
ENDMDL
MODEL 6
REMARK VINA RESULT:      -7.4      3.828      5.554
REMARK  Name = 
REMARK  4 active torsions:
REMARK  status: ('A' for Active; 'I' for Inactive)
REMARK    1  A    between atoms: C_2  and  C_24
REMARK    2  A    between atoms: C_9  and  C_11
REMARK    3  A    between atoms: C_11  and  C_12
REMARK    4  A    between atoms: C_12  and  N_13
REMARK                            x       y       z     vdW  Elec       q    Type
REMARK                         _______ _______ _______ _____ _____    ______ ____
ROOT
ATOM      1  C   UNL     1       7.148  -2.076  23.340  0.00  0.00    +0.168 C 
ATOM      2  N   UNL     1       7.623  -0.824  23.961  0.00  0.00    -0.284 N 
ATOM      3  C   UNL     1       6.776   0.138  24.470  0.00  0.00    +0.218 C 
ATOM      4  O   UNL     1       5.557  -0.020  24.500  0.00  0.00    -0.276 OA
ATOM      5  C   UNL     1       9.082  -0.762  23.943  0.00  0.00    +0.184 C 
ATOM      6  C   UNL     1       9.557  -2.010  23.219  0.00  0.00    +0.266 C 
ATOM      7  F   UNL     1      10.048  -2.923  24.076  0.00  0.00    -0.204 F 
ATOM      8  F   UNL     1      10.549  -1.713  22.348  0.00  0.00    -0.204 F 
ATOM      9  C   UNL     1       8.335  -2.520  22.473  0.00  0.00    +0.109 C 
ENDROOT
BRANCH   1  10
ATOM     10  C   UNL     1       6.824  -3.142  24.414  0.00  0.00    +0.236 C 
ATOM     11  N   UNL     1       5.804  -4.032  24.156  0.00  0.00    -0.300 N 
ATOM     12  C   UNL     1       5.351  -4.457  22.843  0.00  0.00    +0.108 C 
ATOM     13  C   UNL     1       4.547  -5.733  23.082  0.00  0.00    +0.020 C 
ATOM     14  C   UNL     1       4.926  -6.175  24.492  0.00  0.00    +0.020 C 
ATOM     15  C   UNL     1       5.255  -4.876  25.199  0.00  0.00    +0.108 C 
ATOM     16  O   UNL     1       7.401  -3.134  25.503  0.00  0.00    -0.274 OA
ENDBRANCH   1  10
BRANCH   3  17
ATOM     17  C   UNL     1       7.411   1.444  24.931  0.00  0.00    +0.115 C 
BRANCH  17  18
ATOM     18  C   UNL     1       7.413   2.504  23.840  0.00  0.00    +0.126 C 
BRANCH  18  19
ATOM     19  N   UNL     1       8.600   3.350  23.927  0.00  0.00    -0.234 N 
ATOM     20  C   UNL     1       9.787   3.096  23.290  0.00  0.00    +0.254 C 
ATOM     21  O   UNL     1      10.075   2.166  22.562  0.00  0.00    -0.270 OA
ATOM     22  C   UNL     1      10.687   4.210  23.610  0.00  0.00    +0.049 A 
ATOM     23  C   UNL     1      12.004   4.445  23.264  0.00  0.00    +0.014 A 
ATOM     24  C   UNL     1      12.594   5.626  23.734  0.00  0.00    +0.001 A 
ATOM     25  C   UNL     1      11.861   6.537  24.524  0.00  0.00    +0.001 A 
ATOM     26  C   UNL     1      10.527   6.280  24.856  0.00  0.00    +0.014 A 
ATOM     27  C   UNL     1       9.971   5.104  24.386  0.00  0.00    +0.049 A 
ATOM     28  C   UNL     1       8.625   4.562  24.558  0.00  0.00    +0.254 C 
ATOM     29  O   UNL     1       7.730   5.144  25.145  0.00  0.00    -0.270 OA
ENDBRANCH  18  19
ENDBRANCH  17  18
ENDBRANCH   3  17
TORSDOF 4
ENDMDL
MODEL 7
REMARK VINA RESULT:      -7.4      2.551      7.032
REMARK  Name = 
REMARK  4 active torsions:
REMARK  status: ('A' for Active; 'I' for Inactive)
REMARK    1  A    between atoms: C_2  and  C_24
REMARK    2  A    between atoms: C_9  and  C_11
REMARK    3  A    between atoms: C_11  and  C_12
REMARK    4  A    between atoms: C_12  and  N_13
REMARK                            x       y       z     vdW  Elec       q    Type
REMARK                         _______ _______ _______ _____ _____    ______ ____
ROOT
ATOM      1  C   UNL     1       7.967  -2.533  24.420  0.00  0.00    +0.168 C 
ATOM      2  N   UNL     1       7.318  -3.719  23.829  0.00  0.00    -0.284 N 
ATOM      3  C   UNL     1       6.345  -3.644  22.855  0.00  0.00    +0.218 C 
ATOM      4  O   UNL     1       6.002  -2.571  22.361  0.00  0.00    -0.276 OA
ATOM      5  C   UNL     1       7.843  -4.945  24.427  0.00  0.00    +0.184 C 
ATOM      6  C   UNL     1       8.832  -4.512  25.495  0.00  0.00    +0.266 C 
ATOM      7  F   UNL     1      10.104  -4.690  25.092  0.00  0.00    -0.204 F 
ATOM      8  F   UNL     1       8.670  -5.240  26.623  0.00  0.00    -0.204 F 
ATOM      9  C   UNL     1       8.512  -3.050  25.758  0.00  0.00    +0.109 C 
ENDROOT
BRANCH   1  10
ATOM     10  C   UNL     1       9.119  -2.023  23.519  0.00  0.00    +0.236 C 
ATOM     11  N   UNL     1       8.910  -0.871  22.791  0.00  0.00    -0.300 N 
ATOM     12  C   UNL     1       7.999   0.206  23.137  0.00  0.00    +0.108 C 
ATOM     13  C   UNL     1       8.445   1.402  22.300  0.00  0.00    +0.020 C 
ATOM     14  C   UNL     1       9.843   1.039  21.814  0.00  0.00    +0.020 C 
ATOM     15  C   UNL     1       9.812  -0.474  21.729  0.00  0.00    +0.108 C 
ATOM     16  O   UNL     1      10.154  -2.679  23.389  0.00  0.00    -0.274 OA
ENDBRANCH   1  10
BRANCH   3  17
ATOM     17  C   UNL     1       5.657  -4.945  22.462  0.00  0.00    +0.115 C 
BRANCH  17  18
ATOM     18  C   UNL     1       4.245  -5.046  23.020  0.00  0.00    +0.126 C 
BRANCH  18  19
ATOM     19  N   UNL     1       4.257  -5.117  24.479  0.00  0.00    -0.234 N 
ATOM     20  C   UNL     1       4.015  -4.057  25.313  0.00  0.00    +0.254 C 
ATOM     21  O   UNL     1       3.753  -2.905  25.023  0.00  0.00    -0.270 OA
ATOM     22  C   UNL     1       4.081  -4.573  26.685  0.00  0.00    +0.049 A 
ATOM     23  C   UNL     1       3.950  -3.936  27.905  0.00  0.00    +0.014 A 
ATOM     24  C   UNL     1       4.065  -4.724  29.059  0.00  0.00    +0.001 A 
ATOM     25  C   UNL     1       4.299  -6.112  28.968  0.00  0.00    +0.001 A 
ATOM     26  C   UNL     1       4.421  -6.734  27.722  0.00  0.00    +0.014 A 
ATOM     27  C   UNL     1       4.312  -5.934  26.598  0.00  0.00    +0.049 A 
ATOM     28  C   UNL     1       4.391  -6.281  25.182  0.00  0.00    +0.254 C 
ATOM     29  O   UNL     1       4.528  -7.419  24.769  0.00  0.00    -0.270 OA
ENDBRANCH  18  19
ENDBRANCH  17  18
ENDBRANCH   3  17
TORSDOF 4
ENDMDL
MODEL 8
REMARK VINA RESULT:      -7.3      3.544      5.766
REMARK  Name = 
REMARK  4 active torsions:
REMARK  status: ('A' for Active; 'I' for Inactive)
REMARK    1  A    between atoms: C_2  and  C_24
REMARK    2  A    between atoms: C_9  and  C_11
REMARK    3  A    between atoms: C_11  and  C_12
REMARK    4  A    between atoms: C_12  and  N_13
REMARK                            x       y       z     vdW  Elec       q    Type
REMARK                         _______ _______ _______ _____ _____    ______ ____
ROOT
ATOM      1  C   UNL     1       8.663  -2.739  24.330  0.00  0.00    +0.168 C 
ATOM      2  N   UNL     1       9.233  -1.406  24.052  0.00  0.00    -0.284 N 
ATOM      3  C   UNL     1       9.814  -1.067  22.849  0.00  0.00    +0.218 C 
ATOM      4  O   UNL     1       9.832  -1.842  21.894  0.00  0.00    -0.276 OA
ATOM      5  C   UNL     1       9.100  -0.537  25.218  0.00  0.00    +0.184 C 
ATOM      6  C   UNL     1       8.468  -1.378  26.313  0.00  0.00    +0.266 C 
ATOM      7  F   UNL     1       7.169  -1.070  26.487  0.00  0.00    -0.204 F 
ATOM      8  F   UNL     1       9.085  -1.170  27.498  0.00  0.00    -0.204 F 
ATOM      9  C   UNL     1       8.660  -2.817  25.863  0.00  0.00    +0.109 C 
ENDROOT
BRANCH   1  10
ATOM     10  C   UNL     1       7.224  -2.855  23.773  0.00  0.00    +0.236 C 
ATOM     11  N   UNL     1       6.919  -3.946  22.988  0.00  0.00    -0.300 N 
ATOM     12  C   UNL     1       7.567  -5.246  23.040  0.00  0.00    +0.108 C 
ATOM     13  C   UNL     1       6.615  -6.205  22.331  0.00  0.00    +0.020 C 
ATOM     14  C   UNL     1       5.287  -5.458  22.261  0.00  0.00    +0.020 C 
ATOM     15  C   UNL     1       5.698  -4.000  22.208  0.00  0.00    +0.108 C 
ATOM     16  O   UNL     1       6.405  -1.952  23.951  0.00  0.00    -0.274 OA
ENDBRANCH   1  10
BRANCH   3  17
ATOM     17  C   UNL     1      10.501   0.291  22.771  0.00  0.00    +0.115 C 
BRANCH  17  18
ATOM     18  C   UNL     1       9.695   1.304  21.971  0.00  0.00    +0.126 C 
BRANCH  18  19
ATOM     19  N   UNL     1       9.065   2.288  22.847  0.00  0.00    -0.234 N 
ATOM     20  C   UNL     1       7.751   2.259  23.234  0.00  0.00    +0.254 C 
ATOM     21  O   UNL     1       6.890   1.450  22.944  0.00  0.00    -0.270 OA
ATOM     22  C   UNL     1       7.550   3.396  24.139  0.00  0.00    +0.049 A 
ATOM     23  C   UNL     1       6.419   3.856  24.788  0.00  0.00    +0.014 A 
ATOM     24  C   UNL     1       6.558   4.988  25.602  0.00  0.00    +0.001 A 
ATOM     25  C   UNL     1       7.809   5.623  25.752  0.00  0.00    +0.001 A 
ATOM     26  C   UNL     1       8.940   5.136  25.091  0.00  0.00    +0.014 A 
ATOM     27  C   UNL     1       8.775   4.021  24.287  0.00  0.00    +0.049 A 
ATOM     28  C   UNL     1       9.748   3.287  23.482  0.00  0.00    +0.254 C 
ATOM     29  O   UNL     1      10.936   3.552  23.446  0.00  0.00    -0.270 OA
ENDBRANCH  18  19
ENDBRANCH  17  18
ENDBRANCH   3  17
TORSDOF 4
ENDMDL
MODEL 9
REMARK VINA RESULT:      -7.3      3.190      4.681
REMARK  Name = 
REMARK  4 active torsions:
REMARK  status: ('A' for Active; 'I' for Inactive)
REMARK    1  A    between atoms: C_2  and  C_24
REMARK    2  A    between atoms: C_9  and  C_11
REMARK    3  A    between atoms: C_11  and  C_12
REMARK    4  A    between atoms: C_12  and  N_13
REMARK                            x       y       z     vdW  Elec       q    Type
REMARK                         _______ _______ _______ _____ _____    ______ ____
ROOT
ATOM      1  C   UNL     1       7.776  -4.068  23.669  0.00  0.00    +0.168 C 
ATOM      2  N   UNL     1       8.739  -2.962  23.831  0.00  0.00    -0.284 N 
ATOM      3  C   UNL     1       8.748  -1.841  23.029  0.00  0.00    +0.218 C 
ATOM      4  O   UNL     1       7.897  -1.658  22.159  0.00  0.00    -0.276 OA
ATOM      5  C   UNL     1       9.659  -3.239  24.932  0.00  0.00    +0.184 C 
ATOM      6  C   UNL     1       9.300  -4.618  25.456  0.00  0.00    +0.266 C 
ATOM      7  F   UNL     1       8.629  -4.545  26.621  0.00  0.00    -0.204 F 
ATOM      8  F   UNL     1      10.413  -5.350  25.688  0.00  0.00    -0.204 F 
ATOM      9  C   UNL     1       8.469  -5.254  24.354  0.00  0.00    +0.109 C 
ENDROOT
BRANCH   1  10
ATOM     10  C   UNL     1       6.432  -3.741  24.366  0.00  0.00    +0.236 C 
ATOM     11  N   UNL     1       5.280  -4.278  23.834  0.00  0.00    -0.300 N 
ATOM     12  C   UNL     1       5.184  -5.504  23.061  0.00  0.00    +0.108 C 
ATOM     13  C   UNL     1       3.707  -5.892  23.091  0.00  0.00    +0.020 C 
ATOM     14  C   UNL     1       3.109  -5.062  24.222  0.00  0.00    +0.020 C 
ATOM     15  C   UNL     1       3.970  -3.814  24.246  0.00  0.00    +0.108 C 
ATOM     16  O   UNL     1       6.389  -2.952  25.311  0.00  0.00    -0.274 OA
ENDBRANCH   1  10
BRANCH   3  17
ATOM     17  C   UNL     1       9.903  -0.865  23.215  0.00  0.00    +0.115 C 
BRANCH  17  18
ATOM     18  C   UNL     1       9.994   0.148  22.084  0.00  0.00    +0.126 C 
BRANCH  18  19
ATOM     19  N   UNL     1       9.487   1.453  22.501  0.00  0.00    -0.234 N 
ATOM     20  C   UNL     1      10.123   2.291  23.380  0.00  0.00    +0.254 C 
ATOM     21  O   UNL     1      11.180   2.128  23.958  0.00  0.00    -0.270 OA
ATOM     22  C   UNL     1       9.299   3.501  23.482  0.00  0.00    +0.049 A 
ATOM     23  C   UNL     1       9.449   4.644  24.246  0.00  0.00    +0.014 A 
ATOM     24  C   UNL     1       8.474   5.641  24.113  0.00  0.00    +0.001 A 
ATOM     25  C   UNL     1       7.388   5.478  23.227  0.00  0.00    +0.001 A 
ATOM     26  C   UNL     1       7.261   4.316  22.460  0.00  0.00    +0.014 A 
ATOM     27  C   UNL     1       8.233   3.344  22.615  0.00  0.00    +0.049 A 
ATOM     28  C   UNL     1       8.378   2.043  21.966  0.00  0.00    +0.254 C 
ATOM     29  O   UNL     1       7.627   1.631  21.100  0.00  0.00    -0.270 OA
ENDBRANCH  18  19
ENDBRANCH  17  18
ENDBRANCH   3  17
TORSDOF 4
ENDMDL
