MODEL 1
REMARK VINA RESULT:      -4.2      0.000      0.000
REMARK  Name = 
REMARK  9 active torsions:
REMARK  status: ('A' for Active; 'I' for Inactive)
REMARK    1  A    between atoms: C_1  and  N_2
REMARK    2  A    between atoms: N_2  and  C_3
REMARK    3  A    between atoms: N_2  and  C_4
REMARK    4  A    between atoms: N_2  and  C_5
REMARK    5  A    between atoms: C_5  and  C_6
REMARK    6  A    between atoms: C_6  and  O_8
REMARK    7  A    between atoms: C_6  and  C_9
REMARK    8  A    between atoms: C_9  and  C_10
REMARK    9  A    between atoms: C_10  and  O_11
REMARK                            x       y       z     vdW  Elec       q    Type
REMARK                         _______ _______ _______ _____ _____    ______ ____
ROOT
ATOM      1  C   UNL     1       9.550  -1.147  22.607  0.00  0.00    +0.170 C 
ENDROOT
BRANCH   1   2
ATOM      2  O   UNL     1       9.987  -1.562  21.304  0.00  0.00    -0.386 OA
ATOM      3  H   UNL     1       9.577  -0.980  20.634  0.00  0.00    +0.210 HD
ENDBRANCH   1   2
BRANCH   1   4
ATOM      4  C   UNL     1      10.054  -2.181  23.655  0.00  0.00    +0.164 C 
BRANCH   4   6
ATOM      5  C   UNL     1       9.410  -4.283  24.966  0.00  0.00    +0.192 C 
ATOM      6  N   UNL     1       8.923  -2.941  24.425  0.00  0.00    +0.239 N 
ATOM      7  C   UNL     1       8.507  -2.072  25.616  0.00  0.00    +0.192 C 
ATOM      8  C   UNL     1       7.701  -3.163  23.549  0.00  0.00    +0.192 C 
ENDBRANCH   4   6
ENDBRANCH   1   4
BRANCH   1   9
ATOM      9  C   UNL     1      10.080   0.273  22.841  0.00  0.00    +0.157 C 
BRANCH   9  10
ATOM     10  C   UNL     1       9.582   1.263  21.830  0.00  0.00    +0.307 C 
ATOM     11  O   UNL     1       8.547   1.172  21.189  0.00  0.00    -0.251 OA
BRANCH  10  12
ATOM     12  O   UNL     1      10.408   2.311  21.701  0.00  0.00    -0.481 OA
ATOM     13  H   UNL     1      10.996   2.129  20.936  0.00  0.00    +0.295 HD
ENDBRANCH  10  12
ENDBRANCH   9  10
ENDBRANCH   1   9
TORSDOF 6
ENDMDL
MODEL 2
REMARK VINA RESULT:      -4.1      3.509      5.352
REMARK  Name = 
REMARK  9 active torsions:
REMARK  status: ('A' for Active; 'I' for Inactive)
REMARK    1  A    between atoms: C_1  and  N_2
REMARK    2  A    between atoms: N_2  and  C_3
REMARK    3  A    between atoms: N_2  and  C_4
REMARK    4  A    between atoms: N_2  and  C_5
REMARK    5  A    between atoms: C_5  and  C_6
REMARK    6  A    between atoms: C_6  and  O_8
REMARK    7  A    between atoms: C_6  and  C_9
REMARK    8  A    between atoms: C_9  and  C_10
REMARK    9  A    between atoms: C_10  and  O_11
REMARK                            x       y       z     vdW  Elec       q    Type
REMARK                         _______ _______ _______ _____ _____    ______ ____
ROOT
ATOM      1  C   UNL     1       7.506  -4.249  22.677  0.00  0.00    +0.170 C 
ENDROOT
BRANCH   1   2
ATOM      2  O   UNL     1       6.574  -3.371  22.026  0.00  0.00    -0.386 OA
ATOM      3  H   UNL     1       6.214  -2.748  22.686  0.00  0.00    +0.210 HD
ENDBRANCH   1   2
BRANCH   1   4
ATOM      4  C   UNL     1       7.332  -4.107  24.217  0.00  0.00    +0.164 C 
BRANCH   4   6
ATOM      5  C   UNL     1       9.405  -5.153  25.294  0.00  0.00    +0.192 C 
ATOM      6  N   UNL     1       8.659  -3.852  25.008  0.00  0.00    +0.239 N 
ATOM      7  C   UNL     1       9.557  -2.970  24.136  0.00  0.00    +0.192 C 
ATOM      8  C   UNL     1       8.400  -3.121  26.315  0.00  0.00    +0.192 C 
ENDBRANCH   4   6
ENDBRANCH   1   4
BRANCH   1   9
ATOM      9  C   UNL     1       7.245  -5.668  22.157  0.00  0.00    +0.157 C 
BRANCH   9  10
ATOM     10  C   UNL     1       6.024  -5.764  21.291  0.00  0.00    +0.307 C 
ATOM     11  O   UNL     1       5.995  -5.629  20.078  0.00  0.00    -0.251 OA
BRANCH  10  12
ATOM     12  O   UNL     1       4.921  -6.038  22.003  0.00  0.00    -0.481 OA
ATOM     13  H   UNL     1       4.183  -6.156  21.366  0.00  0.00    +0.295 HD
ENDBRANCH  10  12
ENDBRANCH   9  10
ENDBRANCH   1   9
TORSDOF 6
ENDMDL
MODEL 3
REMARK VINA RESULT:      -4.1      0.732      1.776
REMARK  Name = 
REMARK  9 active torsions:
REMARK  status: ('A' for Active; 'I' for Inactive)
REMARK    1  A    between atoms: C_1  and  N_2
REMARK    2  A    between atoms: N_2  and  C_3
REMARK    3  A    between atoms: N_2  and  C_4
REMARK    4  A    between atoms: N_2  and  C_5
REMARK    5  A    between atoms: C_5  and  C_6
REMARK    6  A    between atoms: C_6  and  O_8
REMARK    7  A    between atoms: C_6  and  C_9
REMARK    8  A    between atoms: C_9  and  C_10
REMARK    9  A    between atoms: C_10  and  O_11
REMARK                            x       y       z     vdW  Elec       q    Type
REMARK                         _______ _______ _______ _____ _____    ______ ____
ROOT
ATOM      1  C   UNL     1       9.159  -1.681  22.396  0.00  0.00    +0.170 C 
ENDROOT
BRANCH   1   2
ATOM      2  O   UNL     1      10.211  -1.540  21.428  0.00  0.00    -0.386 OA
ATOM      3  H   UNL     1       9.815  -1.332  20.560  0.00  0.00    +0.210 HD
ENDBRANCH   1   2
BRANCH   1   4
ATOM      4  C   UNL     1       9.747  -2.328  23.683  0.00  0.00    +0.164 C 
BRANCH   4   6
ATOM      5  C   UNL     1       7.948  -2.643  25.476  0.00  0.00    +0.192 C 
ATOM      6  N   UNL     1       8.791  -3.335  24.407  0.00  0.00    +0.239 N 
ATOM      7  C   UNL     1       7.842  -3.914  23.355  0.00  0.00    +0.192 C 
ATOM      8  C   UNL     1       9.561  -4.484  25.037  0.00  0.00    +0.192 C 
ENDBRANCH   4   6
ENDBRANCH   1   4
BRANCH   1   9
ATOM      9  C   UNL     1       8.557  -0.289  22.628  0.00  0.00    +0.157 C 
BRANCH   9  10
ATOM     10  C   UNL     1       9.342   0.810  21.975  0.00  0.00    +0.307 C 
ATOM     11  O   UNL     1      10.364   1.316  22.411  0.00  0.00    -0.251 OA
BRANCH  10  12
ATOM     12  O   UNL     1       8.801   1.192  20.809  0.00  0.00    -0.481 OA
ATOM     13  H   UNL     1       9.249   2.022  20.536  0.00  0.00    +0.295 HD
ENDBRANCH  10  12
ENDBRANCH   9  10
ENDBRANCH   1   9
TORSDOF 6
ENDMDL
MODEL 4
REMARK VINA RESULT:      -4.0      2.070      3.348
REMARK  Name = 
REMARK  9 active torsions:
REMARK  status: ('A' for Active; 'I' for Inactive)
REMARK    1  A    between atoms: C_1  and  N_2
REMARK    2  A    between atoms: N_2  and  C_3
REMARK    3  A    between atoms: N_2  and  C_4
REMARK    4  A    between atoms: N_2  and  C_5
REMARK    5  A    between atoms: C_5  and  C_6
REMARK    6  A    between atoms: C_6  and  O_8
REMARK    7  A    between atoms: C_6  and  C_9
REMARK    8  A    between atoms: C_9  and  C_10
REMARK    9  A    between atoms: C_10  and  O_11
REMARK                            x       y       z     vdW  Elec       q    Type
REMARK                         _______ _______ _______ _____ _____    ______ ____
ROOT
ATOM      1  C   UNL     1       9.726   1.573  22.682  0.00  0.00    +0.170 C 
ENDROOT
BRANCH   1   2
ATOM      2  O   UNL     1      10.062   2.213  21.441  0.00  0.00    -0.386 OA
ATOM      3  H   UNL     1      10.143   1.531  20.747  0.00  0.00    +0.210 HD
ENDBRANCH   1   2
BRANCH   1   4
ATOM      4  C   UNL     1      10.017   0.050  22.553  0.00  0.00    +0.164 C 
BRANCH   4   6
ATOM      5  C   UNL     1       7.588  -0.145  23.336  0.00  0.00    +0.192 C 
ATOM      6  N   UNL     1       8.911  -0.884  23.150  0.00  0.00    +0.239 N 
ATOM      7  C   UNL     1       8.681  -2.027  22.158  0.00  0.00    +0.192 C 
ATOM      8  C   UNL     1       9.343  -1.485  24.477  0.00  0.00    +0.192 C 
ENDBRANCH   4   6
ENDBRANCH   1   4
BRANCH   1   9
ATOM      9  C   UNL     1      10.532   2.261  23.790  0.00  0.00    +0.157 C 
BRANCH   9  10
ATOM     10  C   UNL     1      10.904   3.676  23.457  0.00  0.00    +0.307 C 
ATOM     11  O   UNL     1      12.038   4.100  23.302  0.00  0.00    -0.251 OA
BRANCH  10  12
ATOM     12  O   UNL     1       9.827   4.463  23.325  0.00  0.00    -0.481 OA
ATOM     13  H   UNL     1       9.537   4.408  22.388  0.00  0.00    +0.295 HD
ENDBRANCH  10  12
ENDBRANCH   9  10
ENDBRANCH   1   9
TORSDOF 6
ENDMDL
MODEL 5
REMARK VINA RESULT:      -4.0      3.453      5.427
REMARK  Name = 
REMARK  9 active torsions:
REMARK  status: ('A' for Active; 'I' for Inactive)
REMARK    1  A    between atoms: C_1  and  N_2
REMARK    2  A    between atoms: N_2  and  C_3
REMARK    3  A    between atoms: N_2  and  C_4
REMARK    4  A    between atoms: N_2  and  C_5
REMARK    5  A    between atoms: C_5  and  C_6
REMARK    6  A    between atoms: C_6  and  O_8
REMARK    7  A    between atoms: C_6  and  C_9
REMARK    8  A    between atoms: C_9  and  C_10
REMARK    9  A    between atoms: C_10  and  O_11
REMARK                            x       y       z     vdW  Elec       q    Type
REMARK                         _______ _______ _______ _____ _____    ______ ____
ROOT
ATOM      1  C   UNL     1       8.559  -3.043  24.641  0.00  0.00    +0.170 C 
ENDROOT
BRANCH   1   2
ATOM      2  O   UNL     1       8.741  -2.850  26.053  0.00  0.00    -0.386 OA
ATOM      3  H   UNL     1       9.657  -2.552  26.215  0.00  0.00    +0.210 HD
ENDBRANCH   1   2
BRANCH   1   4
ATOM      4  C   UNL     1       9.749  -2.378  23.890  0.00  0.00    +0.164 C 
BRANCH   4   6
ATOM      5  C   UNL     1       8.025  -0.510  23.588  0.00  0.00    +0.192 C 
ATOM      6  N   UNL     1       9.491  -0.905  23.426  0.00  0.00    +0.239 N 
ATOM      7  C   UNL     1      10.332   0.016  24.315  0.00  0.00    +0.192 C 
ATOM      8  C   UNL     1       9.916  -0.689  21.983  0.00  0.00    +0.192 C 
ENDBRANCH   4   6
ENDBRANCH   1   4
BRANCH   1   9
ATOM      9  C   UNL     1       8.443  -4.552  24.393  0.00  0.00    +0.157 C 
BRANCH   9  10
ATOM     10  C   UNL     1       8.761  -5.376  25.605  0.00  0.00    +0.307 C 
ATOM     11  O   UNL     1       7.954  -5.789  26.422  0.00  0.00    -0.251 OA
BRANCH  10  12
ATOM     12  O   UNL     1      10.072  -5.642  25.705  0.00  0.00    -0.481 OA
ATOM     13  H   UNL     1      10.444  -5.625  24.796  0.00  0.00    +0.295 HD
ENDBRANCH  10  12
ENDBRANCH   9  10
ENDBRANCH   1   9
TORSDOF 6
ENDMDL
MODEL 6
REMARK VINA RESULT:      -4.0      3.958      5.745
REMARK  Name = 
REMARK  9 active torsions:
REMARK  status: ('A' for Active; 'I' for Inactive)
REMARK    1  A    between atoms: C_1  and  N_2
REMARK    2  A    between atoms: N_2  and  C_3
REMARK    3  A    between atoms: N_2  and  C_4
REMARK    4  A    between atoms: N_2  and  C_5
REMARK    5  A    between atoms: C_5  and  C_6
REMARK    6  A    between atoms: C_6  and  O_8
REMARK    7  A    between atoms: C_6  and  C_9
REMARK    8  A    between atoms: C_9  and  C_10
REMARK    9  A    between atoms: C_10  and  O_11
REMARK                            x       y       z     vdW  Elec       q    Type
REMARK                         _______ _______ _______ _____ _____    ______ ____
ROOT
ATOM      1  C   UNL     1       8.465  -4.377  24.610  0.00  0.00    +0.170 C 
ENDROOT
BRANCH   1   2
ATOM      2  O   UNL     1       9.151  -5.555  24.160  0.00  0.00    -0.386 OA
ATOM      3  H   UNL     1       9.962  -5.669  24.692  0.00  0.00    +0.210 HD
ENDBRANCH   1   2
BRANCH   1   4
ATOM      4  C   UNL     1       7.906  -3.620  23.371  0.00  0.00    +0.164 C 
BRANCH   4   6
ATOM      5  C   UNL     1       7.040  -1.216  23.509  0.00  0.00    +0.192 C 
ATOM      6  N   UNL     1       8.270  -2.098  23.311  0.00  0.00    +0.239 N 
ATOM      7  C   UNL     1       9.250  -1.810  24.451  0.00  0.00    +0.192 C 
ATOM      8  C   UNL     1       8.946  -1.735  21.999  0.00  0.00    +0.192 C 
ENDBRANCH   4   6
ENDBRANCH   1   4
BRANCH   1   9
ATOM      9  C   UNL     1       7.380  -4.824  25.598  0.00  0.00    +0.157 C 
BRANCH   9  10
ATOM     10  C   UNL     1       7.929  -5.236  26.931  0.00  0.00    +0.307 C 
ATOM     11  O   UNL     1       7.316  -5.827  27.806  0.00  0.00    -0.251 OA
BRANCH  10  12
ATOM     12  O   UNL     1       9.218  -4.894  27.074  0.00  0.00    -0.481 OA
ATOM     13  H   UNL     1       9.418  -4.217  26.392  0.00  0.00    +0.295 HD
ENDBRANCH  10  12
ENDBRANCH   9  10
ENDBRANCH   1   9
TORSDOF 6
ENDMDL
MODEL 7
REMARK VINA RESULT:      -3.9      5.861      7.796
REMARK  Name = 
REMARK  9 active torsions:
REMARK  status: ('A' for Active; 'I' for Inactive)
REMARK    1  A    between atoms: C_1  and  N_2
REMARK    2  A    between atoms: N_2  and  C_3
REMARK    3  A    between atoms: N_2  and  C_4
REMARK    4  A    between atoms: N_2  and  C_5
REMARK    5  A    between atoms: C_5  and  C_6
REMARK    6  A    between atoms: C_6  and  O_8
REMARK    7  A    between atoms: C_6  and  C_9
REMARK    8  A    between atoms: C_9  and  C_10
REMARK    9  A    between atoms: C_10  and  O_11
REMARK                            x       y       z     vdW  Elec       q    Type
REMARK                         _______ _______ _______ _____ _____    ______ ____
ROOT
ATOM      1  C   UNL     1       6.899  -5.052  27.116  0.00  0.00    +0.170 C 
ENDROOT
BRANCH   1   2
ATOM      2  O   UNL     1       7.958  -5.927  27.532  0.00  0.00    -0.386 OA
ATOM      3  H   UNL     1       8.546  -5.442  28.143  0.00  0.00    +0.210 HD
ENDBRANCH   1   2
BRANCH   1   4
ATOM      4  C   UNL     1       6.532  -5.379  25.639  0.00  0.00    +0.164 C 
BRANCH   4   6
ATOM      5  C   UNL     1       7.637  -4.800  23.405  0.00  0.00    +0.192 C 
ATOM      6  N   UNL     1       6.879  -4.251  24.611  0.00  0.00    +0.239 N 
ATOM      7  C   UNL     1       5.560  -3.654  24.112  0.00  0.00    +0.192 C 
ATOM      8  C   UNL     1       7.691  -3.138  25.253  0.00  0.00    +0.192 C 
ENDBRANCH   4   6
ENDBRANCH   1   4
BRANCH   1   9
ATOM      9  C   UNL     1       5.733  -5.240  28.095  0.00  0.00    +0.157 C 
BRANCH   9  10
ATOM     10  C   UNL     1       5.942  -6.378  29.050  0.00  0.00    +0.307 C 
ATOM     11  O   UNL     1       6.401  -6.290  30.178  0.00  0.00    -0.251 OA
BRANCH  10  12
ATOM     12  O   UNL     1       5.548  -7.550  28.532  0.00  0.00    -0.481 OA
ATOM     13  H   UNL     1       6.341  -7.983  28.148  0.00  0.00    +0.295 HD
ENDBRANCH  10  12
ENDBRANCH   9  10
ENDBRANCH   1   9
TORSDOF 6
ENDMDL
MODEL 8
REMARK VINA RESULT:      -3.9      1.846      2.720
REMARK  Name = 
REMARK  9 active torsions:
REMARK  status: ('A' for Active; 'I' for Inactive)
REMARK    1  A    between atoms: C_1  and  N_2
REMARK    2  A    between atoms: N_2  and  C_3
REMARK    3  A    between atoms: N_2  and  C_4
REMARK    4  A    between atoms: N_2  and  C_5
REMARK    5  A    between atoms: C_5  and  C_6
REMARK    6  A    between atoms: C_6  and  O_8
REMARK    7  A    between atoms: C_6  and  C_9
REMARK    8  A    between atoms: C_9  and  C_10
REMARK    9  A    between atoms: C_10  and  O_11
REMARK                            x       y       z     vdW  Elec       q    Type
REMARK                         _______ _______ _______ _____ _____    ______ ____
ROOT
ATOM      1  C   UNL     1       9.941   0.285  24.229  0.00  0.00    +0.170 C 
ENDROOT
BRANCH   1   2
ATOM      2  O   UNL     1      10.563   0.649  25.471  0.00  0.00    -0.386 OA
ATOM      3  H   UNL     1      10.293   1.559  25.703  0.00  0.00    +0.210 HD
ENDBRANCH   1   2
BRANCH   1   4
ATOM      4  C   UNL     1       8.927  -0.865  24.496  0.00  0.00    +0.164 C 
BRANCH   4   6
ATOM      5  C   UNL     1       7.855  -2.330  22.693  0.00  0.00    +0.192 C 
ATOM      6  N   UNL     1       9.089  -2.113  23.565  0.00  0.00    +0.239 N 
ATOM      7  C   UNL     1      10.283  -1.853  22.643  0.00  0.00    +0.192 C 
ATOM      8  C   UNL     1       9.370  -3.375  24.364  0.00  0.00    +0.192 C 
ENDBRANCH   4   6
ENDBRANCH   1   4
BRANCH   1   9
ATOM      9  C   UNL     1       9.297   1.550  23.648  0.00  0.00    +0.157 C 
BRANCH   9  10
ATOM     10  C   UNL     1      10.278   2.444  22.950  0.00  0.00    +0.307 C 
ATOM     11  O   UNL     1      11.093   3.173  23.492  0.00  0.00    -0.251 OA
BRANCH  10  12
ATOM     12  O   UNL     1      10.182   2.354  21.615  0.00  0.00    -0.481 OA
ATOM     13  H   UNL     1      11.065   2.568  21.243  0.00  0.00    +0.295 HD
ENDBRANCH  10  12
ENDBRANCH   9  10
ENDBRANCH   1   9
TORSDOF 6
ENDMDL
MODEL 9
REMARK VINA RESULT:      -3.9      1.535      2.041
REMARK  Name = 
REMARK  9 active torsions:
REMARK  status: ('A' for Active; 'I' for Inactive)
REMARK    1  A    between atoms: C_1  and  N_2
REMARK    2  A    between atoms: N_2  and  C_3
REMARK    3  A    between atoms: N_2  and  C_4
REMARK    4  A    between atoms: N_2  and  C_5
REMARK    5  A    between atoms: C_5  and  C_6
REMARK    6  A    between atoms: C_6  and  O_8
REMARK    7  A    between atoms: C_6  and  C_9
REMARK    8  A    between atoms: C_9  and  C_10
REMARK    9  A    between atoms: C_10  and  O_11
REMARK                            x       y       z     vdW  Elec       q    Type
REMARK                         _______ _______ _______ _____ _____    ______ ____
ROOT
ATOM      1  C   UNL     1       9.241  -0.455  23.260  0.00  0.00    +0.170 C 
ENDROOT
BRANCH   1   2
ATOM      2  O   UNL     1       9.228   0.728  24.073  0.00  0.00    -0.386 OA
ATOM      3  H   UNL     1       8.328   1.109  24.060  0.00  0.00    +0.210 HD
ENDBRANCH   1   2
BRANCH   1   4
ATOM      4  C   UNL     1       7.902  -1.220  23.469  0.00  0.00    +0.164 C 
BRANCH   4   6
ATOM      5  C   UNL     1       7.167  -3.116  25.023  0.00  0.00    +0.192 C 
ATOM      6  N   UNL     1       8.061  -2.731  23.848  0.00  0.00    +0.239 N 
ATOM      7  C   UNL     1       7.635  -3.562  22.634  0.00  0.00    +0.192 C 
ATOM      8  C   UNL     1       9.504  -3.077  24.177  0.00  0.00    +0.192 C 
ENDBRANCH   4   6
ENDBRANCH   1   4
BRANCH   1   9
ATOM      9  C   UNL     1       9.477  -0.015  21.809  0.00  0.00    +0.157 C 
BRANCH   9  10
ATOM     10  C   UNL     1       9.121   1.421  21.563  0.00  0.00    +0.307 C 
ATOM     11  O   UNL     1       7.996   1.859  21.383  0.00  0.00    -0.251 OA
BRANCH  10  12
ATOM     12  O   UNL     1      10.201   2.217  21.575  0.00  0.00    -0.481 OA
ATOM     13  H   UNL     1      10.303   2.585  20.670  0.00  0.00    +0.295 HD
ENDBRANCH  10  12
ENDBRANCH   9  10
ENDBRANCH   1   9
TORSDOF 6
ENDMDL
