MODEL 1
REMARK VINA RESULT:      -7.2      0.000      0.000
REMARK  Name = 
REMARK  7 active torsions:
REMARK  status: ('A' for Active; 'I' for Inactive)
REMARK    1  A    between atoms: CA_6  and  C_25
REMARK    2  A    between atoms: CA_10  and  N_12
REMARK    3  A    between atoms: C_13  and  C_15
REMARK    4  A    between atoms: C_15  and  C_19
REMARK    5  A    between atoms: N_16  and  O_17
REMARK    6  A    between atoms: O_17  and  C_18
REMARK    7  A    between atoms: C_25  and  O_26
REMARK                            x       y       z     vdW  Elec       q    Type
REMARK                         _______ _______ _______ _____ _____    ______ ____
ROOT
ATOM      1  N   UNK A   2       9.019  -3.001  23.598  0.00  0.00    -0.296 N 
ATOM      2  H   ACE A   1      10.018  -2.905  23.449  0.00  0.00    +0.150 HD
ATOM      3  C   UNK A   0       8.821  -4.068  24.487  0.00  0.00    +0.268 C 
ATOM      4  O   UNK A   0       9.832  -4.670  24.874  0.00  0.00    -0.268 OA
ENDROOT
BRANCH   1   6
ATOM      5  C   UNK A   2       7.404  -0.644  23.576  0.00  0.00    +0.169 C 
ATOM      6  C   UNK A   2       8.123  -1.941  22.987  0.00  0.00    +0.191 C 
ATOM      7  C   UNK A   2       8.964  -0.870  22.242  0.00  0.00    +0.244 C 
ATOM      8  O   UNK A   2       9.829  -0.847  21.386  0.00  0.00    -0.273 OA
ATOM      9  N   UNK A   2       8.581   0.055  23.141  0.00  0.00    -0.249 N 
ATOM     10  C   UNK A   2       8.984   1.286  23.542  0.00  0.00    +0.119 C 
ATOM     11  C   UNK A   2       8.566   1.791  24.714  0.00  0.00    +0.014 C 
ATOM     12  C   UNK A   2       7.664   1.163  25.720  0.00  0.00    +0.100 C 
ATOM     13  S   UNK A   2       6.791  -0.349  25.216  0.00  0.00    -0.131 S 
BRANCH  10  14
ATOM     14  C   UNK A   2      10.020   2.104  22.813  0.00  0.00    +0.351 C 
ATOM     15  O   UNK A   2      10.943   2.666  23.388  0.00  0.00    -0.244 OA
BRANCH  14  16
ATOM     16  O   UNK A   2       9.872   2.233  21.485  0.00  0.00    -0.476 OA
ATOM     17  H   UNK A   2      10.358   1.623  20.891  0.00  0.00    +0.295 HD
ENDBRANCH  14  16
ENDBRANCH  10  14
ENDBRANCH   1   6
BRANCH   3  18
ATOM     18  C   UNK A   0       7.460  -4.639  24.856  0.00  0.00    +0.190 C 
ATOM     19  N   UNK A   0       6.653  -5.306  24.073  0.00  0.00    -0.078 NA
BRANCH  18  20
ATOM     20  C   UNK A   0       7.006  -4.737  26.257  0.00  0.00    +0.107 A 
ATOM     21  N   UNK A   0       7.163  -5.928  26.957  0.00  0.00    -0.223 NA
ATOM     22  C   UNK A   0       6.290  -6.011  27.932  0.00  0.00    +0.156 A 
ATOM     23  N   UNK A   0       6.068  -7.141  28.610  0.00  0.00    -0.338 N 
ATOM     24  H   UNK A   0       6.722  -7.899  28.456  0.00  0.00    +0.144 HD
ATOM     25  H   UNK A   0       5.636  -7.109  29.524  0.00  0.00    +0.144 HD
ATOM     26  S   UNK A   0       5.411  -4.573  28.250  0.00  0.00    -0.060 S 
ATOM     27  C   UNK A   0       6.135  -3.843  26.870  0.00  0.00    +0.078 A 
ENDBRANCH  18  20
BRANCH  19  28
ATOM     28  O   UNK A   0       6.982  -5.788  22.803  0.00  0.00    -0.396 OA
ATOM     29  C   UNK A   0       6.305  -5.307  21.665  0.00  0.00    +0.313 C 
ENDBRANCH  19  28
ENDBRANCH   3  18
TORSDOF 6
ENDMDL
MODEL 2
REMARK VINA RESULT:      -6.8      2.639      3.219
REMARK  Name = 
REMARK  7 active torsions:
REMARK  status: ('A' for Active; 'I' for Inactive)
REMARK    1  A    between atoms: CA_6  and  C_25
REMARK    2  A    between atoms: CA_10  and  N_12
REMARK    3  A    between atoms: C_13  and  C_15
REMARK    4  A    between atoms: C_15  and  C_19
REMARK    5  A    between atoms: N_16  and  O_17
REMARK    6  A    between atoms: O_17  and  C_18
REMARK    7  A    between atoms: C_25  and  O_26
REMARK                            x       y       z     vdW  Elec       q    Type
REMARK                         _______ _______ _______ _____ _____    ______ ____
ROOT
ATOM      1  N   UNK A   2       6.089  -1.762  22.928  0.00  0.00    -0.296 N 
ATOM      2  H   ACE A   1       6.035  -1.190  22.091  0.00  0.00    +0.150 HD
ATOM      3  C   UNK A   0       5.752  -3.075  22.569  0.00  0.00    +0.268 C 
ATOM      4  O   UNK A   0       5.444  -3.272  21.386  0.00  0.00    -0.268 OA
ENDROOT
BRANCH   1   6
ATOM      5  C   UNK A   2       8.092  -0.634  24.626  0.00  0.00    +0.169 C 
ATOM      6  C   UNK A   2       6.634  -1.104  24.181  0.00  0.00    +0.191 C 
ATOM      7  C   UNK A   2       6.386   0.428  24.153  0.00  0.00    +0.244 C 
ATOM      8  O   UNK A   2       5.443   1.179  23.986  0.00  0.00    -0.273 OA
ATOM      9  N   UNK A   2       7.713   0.640  24.083  0.00  0.00    -0.249 N 
ATOM     10  C   UNK A   2       8.545   1.655  23.746  0.00  0.00    +0.119 C 
ATOM     11  C   UNK A   2       9.836   1.413  23.468  0.00  0.00    +0.014 C 
ATOM     12  C   UNK A   2      10.550   0.105  23.467  0.00  0.00    +0.100 C 
ATOM     13  S   UNK A   2       9.672  -1.315  24.184  0.00  0.00    -0.131 S 
BRANCH  10  14
ATOM     14  C   UNK A   2       8.084   3.071  23.511  0.00  0.00    +0.351 C 
ATOM     15  O   UNK A   2       7.567   3.752  24.386  0.00  0.00    -0.244 OA
BRANCH  14  16
ATOM     16  O   UNK A   2       8.224   3.560  22.268  0.00  0.00    -0.476 OA
ATOM     17  H   UNK A   2       8.802   4.340  22.127  0.00  0.00    +0.295 HD
ENDBRANCH  14  16
ENDBRANCH  10  14
ENDBRANCH   1   6
BRANCH   3  18
ATOM     18  C   UNK A   0       5.567  -4.217  23.558  0.00  0.00    +0.190 C 
ATOM     19  N   UNK A   0       4.472  -4.899  23.768  0.00  0.00    -0.078 NA
BRANCH  18  20
ATOM     20  C   UNK A   0       6.712  -4.875  24.216  0.00  0.00    +0.107 A 
ATOM     21  N   UNK A   0       6.553  -5.459  25.469  0.00  0.00    -0.223 NA
ATOM     22  C   UNK A   0       7.700  -5.519  26.100  0.00  0.00    +0.156 A 
ATOM     23  N   UNK A   0       7.795  -5.818  27.400  0.00  0.00    -0.338 N 
ATOM     24  H   UNK A   0       6.955  -6.163  27.849  0.00  0.00    +0.144 HD
ATOM     25  H   UNK A   0       8.670  -6.153  27.781  0.00  0.00    +0.144 HD
ATOM     26  S   UNK A   0       9.078  -5.141  25.152  0.00  0.00    -0.060 S 
ATOM     27  C   UNK A   0       8.042  -4.700  23.851  0.00  0.00    +0.078 A 
ENDBRANCH  18  20
BRANCH  19  28
ATOM     28  O   UNK A   0       3.320  -4.834  22.979  0.00  0.00    -0.396 OA
ATOM     29  C   UNK A   0       2.323  -5.823  23.097  0.00  0.00    +0.313 C 
ENDBRANCH  19  28
ENDBRANCH   3  18
TORSDOF 6
ENDMDL
MODEL 3
REMARK VINA RESULT:      -6.7      2.063      3.166
REMARK  Name = 
REMARK  7 active torsions:
REMARK  status: ('A' for Active; 'I' for Inactive)
REMARK    1  A    between atoms: CA_6  and  C_25
REMARK    2  A    between atoms: CA_10  and  N_12
REMARK    3  A    between atoms: C_13  and  C_15
REMARK    4  A    between atoms: C_15  and  C_19
REMARK    5  A    between atoms: N_16  and  O_17
REMARK    6  A    between atoms: O_17  and  C_18
REMARK    7  A    between atoms: C_25  and  O_26
REMARK                            x       y       z     vdW  Elec       q    Type
REMARK                         _______ _______ _______ _____ _____    ______ ____
ROOT
ATOM      1  N   UNK A   2       8.501  -2.633  25.340  0.00  0.00    -0.296 N 
ATOM      2  H   ACE A   1       9.329  -2.141  25.662  0.00  0.00    +0.150 HD
ATOM      3  C   UNK A   0       8.522  -3.918  25.903  0.00  0.00    +0.268 C 
ATOM      4  O   UNK A   0       9.496  -4.202  26.614  0.00  0.00    -0.268 OA
ENDROOT
BRANCH   1   6
ATOM      5  C   UNK A   2       6.998  -0.318  24.601  0.00  0.00    +0.169 C 
ATOM      6  C   UNK A   2       7.489  -1.835  24.541  0.00  0.00    +0.191 C 
ATOM      7  C   UNK A   2       8.101  -1.355  23.197  0.00  0.00    +0.244 C 
ATOM      8  O   UNK A   2       8.683  -1.851  22.250  0.00  0.00    -0.273 OA
ATOM      9  N   UNK A   2       8.013  -0.078  23.615  0.00  0.00    -0.249 N 
ATOM     10  C   UNK A   2       8.541   1.123  23.273  0.00  0.00    +0.119 C 
ATOM     11  C   UNK A   2       8.489   2.157  24.128  0.00  0.00    +0.014 C 
ATOM     12  C   UNK A   2       7.903   2.193  25.497  0.00  0.00    +0.100 C 
ATOM     13  S   UNK A   2       6.891   0.771  26.000  0.00  0.00    -0.131 S 
BRANCH  10  14
ATOM     14  C   UNK A   2       9.339   1.357  22.015  0.00  0.00    +0.351 C 
ATOM     15  O   UNK A   2      10.406   1.957  22.011  0.00  0.00    -0.244 OA
BRANCH  14  16
ATOM     16  O   UNK A   2       8.810   0.911  20.864  0.00  0.00    -0.476 OA
ATOM     17  H   UNK A   2       7.885   0.585  20.862  0.00  0.00    +0.295 HD
ENDBRANCH  14  16
ENDBRANCH  10  14
ENDBRANCH   1   6
BRANCH   3  18
ATOM     18  C   UNK A   0       7.539  -5.026  25.555  0.00  0.00    +0.190 C 
ATOM     19  N   UNK A   0       6.988  -5.871  26.387  0.00  0.00    -0.078 NA
BRANCH  18  20
ATOM     20  C   UNK A   0       6.875  -5.099  24.240  0.00  0.00    +0.107 A 
ATOM     21  N   UNK A   0       5.505  -5.322  24.164  0.00  0.00    -0.223 NA
ATOM     22  C   UNK A   0       5.186  -5.856  23.010  0.00  0.00    +0.156 A 
ATOM     23  N   UNK A   0       3.981  -6.382  22.764  0.00  0.00    -0.338 N 
ATOM     24  H   UNK A   0       3.260  -6.202  23.452  0.00  0.00    +0.144 HD
ATOM     25  H   UNK A   0       3.665  -6.502  21.811  0.00  0.00    +0.144 HD
ATOM     26  S   UNK A   0       6.442  -5.878  21.842  0.00  0.00    -0.060 S 
ATOM     27  C   UNK A   0       7.536  -5.284  23.030  0.00  0.00    +0.078 A 
ENDBRANCH  18  20
BRANCH  19  28
ATOM     28  O   UNK A   0       7.049  -5.783  27.780  0.00  0.00    -0.396 OA
ATOM     29  C   UNK A   0       5.931  -5.338  28.513  0.00  0.00    +0.313 C 
ENDBRANCH  19  28
ENDBRANCH   3  18
TORSDOF 6
ENDMDL
MODEL 4
REMARK VINA RESULT:      -6.6      3.187      7.103
REMARK  Name = 
REMARK  7 active torsions:
REMARK  status: ('A' for Active; 'I' for Inactive)
REMARK    1  A    between atoms: CA_6  and  C_25
REMARK    2  A    between atoms: CA_10  and  N_12
REMARK    3  A    between atoms: C_13  and  C_15
REMARK    4  A    between atoms: C_15  and  C_19
REMARK    5  A    between atoms: N_16  and  O_17
REMARK    6  A    between atoms: O_17  and  C_18
REMARK    7  A    between atoms: C_25  and  O_26
REMARK                            x       y       z     vdW  Elec       q    Type
REMARK                         _______ _______ _______ _____ _____    ______ ____
ROOT
ATOM      1  N   UNK A   2       6.069  -0.735  23.578  0.00  0.00    -0.296 N 
ATOM      2  H   ACE A   1       5.156  -0.728  23.135  0.00  0.00    +0.150 HD
ATOM      3  C   UNK A   0       6.052   0.222  24.604  0.00  0.00    +0.268 C 
ATOM      4  O   UNK A   0       5.008   0.871  24.748  0.00  0.00    -0.268 OA
ENDROOT
BRANCH   1   6
ATOM      5  C   UNK A   2       7.816  -2.972  23.906  0.00  0.00    +0.169 C 
ATOM      6  C   UNK A   2       7.045  -1.808  23.135  0.00  0.00    +0.191 C 
ATOM      7  C   UNK A   2       6.293  -3.015  22.512  0.00  0.00    +0.244 C 
ATOM      8  O   UNK A   2       5.461  -3.200  21.643  0.00  0.00    -0.273 OA
ATOM      9  N   UNK A   2       6.697  -3.792  23.534  0.00  0.00    -0.249 N 
ATOM     10  C   UNK A   2       6.351  -4.983  24.080  0.00  0.00    +0.119 C 
ATOM     11  C   UNK A   2       6.755  -5.308  25.318  0.00  0.00    +0.014 C 
ATOM     12  C   UNK A   2       7.584  -4.502  26.258  0.00  0.00    +0.100 C 
ATOM     13  S   UNK A   2       8.386  -3.017  25.587  0.00  0.00    -0.131 S 
BRANCH  10  14
ATOM     14  C   UNK A   2       5.390  -5.950  23.435  0.00  0.00    +0.351 C 
ATOM     15  O   UNK A   2       4.468  -6.473  24.047  0.00  0.00    -0.244 OA
BRANCH  14  16
ATOM     16  O   UNK A   2       5.606  -6.258  22.146  0.00  0.00    -0.476 OA
ATOM     17  H   UNK A   2       6.529  -6.291  21.814  0.00  0.00    +0.295 HD
ENDBRANCH  14  16
ENDBRANCH  10  14
ENDBRANCH   1   6
BRANCH   3  18
ATOM     18  C   UNK A   0       7.271   0.633  25.417  0.00  0.00    +0.190 C 
ATOM     19  N   UNK A   0       7.446   0.467  26.702  0.00  0.00    -0.078 NA
BRANCH  18  20
ATOM     20  C   UNK A   0       8.539   1.033  24.778  0.00  0.00    +0.107 A 
ATOM     21  N   UNK A   0       8.522   1.734  23.577  0.00  0.00    -0.223 NA
ATOM     22  C   UNK A   0       9.643   1.555  22.920  0.00  0.00    +0.156 A 
ATOM     23  N   UNK A   0       9.800   1.921  21.644  0.00  0.00    -0.338 N 
ATOM     24  H   UNK A   0       9.071   2.499  21.245  0.00  0.00    +0.144 HD
ATOM     25  H   UNK A   0      10.728   2.055  21.265  0.00  0.00    +0.144 HD
ATOM     26  S   UNK A   0      10.889   0.771  23.800  0.00  0.00    -0.060 S 
ATOM     27  C   UNK A   0       9.786   0.503  25.093  0.00  0.00    +0.078 A 
ENDBRANCH  18  20
BRANCH  19  28
ATOM     28  O   UNK A   0       6.623  -0.299  27.533  0.00  0.00    -0.396 OA
ATOM     29  C   UNK A   0       5.612   0.320  28.294  0.00  0.00    +0.313 C 
ENDBRANCH  19  28
ENDBRANCH   3  18
TORSDOF 6
ENDMDL
MODEL 5
REMARK VINA RESULT:      -6.5      2.843      6.239
REMARK  Name = 
REMARK  7 active torsions:
REMARK  status: ('A' for Active; 'I' for Inactive)
REMARK    1  A    between atoms: CA_6  and  C_25
REMARK    2  A    between atoms: CA_10  and  N_12
REMARK    3  A    between atoms: C_13  and  C_15
REMARK    4  A    between atoms: C_15  and  C_19
REMARK    5  A    between atoms: N_16  and  O_17
REMARK    6  A    between atoms: O_17  and  C_18
REMARK    7  A    between atoms: C_25  and  O_26
REMARK                            x       y       z     vdW  Elec       q    Type
REMARK                         _______ _______ _______ _____ _____    ______ ____
ROOT
ATOM      1  N   UNK A   2       8.038  -3.804  26.543  0.00  0.00    -0.296 N 
ATOM      2  H   ACE A   1       8.758  -3.894  27.253  0.00  0.00    +0.150 HD
ATOM      3  C   UNK A   0       7.940  -2.447  26.204  0.00  0.00    +0.268 C 
ATOM      4  O   UNK A   0       8.681  -1.662  26.812  0.00  0.00    -0.268 OA
ENDROOT
BRANCH   1   6
ATOM      5  C   UNK A   2       5.965  -5.522  25.586  0.00  0.00    +0.169 C 
ATOM      6  C   UNK A   2       7.445  -5.087  25.994  0.00  0.00    +0.191 C 
ATOM      7  C   UNK A   2       7.662  -5.184  24.460  0.00  0.00    +0.244 C 
ATOM      8  O   UNK A   2       8.593  -5.103  23.680  0.00  0.00    -0.273 OA
ATOM      9  N   UNK A   2       6.333  -5.091  24.267  0.00  0.00    -0.249 N 
ATOM     10  C   UNK A   2       5.490  -4.807  23.244  0.00  0.00    +0.119 C 
ATOM     11  C   UNK A   2       4.212  -4.473  23.488  0.00  0.00    +0.014 C 
ATOM     12  C   UNK A   2       3.526  -4.351  24.805  0.00  0.00    +0.100 C 
ATOM     13  S   UNK A   2       4.412  -4.984  26.260  0.00  0.00    -0.131 S 
BRANCH  10  14
ATOM     14  C   UNK A   2       5.929  -4.694  21.807  0.00  0.00    +0.351 C 
ATOM     15  O   UNK A   2       6.369  -5.644  21.173  0.00  0.00    -0.244 OA
BRANCH  14  16
ATOM     16  O   UNK A   2       5.858  -3.479  21.240  0.00  0.00    -0.476 OA
ATOM     17  H   UNK A   2       5.635  -2.706  21.801  0.00  0.00    +0.295 HD
ENDBRANCH  14  16
ENDBRANCH  10  14
ENDBRANCH   1   6
BRANCH   3  18
ATOM     18  C   UNK A   0       6.877  -1.863  25.285  0.00  0.00    +0.190 C 
ATOM     19  N   UNK A   0       5.630  -1.614  25.591  0.00  0.00    -0.078 NA
BRANCH  18  20
ATOM     20  C   UNK A   0       7.216  -1.247  23.988  0.00  0.00    +0.107 A 
ATOM     21  N   UNK A   0       8.048  -1.916  23.097  0.00  0.00    -0.223 NA
ATOM     22  C   UNK A   0       8.639  -1.068  22.290  0.00  0.00    +0.156 A 
ATOM     23  N   UNK A   0       9.658  -1.414  21.496  0.00  0.00    -0.338 N 
ATOM     24  H   UNK A   0       9.852  -2.405  21.415  0.00  0.00    +0.144 HD
ATOM     25  H   UNK A   0       9.886  -0.850  20.688  0.00  0.00    +0.144 HD
ATOM     26  S   UNK A   0       8.044   0.539  22.355  0.00  0.00    -0.060 S 
ATOM     27  C   UNK A   0       7.041   0.098  23.682  0.00  0.00    +0.078 A 
ENDBRANCH  18  20
BRANCH  19  28
ATOM     28  O   UNK A   0       5.096  -1.655  26.882  0.00  0.00    -0.396 OA
ATOM     29  C   UNK A   0       3.769  -1.244  27.112  0.00  0.00    +0.313 C 
ENDBRANCH  19  28
ENDBRANCH   3  18
TORSDOF 6
ENDMDL
MODEL 6
REMARK VINA RESULT:      -6.5      2.720      7.519
REMARK  Name = 
REMARK  7 active torsions:
REMARK  status: ('A' for Active; 'I' for Inactive)
REMARK    1  A    between atoms: CA_6  and  C_25
REMARK    2  A    between atoms: CA_10  and  N_12
REMARK    3  A    between atoms: C_13  and  C_15
REMARK    4  A    between atoms: C_15  and  C_19
REMARK    5  A    between atoms: N_16  and  O_17
REMARK    6  A    between atoms: O_17  and  C_18
REMARK    7  A    between atoms: C_25  and  O_26
REMARK                            x       y       z     vdW  Elec       q    Type
REMARK                         _______ _______ _______ _____ _____    ______ ____
ROOT
ATOM      1  N   UNK A   2       8.776  -3.405  25.507  0.00  0.00    -0.296 N 
ATOM      2  H   ACE A   1       9.298  -4.262  25.353  0.00  0.00    +0.150 HD
ATOM      3  C   UNK A   0       9.176  -2.480  24.531  0.00  0.00    +0.268 C 
ATOM      4  O   UNK A   0      10.051  -2.848  23.736  0.00  0.00    -0.268 OA
ENDROOT
BRANCH   1   6
ATOM      5  C   UNK A   2       6.113  -3.195  26.524  0.00  0.00    +0.169 C 
ATOM      6  C   UNK A   2       7.690  -3.438  26.565  0.00  0.00    +0.191 C 
ATOM      7  C   UNK A   2       7.238  -4.896  26.848  0.00  0.00    +0.244 C 
ATOM      8  O   UNK A   2       7.763  -5.956  27.138  0.00  0.00    -0.273 OA
ATOM      9  N   UNK A   2       6.023  -4.616  26.341  0.00  0.00    -0.249 N 
ATOM     10  C   UNK A   2       4.951  -5.306  25.880  0.00  0.00    +0.119 C 
ATOM     11  C   UNK A   2       4.021  -4.694  25.128  0.00  0.00    +0.014 C 
ATOM     12  C   UNK A   2       3.982  -3.273  24.685  0.00  0.00    +0.100 C 
ATOM     13  S   UNK A   2       5.171  -2.134  25.456  0.00  0.00    -0.131 S 
BRANCH  10  14
ATOM     14  C   UNK A   2       4.789  -6.797  26.031  0.00  0.00    +0.351 C 
ATOM     15  O   UNK A   2       4.403  -7.516  25.118  0.00  0.00    -0.244 OA
BRANCH  14  16
ATOM     16  O   UNK A   2       5.048  -7.320  27.240  0.00  0.00    -0.476 OA
ATOM     17  H   UNK A   2       5.042  -6.731  28.024  0.00  0.00    +0.295 HD
ENDBRANCH  14  16
ENDBRANCH  10  14
ENDBRANCH   1   6
BRANCH   3  18
ATOM     18  C   UNK A   0       8.743  -1.022  24.499  0.00  0.00    +0.190 C 
ATOM     19  N   UNK A   0       8.530  -0.247  25.531  0.00  0.00    -0.078 NA
BRANCH  18  20
ATOM     20  C   UNK A   0       8.778  -0.222  23.260  0.00  0.00    +0.107 A 
ATOM     21  N   UNK A   0       9.931   0.475  22.914  0.00  0.00    -0.223 NA
ATOM     22  C   UNK A   0       9.643   1.487  22.132  0.00  0.00    +0.156 A 
ATOM     23  N   UNK A   0      10.524   2.449  21.841  0.00  0.00    -0.338 N 
ATOM     24  H   UNK A   0      11.485   2.283  22.114  0.00  0.00    +0.144 HD
ATOM     25  H   UNK A   0      10.391   3.029  21.023  0.00  0.00    +0.144 HD
ATOM     26  S   UNK A   0       8.034   1.517  21.538  0.00  0.00    -0.060 S 
ATOM     27  C   UNK A   0       7.655   0.172  22.541  0.00  0.00    +0.078 A 
ENDBRANCH  18  20
BRANCH  19  28
ATOM     28  O   UNK A   0       8.852  -0.563  26.853  0.00  0.00    -0.396 OA
ATOM     29  C   UNK A   0       8.065  -0.068  27.912  0.00  0.00    +0.313 C 
ENDBRANCH  19  28
ENDBRANCH   3  18
TORSDOF 6
ENDMDL
MODEL 7
REMARK VINA RESULT:      -6.4      1.950      2.573
REMARK  Name = 
REMARK  7 active torsions:
REMARK  status: ('A' for Active; 'I' for Inactive)
REMARK    1  A    between atoms: CA_6  and  C_25
REMARK    2  A    between atoms: CA_10  and  N_12
REMARK    3  A    between atoms: C_13  and  C_15
REMARK    4  A    between atoms: C_15  and  C_19
REMARK    5  A    between atoms: N_16  and  O_17
REMARK    6  A    between atoms: O_17  and  C_18
REMARK    7  A    between atoms: C_25  and  O_26
REMARK                            x       y       z     vdW  Elec       q    Type
REMARK                         _______ _______ _______ _____ _____    ______ ____
ROOT
ATOM      1  N   UNK A   2       6.064  -1.940  24.547  0.00  0.00    -0.296 N 
ATOM      2  H   ACE A   1       5.418  -1.337  24.047  0.00  0.00    +0.150 HD
ATOM      3  C   UNK A   0       5.639  -3.264  24.364  0.00  0.00    +0.268 C 
ATOM      4  O   UNK A   0       4.610  -3.436  23.697  0.00  0.00    -0.268 OA
ENDROOT
BRANCH   1   6
ATOM      5  C   UNK A   2       8.823  -1.218  24.726  0.00  0.00    +0.169 C 
ATOM      6  C   UNK A   2       7.288  -1.286  25.157  0.00  0.00    +0.191 C 
ATOM      7  C   UNK A   2       7.346   0.223  24.798  0.00  0.00    +0.244 C 
ATOM      8  O   UNK A   2       6.608   1.189  24.869  0.00  0.00    -0.273 OA
ATOM      9  N   UNK A   2       8.457   0.006  24.070  0.00  0.00    -0.249 N 
ATOM     10  C   UNK A   2       9.163   0.651  23.109  0.00  0.00    +0.119 C 
ATOM     11  C   UNK A   2      10.052  -0.016  22.356  0.00  0.00    +0.014 C 
ATOM     12  C   UNK A   2      10.410  -1.461  22.413  0.00  0.00    +0.100 C 
ATOM     13  S   UNK A   2       9.790  -2.410  23.833  0.00  0.00    -0.131 S 
BRANCH  10  14
ATOM     14  C   UNK A   2       8.913   2.082  22.707  0.00  0.00    +0.351 C 
ATOM     15  O   UNK A   2       8.940   3.008  23.507  0.00  0.00    -0.244 OA
BRANCH  14  16
ATOM     16  O   UNK A   2       8.612   2.311  21.419  0.00  0.00    -0.476 OA
ATOM     17  H   UNK A   2       8.985   1.719  20.732  0.00  0.00    +0.295 HD
ENDBRANCH  14  16
ENDBRANCH  10  14
ENDBRANCH   1   6
BRANCH   3  18
ATOM     18  C   UNK A   0       6.246  -4.468  25.071  0.00  0.00    +0.190 C 
ATOM     19  N   UNK A   0       7.075  -5.339  24.558  0.00  0.00    -0.078 NA
BRANCH  18  20
ATOM     20  C   UNK A   0       6.173  -4.634  26.535  0.00  0.00    +0.107 A 
ATOM     21  N   UNK A   0       6.818  -5.703  27.146  0.00  0.00    -0.223 NA
ATOM     22  C   UNK A   0       6.252  -5.992  28.293  0.00  0.00    +0.156 A 
ATOM     23  N   UNK A   0       6.523  -7.111  28.973  0.00  0.00    -0.338 N 
ATOM     24  H   UNK A   0       7.313  -7.657  28.651  0.00  0.00    +0.144 HD
ATOM     25  H   UNK A   0       6.321  -7.166  29.962  0.00  0.00    +0.144 HD
ATOM     26  S   UNK A   0       5.098  -4.850  28.846  0.00  0.00    -0.060 S 
ATOM     27  C   UNK A   0       5.247  -4.001  27.358  0.00  0.00    +0.078 A 
ENDBRANCH  18  20
BRANCH  19  28
ATOM     28  O   UNK A   0       7.711  -5.212  23.320  0.00  0.00    -0.396 OA
ATOM     29  C   UNK A   0       7.142  -5.790  22.169  0.00  0.00    +0.313 C 
ENDBRANCH  19  28
ENDBRANCH   3  18
TORSDOF 6
ENDMDL
MODEL 8
REMARK VINA RESULT:      -6.4      3.082      5.297
REMARK  Name = 
REMARK  7 active torsions:
REMARK  status: ('A' for Active; 'I' for Inactive)
REMARK    1  A    between atoms: CA_6  and  C_25
REMARK    2  A    between atoms: CA_10  and  N_12
REMARK    3  A    between atoms: C_13  and  C_15
REMARK    4  A    between atoms: C_15  and  C_19
REMARK    5  A    between atoms: N_16  and  O_17
REMARK    6  A    between atoms: O_17  and  C_18
REMARK    7  A    between atoms: C_25  and  O_26
REMARK                            x       y       z     vdW  Elec       q    Type
REMARK                         _______ _______ _______ _____ _____    ______ ____
ROOT
ATOM      1  N   UNK A   2       5.556  -4.932  26.863  0.00  0.00    -0.296 N 
ATOM      2  H   ACE A   1       5.415  -5.531  27.669  0.00  0.00    +0.150 HD
ATOM      3  C   UNK A   0       5.115  -3.645  27.205  0.00  0.00    +0.268 C 
ATOM      4  O   UNK A   0       4.642  -3.498  28.340  0.00  0.00    -0.268 OA
ENDROOT
BRANCH   1   6
ATOM      5  C   UNK A   2       6.290  -5.210  24.115  0.00  0.00    +0.169 C 
ATOM      6  C   UNK A   2       6.293  -5.528  25.679  0.00  0.00    +0.191 C 
ATOM      7  C   UNK A   2       7.729  -4.951  25.573  0.00  0.00    +0.244 C 
ATOM      8  O   UNK A   2       8.697  -4.818  26.300  0.00  0.00    -0.273 OA
ATOM      9  N   UNK A   2       7.402  -4.351  24.414  0.00  0.00    -0.249 N 
ATOM     10  C   UNK A   2       7.891  -3.360  23.629  0.00  0.00    +0.119 C 
ATOM     11  C   UNK A   2       7.116  -2.787  22.694  0.00  0.00    +0.014 C 
ATOM     12  C   UNK A   2       5.695  -3.089  22.362  0.00  0.00    +0.100 C 
ATOM     13  S   UNK A   2       4.974  -4.585  23.100  0.00  0.00    -0.131 S 
BRANCH  10  14
ATOM     14  C   UNK A   2       9.245  -2.729  23.827  0.00  0.00    +0.351 C 
ATOM     15  O   UNK A   2       9.432  -1.522  23.743  0.00  0.00    -0.244 OA
BRANCH  14  16
ATOM     16  O   UNK A   2      10.276  -3.556  24.067  0.00  0.00    -0.476 OA
ATOM     17  H   UNK A   2      10.093  -4.450  24.427  0.00  0.00    +0.295 HD
ENDBRANCH  14  16
ENDBRANCH  10  14
ENDBRANCH   1   6
BRANCH   3  18
ATOM     18  C   UNK A   0       5.014  -2.482  26.229  0.00  0.00    +0.190 C 
ATOM     19  N   UNK A   0       3.926  -2.032  25.660  0.00  0.00    -0.078 NA
BRANCH  18  20
ATOM     20  C   UNK A   0       6.128  -1.538  26.018  0.00  0.00    +0.107 A 
ATOM     21  N   UNK A   0       7.300  -1.670  26.753  0.00  0.00    -0.223 NA
ATOM     22  C   UNK A   0       7.931  -0.523  26.830  0.00  0.00    +0.156 A 
ATOM     23  N   UNK A   0       8.955  -0.316  27.664  0.00  0.00    -0.338 N 
ATOM     24  H   UNK A   0       9.341  -1.133  28.121  0.00  0.00    +0.144 HD
ATOM     25  H   UNK A   0       9.602   0.443  27.494  0.00  0.00    +0.144 HD
ATOM     26  S   UNK A   0       7.319   0.716  25.816  0.00  0.00    -0.060 S 
ATOM     27  C   UNK A   0       6.013  -0.311  25.372  0.00  0.00    +0.078 A 
ENDBRANCH  18  20
BRANCH  19  28
ATOM     28  O   UNK A   0       2.625  -2.412  26.000  0.00  0.00    -0.396 OA
ATOM     29  C   UNK A   0       1.992  -3.465  25.310  0.00  0.00    +0.313 C 
ENDBRANCH  19  28
ENDBRANCH   3  18
TORSDOF 6
ENDMDL
MODEL 9
REMARK VINA RESULT:      -6.4      2.690      4.028
REMARK  Name = 
REMARK  7 active torsions:
REMARK  status: ('A' for Active; 'I' for Inactive)
REMARK    1  A    between atoms: CA_6  and  C_25
REMARK    2  A    between atoms: CA_10  and  N_12
REMARK    3  A    between atoms: C_13  and  C_15
REMARK    4  A    between atoms: C_15  and  C_19
REMARK    5  A    between atoms: N_16  and  O_17
REMARK    6  A    between atoms: O_17  and  C_18
REMARK    7  A    between atoms: C_25  and  O_26
REMARK                            x       y       z     vdW  Elec       q    Type
REMARK                         _______ _______ _______ _____ _____    ______ ____
ROOT
ATOM      1  N   UNK A   2       6.644  -0.898  25.564  0.00  0.00    -0.296 N 
ATOM      2  H   ACE A   1       6.014  -0.121  25.734  0.00  0.00    +0.150 HD
ATOM      3  C   UNK A   0       5.877  -1.975  25.097  0.00  0.00    +0.268 C 
ATOM      4  O   UNK A   0       4.654  -1.798  25.013  0.00  0.00    -0.268 OA
ENDROOT
BRANCH   1   6
ATOM      5  C   UNK A   2       9.393  -0.952  24.785  0.00  0.00    +0.169 C 
ATOM      6  C   UNK A   2       8.130  -0.627  25.704  0.00  0.00    +0.191 C 
ATOM      7  C   UNK A   2       8.469   0.827  25.280  0.00  0.00    +0.244 C 
ATOM      8  O   UNK A   2       8.085   1.951  25.549  0.00  0.00    -0.273 OA
ATOM      9  N   UNK A   2       9.174   0.356  24.235  0.00  0.00    -0.249 N 
ATOM     10  C   UNK A   2       9.667   0.835  23.066  0.00  0.00    +0.119 C 
ATOM     11  C   UNK A   2      10.043  -0.008  22.090  0.00  0.00    +0.014 C 
ATOM     12  C   UNK A   2       9.997  -1.497  22.089  0.00  0.00    +0.100 C 
ATOM     13  S   UNK A   2       9.651  -2.314  23.675  0.00  0.00    -0.131 S 
BRANCH  10  14
ATOM     14  C   UNK A   2       9.693   2.299  22.707  0.00  0.00    +0.351 C 
ATOM     15  O   UNK A   2      10.388   3.113  23.300  0.00  0.00    -0.244 OA
BRANCH  14  16
ATOM     16  O   UNK A   2       8.878   2.700  21.718  0.00  0.00    -0.476 OA
ATOM     17  H   UNK A   2       8.399   2.023  21.194  0.00  0.00    +0.295 HD
ENDBRANCH  14  16
ENDBRANCH  10  14
ENDBRANCH   1   6
BRANCH   3  18
ATOM     18  C   UNK A   0       6.416  -3.380  24.865  0.00  0.00    +0.190 C 
ATOM     19  N   UNK A   0       7.009  -4.144  25.745  0.00  0.00    -0.078 NA
BRANCH  18  20
ATOM     20  C   UNK A   0       6.078  -4.158  23.659  0.00  0.00    +0.107 A 
ATOM     21  N   UNK A   0       4.788  -4.649  23.487  0.00  0.00    -0.223 NA
ATOM     22  C   UNK A   0       4.792  -5.693  22.693  0.00  0.00    +0.156 A 
ATOM     23  N   UNK A   0       3.731  -6.493  22.544  0.00  0.00    -0.338 N 
ATOM     24  H   UNK A   0       2.859  -6.167  22.942  0.00  0.00    +0.144 HD
ATOM     25  H   UNK A   0       3.652  -7.084  21.728  0.00  0.00    +0.144 HD
ATOM     26  S   UNK A   0       6.276  -5.993  21.888  0.00  0.00    -0.060 S 
ATOM     27  C   UNK A   0       7.010  -4.735  22.803  0.00  0.00    +0.078 A 
ENDBRANCH  18  20
BRANCH  19  28
ATOM     28  O   UNK A   0       7.081  -3.886  27.116  0.00  0.00    -0.396 OA
ATOM     29  C   UNK A   0       6.071  -4.354  27.979  0.00  0.00    +0.313 C 
ENDBRANCH  19  28
ENDBRANCH   3  18
TORSDOF 6
ENDMDL
