MODEL 1
REMARK VINA RESULT:      -6.0      0.000      0.000
REMARK  Name = 
REMARK  6 active torsions:
REMARK  status: ('A' for Active; 'I' for Inactive)
REMARK    1  A    between atoms: C_1  and  C_2
REMARK    2  A    between atoms: C_2  and  N_3
REMARK    3  A    between atoms: N_3  and  C_4
REMARK    4  A    between atoms: C_7  and  C_9
REMARK    5  A    between atoms: C_16  and  S_18
REMARK    6  A    between atoms: S_18  and  N_19
REMARK                            x       y       z     vdW  Elec       q    Type
REMARK                         _______ _______ _______ _____ _____    ______ ____
ROOT
ATOM      1  C   UNL     1       5.472  -3.846  23.926  0.00  0.00    +0.088 C 
ATOM      2  C   UNL     1       6.686  -2.963  23.871  0.00  0.00    +0.004 A 
ATOM      3  C   UNL     1       6.774  -1.674  23.232  0.00  0.00    +0.043 A 
ATOM      4  C   UNL     1       8.059  -1.160  23.242  0.00  0.00    +0.144 A 
ATOM      5  S   UNL     1       9.129  -2.169  24.104  0.00  0.00    -0.050 S 
ATOM      6  C   UNL     1       7.902  -3.302  24.415  0.00  0.00    +0.132 A 
ATOM      7  S   UNL     1       8.358  -4.736  25.313  0.00  0.00    +0.006 S 
ATOM      8  O   UNL     1       9.067  -5.561  24.357  0.00  0.00    -0.169 OA
ATOM      9  O   UNL     1       8.983  -4.246  26.524  0.00  0.00    -0.169 OA
ATOM     10  C   UNL     1       6.794  -5.491  25.695  0.00  0.00    +0.135 C 
ATOM     11  C   UNL     1       6.497  -5.456  27.195  0.00  0.00    +0.032 C 
ATOM     12  C   UNL     1       5.551  -5.070  24.880  0.00  0.00    +0.049 C 
ENDROOT
BRANCH   4  13
ATOM     13  S   UNL     1       8.787   0.274  22.484  0.00  0.00    +0.062 S 
ATOM     14  O   UNL     1       9.812   0.732  23.391  0.00  0.00    -0.153 OA
ATOM     15  O   UNL     1       7.662   1.083  22.082  0.00  0.00    -0.153 OA
BRANCH  13  16
ATOM     16  N   UNL     1       9.533  -0.269  21.081  0.00  0.00    -0.203 NA
ATOM     17  H   UNL     1       9.562  -1.287  21.032  0.00  0.00    +0.144 HD
ATOM     18  H   UNL     1       9.166   0.188  20.249  0.00  0.00    +0.144 HD
ENDBRANCH  13  16
ENDBRANCH   4  13
BRANCH   1  19
ATOM     19  N   UNL     1       5.207  -4.273  22.540  0.00  0.00    -0.309 NA
ATOM     20  H   UNL     1       4.214  -4.158  22.334  0.00  0.00    +0.122 HD
BRANCH  19  22
ATOM     21  C   UNL     1       6.798  -5.753  21.411  0.00  0.00    +0.020 C 
ATOM     22  C   UNL     1       5.553  -5.676  22.282  0.00  0.00    +0.078 C 
ENDBRANCH  19  22
ENDBRANCH   1  19
TORSDOF 4
ENDMDL
MODEL 2
REMARK VINA RESULT:      -5.8      2.525      3.579
REMARK  Name = 
REMARK  6 active torsions:
REMARK  status: ('A' for Active; 'I' for Inactive)
REMARK    1  A    between atoms: C_1  and  C_2
REMARK    2  A    between atoms: C_2  and  N_3
REMARK    3  A    between atoms: N_3  and  C_4
REMARK    4  A    between atoms: C_7  and  C_9
REMARK    5  A    between atoms: C_16  and  S_18
REMARK    6  A    between atoms: S_18  and  N_19
REMARK                            x       y       z     vdW  Elec       q    Type
REMARK                         _______ _______ _______ _____ _____    ______ ____
ROOT
ATOM      1  C   UNL     1       8.810  -4.148  24.367  0.00  0.00    +0.088 C 
ATOM      2  C   UNL     1       8.537  -2.780  23.811  0.00  0.00    +0.004 A 
ATOM      3  C   UNL     1       9.433  -1.651  23.847  0.00  0.00    +0.043 A 
ATOM      4  C   UNL     1       8.851  -0.491  23.367  0.00  0.00    +0.144 A 
ATOM      5  S   UNL     1       7.276  -0.779  22.780  0.00  0.00    -0.050 S 
ATOM      6  C   UNL     1       7.354  -2.421  23.210  0.00  0.00    +0.132 A 
ATOM      7  S   UNL     1       5.931  -3.392  22.889  0.00  0.00    +0.006 S 
ATOM      8  O   UNL     1       4.990  -3.023  23.927  0.00  0.00    -0.169 OA
ATOM      9  O   UNL     1       5.645  -3.198  21.483  0.00  0.00    -0.169 OA
ATOM     10  C   UNL     1       6.499  -5.052  23.174  0.00  0.00    +0.135 C 
ATOM     11  C   UNL     1       6.532  -5.871  21.883  0.00  0.00    +0.032 C 
ATOM     12  C   UNL     1       7.794  -5.261  23.990  0.00  0.00    +0.049 C 
ENDROOT
BRANCH   4  13
ATOM     13  S   UNL     1       9.398   1.199  23.318  0.00  0.00    +0.062 S 
ATOM     14  O   UNL     1      10.655   1.236  24.027  0.00  0.00    -0.153 OA
ATOM     15  O   UNL     1       8.241   1.966  23.712  0.00  0.00    -0.153 OA
BRANCH  13  16
ATOM     16  N   UNL     1       9.696   1.547  21.703  0.00  0.00    -0.203 NA
ATOM     17  H   UNL     1      10.297   0.848  21.265  0.00  0.00    +0.144 HD
ATOM     18  H   UNL     1       8.842   1.755  21.191  0.00  0.00    +0.144 HD
ENDBRANCH  13  16
ENDBRANCH   4  13
BRANCH   1  19
ATOM     19  N   UNL     1       8.902  -3.991  25.829  0.00  0.00    -0.309 NA
ATOM     20  H   UNL     1       9.822  -4.298  26.146  0.00  0.00    +0.122 HD
BRANCH  19  22
ATOM     21  C   UNL     1       6.760  -3.858  27.010  0.00  0.00    +0.020 C 
ATOM     22  C   UNL     1       7.898  -4.767  26.567  0.00  0.00    +0.078 C 
ENDBRANCH  19  22
ENDBRANCH   1  19
TORSDOF 4
ENDMDL
MODEL 3
REMARK VINA RESULT:      -5.8      3.271      6.314
REMARK  Name = 
REMARK  6 active torsions:
REMARK  status: ('A' for Active; 'I' for Inactive)
REMARK    1  A    between atoms: C_1  and  C_2
REMARK    2  A    between atoms: C_2  and  N_3
REMARK    3  A    between atoms: N_3  and  C_4
REMARK    4  A    between atoms: C_7  and  C_9
REMARK    5  A    between atoms: C_16  and  S_18
REMARK    6  A    between atoms: S_18  and  N_19
REMARK                            x       y       z     vdW  Elec       q    Type
REMARK                         _______ _______ _______ _____ _____    ______ ____
ROOT
ATOM      1  C   UNL     1       7.664   0.419  25.888  0.00  0.00    +0.088 C 
ATOM      2  C   UNL     1       8.244  -0.808  25.245  0.00  0.00    +0.004 A 
ATOM      3  C   UNL     1       7.827  -2.169  25.475  0.00  0.00    +0.043 A 
ATOM      4  C   UNL     1       8.634  -3.091  24.832  0.00  0.00    +0.144 A 
ATOM      5  S   UNL     1       9.819  -2.323  23.875  0.00  0.00    -0.050 S 
ATOM      6  C   UNL     1       9.291  -0.781  24.355  0.00  0.00    +0.132 A 
ATOM      7  S   UNL     1      10.169   0.592  23.712  0.00  0.00    +0.006 S 
ATOM      8  O   UNL     1      11.404   0.628  24.469  0.00  0.00    -0.169 OA
ATOM      9  O   UNL     1      10.148   0.420  22.274  0.00  0.00    -0.169 OA
ATOM     10  C   UNL     1       9.155   1.976  24.176  0.00  0.00    +0.135 C 
ATOM     11  C   UNL     1       8.526   2.654  22.958  0.00  0.00    +0.032 C 
ATOM     12  C   UNL     1       8.110   1.785  25.297  0.00  0.00    +0.049 C 
ENDROOT
BRANCH   4  13
ATOM     13  S   UNL     1       8.706  -4.866  24.877  0.00  0.00    +0.062 S 
ATOM     14  O   UNL     1       8.328  -5.318  23.559  0.00  0.00    -0.153 OA
ATOM     15  O   UNL     1       7.991  -5.228  26.077  0.00  0.00    -0.153 OA
BRANCH  13  16
ATOM     16  N   UNL     1      10.319  -5.261  25.123  0.00  0.00    -0.203 NA
ATOM     17  H   UNL     1      10.838  -4.498  25.557  0.00  0.00    +0.144 HD
ATOM     18  H   UNL     1      10.428  -6.164  25.579  0.00  0.00    +0.144 HD
ENDBRANCH  13  16
ENDBRANCH   4  13
BRANCH   1  19
ATOM     19  N   UNL     1       7.994   0.330  27.322  0.00  0.00    -0.309 NA
ATOM     20  H   UNL     1       8.208  -0.638  27.561  0.00  0.00    +0.122 HD
BRANCH  19  22
ATOM     21  C   UNL     1       5.627   0.018  27.869  0.00  0.00    +0.020 C 
ATOM     22  C   UNL     1       6.906   0.773  28.203  0.00  0.00    +0.078 C 
ENDBRANCH  19  22
ENDBRANCH   1  19
TORSDOF 4
ENDMDL
MODEL 4
REMARK VINA RESULT:      -5.7      3.295      5.971
REMARK  Name = 
REMARK  6 active torsions:
REMARK  status: ('A' for Active; 'I' for Inactive)
REMARK    1  A    between atoms: C_1  and  C_2
REMARK    2  A    between atoms: C_2  and  N_3
REMARK    3  A    between atoms: N_3  and  C_4
REMARK    4  A    between atoms: C_7  and  C_9
REMARK    5  A    between atoms: C_16  and  S_18
REMARK    6  A    between atoms: S_18  and  N_19
REMARK                            x       y       z     vdW  Elec       q    Type
REMARK                         _______ _______ _______ _____ _____    ______ ____
ROOT
ATOM      1  C   UNL     1       8.999  -4.320  24.898  0.00  0.00    +0.088 C 
ATOM      2  C   UNL     1       7.915  -4.232  25.933  0.00  0.00    +0.004 A 
ATOM      3  C   UNL     1       7.558  -5.255  26.884  0.00  0.00    +0.043 A 
ATOM      4  C   UNL     1       6.435  -4.929  27.625  0.00  0.00    +0.144 A 
ATOM      5  S   UNL     1       5.877  -3.361  27.254  0.00  0.00    -0.050 S 
ATOM      6  C   UNL     1       7.089  -3.143  26.083  0.00  0.00    +0.132 A 
ATOM      7  S   UNL     1       7.084  -1.623  25.212  0.00  0.00    +0.006 S 
ATOM      8  O   UNL     1       5.997  -1.745  24.262  0.00  0.00    -0.169 OA
ATOM      9  O   UNL     1       7.106  -0.596  26.233  0.00  0.00    -0.169 OA
ATOM     10  C   UNL     1       8.633  -1.650  24.339  0.00  0.00    +0.135 C 
ATOM     11  C   UNL     1       9.598  -0.584  24.860  0.00  0.00    +0.032 C 
ATOM     12  C   UNL     1       9.357  -3.002  24.158  0.00  0.00    +0.049 C 
ENDROOT
BRANCH   4  13
ATOM     13  S   UNL     1       5.459  -5.841  28.797  0.00  0.00    +0.062 S 
ATOM     14  O   UNL     1       4.099  -5.390  28.625  0.00  0.00    -0.153 OA
ATOM     15  O   UNL     1       6.184  -5.725  30.040  0.00  0.00    -0.153 OA
BRANCH  13  16
ATOM     16  N   UNL     1       5.543  -7.449  28.323  0.00  0.00    -0.203 NA
ATOM     17  H   UNL     1       6.505  -7.781  28.262  0.00  0.00    +0.144 HD
ATOM     18  H   UNL     1       4.920  -8.042  28.866  0.00  0.00    +0.144 HD
ENDBRANCH  13  16
ENDBRANCH   4  13
BRANCH   1  19
ATOM     19  N   UNL     1       8.579  -5.364  23.946  0.00  0.00    -0.309 NA
ATOM     20  H   UNL     1       9.383  -5.663  23.393  0.00  0.00    +0.122 HD
BRANCH  19  22
ATOM     21  C   UNL     1       7.192  -6.044  22.045  0.00  0.00    +0.020 C 
ATOM     22  C   UNL     1       7.539  -4.919  23.010  0.00  0.00    +0.078 C 
ENDBRANCH  19  22
ENDBRANCH   1  19
TORSDOF 4
ENDMDL
MODEL 5
REMARK VINA RESULT:      -5.6      2.821      5.679
REMARK  Name = 
REMARK  6 active torsions:
REMARK  status: ('A' for Active; 'I' for Inactive)
REMARK    1  A    between atoms: C_1  and  C_2
REMARK    2  A    between atoms: C_2  and  N_3
REMARK    3  A    between atoms: N_3  and  C_4
REMARK    4  A    between atoms: C_7  and  C_9
REMARK    5  A    between atoms: C_16  and  S_18
REMARK    6  A    between atoms: S_18  and  N_19
REMARK                            x       y       z     vdW  Elec       q    Type
REMARK                         _______ _______ _______ _____ _____    ______ ____
ROOT
ATOM      1  C   UNL     1       6.433  -0.147  23.175  0.00  0.00    +0.088 C 
ATOM      2  C   UNL     1       6.675  -1.628  23.111  0.00  0.00    +0.004 A 
ATOM      3  C   UNL     1       5.670  -2.650  22.951  0.00  0.00    +0.043 A 
ATOM      4  C   UNL     1       6.188  -3.929  23.054  0.00  0.00    +0.144 A 
ATOM      5  S   UNL     1       7.883  -3.904  23.236  0.00  0.00    -0.050 S 
ATOM      6  C   UNL     1       7.917  -2.205  23.229  0.00  0.00    +0.132 A 
ATOM      7  S   UNL     1       9.482  -1.443  23.425  0.00  0.00    +0.006 S 
ATOM      8  O   UNL     1       9.786  -1.580  24.835  0.00  0.00    -0.169 OA
ATOM      9  O   UNL     1      10.320  -2.021  22.395  0.00  0.00    -0.169 OA
ATOM     10  C   UNL     1       9.152   0.265  23.058  0.00  0.00    +0.135 C 
ATOM     11  C   UNL     1       9.839   0.712  21.766  0.00  0.00    +0.032 C 
ATOM     12  C   UNL     1       7.690   0.762  23.101  0.00  0.00    +0.049 C 
ENDROOT
BRANCH   4  13
ATOM     13  S   UNL     1       5.428  -5.535  23.104  0.00  0.00    +0.062 S 
ATOM     14  O   UNL     1       4.100  -5.369  22.562  0.00  0.00    -0.153 OA
ATOM     15  O   UNL     1       5.687  -6.018  24.439  0.00  0.00    -0.153 OA
BRANCH  13  16
ATOM     16  N   UNL     1       6.307  -6.500  22.048  0.00  0.00    -0.203 NA
ATOM     17  H   UNL     1       6.009  -6.380  21.081  0.00  0.00    +0.144 HD
ATOM     18  H   UNL     1       7.311  -6.418  22.199  0.00  0.00    +0.144 HD
ENDBRANCH  13  16
ENDBRANCH   4  13
BRANCH   1  19
ATOM     19  N   UNL     1       5.677   0.095  24.417  0.00  0.00    -0.309 NA
ATOM     20  H   UNL     1       5.025   0.867  24.272  0.00  0.00    +0.122 HD
BRANCH  19  22
ATOM     21  C   UNL     1       6.406  -0.621  26.643  0.00  0.00    +0.020 C 
ATOM     22  C   UNL     1       6.528   0.444  25.562  0.00  0.00    +0.078 C 
ENDBRANCH  19  22
ENDBRANCH   1  19
TORSDOF 4
ENDMDL
MODEL 6
REMARK VINA RESULT:      -5.4      2.936      5.573
REMARK  Name = 
REMARK  6 active torsions:
REMARK  status: ('A' for Active; 'I' for Inactive)
REMARK    1  A    between atoms: C_1  and  C_2
REMARK    2  A    between atoms: C_2  and  N_3
REMARK    3  A    between atoms: N_3  and  C_4
REMARK    4  A    between atoms: C_7  and  C_9
REMARK    5  A    between atoms: C_16  and  S_18
REMARK    6  A    between atoms: S_18  and  N_19
REMARK                            x       y       z     vdW  Elec       q    Type
REMARK                         _______ _______ _______ _____ _____    ______ ____
ROOT
ATOM      1  C   UNL     1       6.735  -1.175  23.053  0.00  0.00    +0.088 C 
ATOM      2  C   UNL     1       6.413  -2.581  23.471  0.00  0.00    +0.004 A 
ATOM      3  C   UNL     1       5.194  -3.296  23.187  0.00  0.00    +0.043 A 
ATOM      4  C   UNL     1       5.140  -4.530  23.811  0.00  0.00    +0.144 A 
ATOM      5  S   UNL     1       6.588  -4.871  24.645  0.00  0.00    -0.050 S 
ATOM      6  C   UNL     1       7.255  -3.368  24.220  0.00  0.00    +0.132 A 
ATOM      7  S   UNL     1       8.860  -3.014  24.827  0.00  0.00    +0.006 S 
ATOM      8  O   UNL     1       8.663  -2.685  26.224  0.00  0.00    -0.169 OA
ATOM      9  O   UNL     1       9.684  -4.127  24.404  0.00  0.00    -0.169 OA
ATOM     10  C   UNL     1       9.317  -1.544  23.937  0.00  0.00    +0.135 C 
ATOM     11  C   UNL     1      10.467  -1.804  22.962  0.00  0.00    +0.032 C 
ATOM     12  C   UNL     1       8.204  -0.712  23.262  0.00  0.00    +0.049 C 
ENDROOT
BRANCH   4  13
ATOM     13  S   UNL     1       3.856  -5.750  23.959  0.00  0.00    +0.062 S 
ATOM     14  O   UNL     1       2.952  -5.518  22.858  0.00  0.00    -0.153 OA
ATOM     15  O   UNL     1       3.455  -5.689  25.344  0.00  0.00    -0.153 OA
BRANCH  13  16
ATOM     16  N   UNL     1       4.597  -7.238  23.724  0.00  0.00    -0.203 NA
ATOM     17  H   UNL     1       5.232  -7.228  22.925  0.00  0.00    +0.144 HD
ATOM     18  H   UNL     1       5.000  -7.607  24.583  0.00  0.00    +0.144 HD
ENDBRANCH  13  16
ENDBRANCH   4  13
BRANCH   1  19
ATOM     19  N   UNL     1       5.798  -0.302  23.781  0.00  0.00    -0.309 NA
ATOM     20  H   UNL     1       5.460   0.431  23.155  0.00  0.00    +0.122 HD
BRANCH  19  22
ATOM     21  C   UNL     1       5.862  -0.271  26.229  0.00  0.00    +0.020 C 
ATOM     22  C   UNL     1       6.396   0.357  24.949  0.00  0.00    +0.078 C 
ENDBRANCH  19  22
ENDBRANCH   1  19
TORSDOF 4
ENDMDL
MODEL 7
REMARK VINA RESULT:      -5.4      4.046      6.419
REMARK  Name = 
REMARK  6 active torsions:
REMARK  status: ('A' for Active; 'I' for Inactive)
REMARK    1  A    between atoms: C_1  and  C_2
REMARK    2  A    between atoms: C_2  and  N_3
REMARK    3  A    between atoms: N_3  and  C_4
REMARK    4  A    between atoms: C_7  and  C_9
REMARK    5  A    between atoms: C_16  and  S_18
REMARK    6  A    between atoms: S_18  and  N_19
REMARK                            x       y       z     vdW  Elec       q    Type
REMARK                         _______ _______ _______ _____ _____    ______ ____
ROOT
ATOM      1  C   UNL     1       8.978   1.225  21.456  0.00  0.00    +0.088 C 
ATOM      2  C   UNL     1       7.759   1.749  22.161  0.00  0.00    +0.004 A 
ATOM      3  C   UNL     1       7.038   2.954  21.835  0.00  0.00    +0.043 A 
ATOM      4  C   UNL     1       6.033   3.238  22.743  0.00  0.00    +0.144 A 
ATOM      5  S   UNL     1       5.889   2.010  23.917  0.00  0.00    -0.050 S 
ATOM      6  C   UNL     1       7.185   1.139  23.251  0.00  0.00    +0.132 A 
ATOM      7  S   UNL     1       7.637  -0.350  24.057  0.00  0.00    +0.006 S 
ATOM      8  O   UNL     1       8.354   0.075  25.243  0.00  0.00    -0.169 OA
ATOM      9  O   UNL     1       6.420  -1.131  24.128  0.00  0.00    -0.169 OA
ATOM     10  C   UNL     1       8.779  -1.099  22.918  0.00  0.00    +0.135 C 
ATOM     11  C   UNL     1       8.213  -2.382  22.308  0.00  0.00    +0.032 C 
ATOM     12  C   UNL     1       9.426  -0.214  21.830  0.00  0.00    +0.049 C 
ENDROOT
BRANCH   4  13
ATOM     13  S   UNL     1       4.952   4.634  22.945  0.00  0.00    +0.062 S 
ATOM     14  O   UNL     1       5.726   5.798  22.584  0.00  0.00    -0.153 OA
ATOM     15  O   UNL     1       4.359   4.447  24.248  0.00  0.00    -0.153 OA
BRANCH  13  16
ATOM     16  N   UNL     1       3.728   4.444  21.812  0.00  0.00    -0.203 NA
ATOM     17  H   UNL     1       2.873   4.078  22.229  0.00  0.00    +0.144 HD
ATOM     18  H   UNL     1       3.601   5.277  21.241  0.00  0.00    +0.144 HD
ENDBRANCH  13  16
ENDBRANCH   4  13
BRANCH   1  19
ATOM     19  N   UNL     1      10.054   2.198  21.712  0.00  0.00    -0.309 NA
ATOM     20  H   UNL     1      10.875   1.951  21.158  0.00  0.00    +0.122 HD
BRANCH  19  22
ATOM     21  C   UNL     1      11.108   3.603  23.420  0.00  0.00    +0.020 C 
ATOM     22  C   UNL     1      10.472   2.253  23.119  0.00  0.00    +0.078 C 
ENDBRANCH  19  22
ENDBRANCH   1  19
TORSDOF 4
ENDMDL
MODEL 8
REMARK VINA RESULT:      -5.3      2.786      3.768
REMARK  Name = 
REMARK  6 active torsions:
REMARK  status: ('A' for Active; 'I' for Inactive)
REMARK    1  A    between atoms: C_1  and  C_2
REMARK    2  A    between atoms: C_2  and  N_3
REMARK    3  A    between atoms: N_3  and  C_4
REMARK    4  A    between atoms: C_7  and  C_9
REMARK    5  A    between atoms: C_16  and  S_18
REMARK    6  A    between atoms: S_18  and  N_19
REMARK                            x       y       z     vdW  Elec       q    Type
REMARK                         _______ _______ _______ _____ _____    ______ ____
ROOT
ATOM      1  C   UNL     1       7.046  -1.249  26.223  0.00  0.00    +0.088 C 
ATOM      2  C   UNL     1       8.020  -0.674  25.234  0.00  0.00    +0.004 A 
ATOM      3  C   UNL     1       8.320   0.724  25.048  0.00  0.00    +0.043 A 
ATOM      4  C   UNL     1       9.165   0.951  23.976  0.00  0.00    +0.144 A 
ATOM      5  S   UNL     1       9.677  -0.511  23.264  0.00  0.00    -0.050 S 
ATOM      6  C   UNL     1       8.741  -1.432  24.342  0.00  0.00    +0.132 A 
ATOM      7  S   UNL     1       8.778  -3.171  24.137  0.00  0.00    +0.006 S 
ATOM      8  O   UNL     1       7.943  -3.425  22.980  0.00  0.00    -0.169 OA
ATOM      9  O   UNL     1      10.180  -3.531  24.171  0.00  0.00    -0.169 OA
ATOM     10  C   UNL     1       7.958  -3.771  25.596  0.00  0.00    +0.135 C 
ATOM     11  C   UNL     1       8.916  -4.527  26.517  0.00  0.00    +0.032 C 
ATOM     12  C   UNL     1       7.078  -2.792  26.405  0.00  0.00    +0.049 C 
ENDROOT
BRANCH   4  13
ATOM     13  S   UNL     1       9.736   2.438  23.187  0.00  0.00    +0.062 S 
ATOM     14  O   UNL     1      11.056   2.691  23.713  0.00  0.00    -0.153 OA
ATOM     15  O   UNL     1       8.637   3.363  23.319  0.00  0.00    -0.153 OA
BRANCH  13  16
ATOM     16  N   UNL     1       9.883   2.073  21.555  0.00  0.00    -0.203 NA
ATOM     17  H   UNL     1      10.856   1.943  21.277  0.00  0.00    +0.144 HD
ATOM     18  H   UNL     1       9.255   1.324  21.271  0.00  0.00    +0.144 HD
ENDBRANCH  13  16
ENDBRANCH   4  13
BRANCH   1  19
ATOM     19  N   UNL     1       5.710  -0.795  25.800  0.00  0.00    -0.309 NA
ATOM     20  H   UNL     1       5.792  -0.252  24.940  0.00  0.00    +0.122 HD
BRANCH  19  22
ATOM     21  C   UNL     1       4.770   1.430  26.207  0.00  0.00    +0.020 C 
ATOM     22  C   UNL     1       5.038   0.052  26.794  0.00  0.00    +0.078 C 
ENDBRANCH  19  22
ENDBRANCH   1  19
TORSDOF 4
ENDMDL
MODEL 9
REMARK VINA RESULT:      -5.3      2.887      5.733
REMARK  Name = 
REMARK  6 active torsions:
REMARK  status: ('A' for Active; 'I' for Inactive)
REMARK    1  A    between atoms: C_1  and  C_2
REMARK    2  A    between atoms: C_2  and  N_3
REMARK    3  A    between atoms: N_3  and  C_4
REMARK    4  A    between atoms: C_7  and  C_9
REMARK    5  A    between atoms: C_16  and  S_18
REMARK    6  A    between atoms: S_18  and  N_19
REMARK                            x       y       z     vdW  Elec       q    Type
REMARK                         _______ _______ _______ _____ _____    ______ ____
ROOT
ATOM      1  C   UNL     1       6.508  -0.169  23.797  0.00  0.00    +0.088 C 
ATOM      2  C   UNL     1       6.665  -1.612  23.411  0.00  0.00    +0.004 A 
ATOM      3  C   UNL     1       5.615  -2.598  23.356  0.00  0.00    +0.043 A 
ATOM      4  C   UNL     1       6.090  -3.870  23.089  0.00  0.00    +0.144 A 
ATOM      5  S   UNL     1       7.771  -3.861  22.802  0.00  0.00    -0.050 S 
ATOM      6  C   UNL     1       7.869  -2.189  23.083  0.00  0.00    +0.132 A 
ATOM      7  S   UNL     1       9.458  -1.459  22.974  0.00  0.00    +0.006 S 
ATOM      8  O   UNL     1      10.126  -1.843  24.202  0.00  0.00    -0.169 OA
ATOM      9  O   UNL     1       9.963  -1.835  21.670  0.00  0.00    -0.169 OA
ATOM     10  C   UNL     1       9.109   0.284  23.015  0.00  0.00    +0.135 C 
ATOM     11  C   UNL     1       9.438   0.961  21.684  0.00  0.00    +0.032 C 
ATOM     12  C   UNL     1       7.734   0.751  23.543  0.00  0.00    +0.049 C 
ENDROOT
BRANCH   4  13
ATOM     13  S   UNL     1       5.309  -5.466  23.063  0.00  0.00    +0.062 S 
ATOM     14  O   UNL     1       6.210  -6.344  22.355  0.00  0.00    -0.153 OA
ATOM     15  O   UNL     1       3.957  -5.201  22.633  0.00  0.00    -0.153 OA
BRANCH  13  16
ATOM     16  N   UNL     1       5.230  -5.973  24.661  0.00  0.00    -0.203 NA
ATOM     17  H   UNL     1       5.573  -5.262  25.306  0.00  0.00    +0.144 HD
ATOM     18  H   UNL     1       4.318  -6.358  24.897  0.00  0.00    +0.144 HD
ENDBRANCH  13  16
ENDBRANCH   4  13
BRANCH   1  19
ATOM     19  N   UNL     1       6.127  -0.159  25.221  0.00  0.00    -0.309 NA
ATOM     20  H   UNL     1       5.385   0.525  25.368  0.00  0.00    +0.122 HD
BRANCH  19  22
ATOM     21  C   UNL     1       7.758  -1.068  26.806  0.00  0.00    +0.020 C 
ATOM     22  C   UNL     1       7.234   0.187  26.122  0.00  0.00    +0.078 C 
ENDBRANCH  19  22
ENDBRANCH   1  19
TORSDOF 4
ENDMDL
