MODEL 1
REMARK VINA RESULT:      -4.0      0.000      0.000
REMARK  Name = 
REMARK  10 active torsions:
REMARK  status: ('A' for Active; 'I' for Inactive)
REMARK    1  A    between atoms: O_1  and  C_2
REMARK    2  A    between atoms: C_2  and  C_3
REMARK    3  A    between atoms: C_3  and  O_5
REMARK    4  A    between atoms: C_3  and  C_6
REMARK    5  A    between atoms: C_6  and  O_8
REMARK    6  A    between atoms: C_6  and  C_9
REMARK    7  A    between atoms: C_9  and  O_11
REMARK    8  A    between atoms: C_9  and  C_12
REMARK    9  A    between atoms: C_12  and  O_14
REMARK   10  A    between atoms: C_12  and  C_15
REMARK                            x       y       z     vdW  Elec       q    Type
REMARK                         _______ _______ _______ _____ _____    ______ ____
ROOT
ATOM      1  C   UNL     1       8.873  -1.303  22.152  0.00  0.00    +0.176 C 
ENDROOT
BRANCH   1   2
ATOM      2  O   UNL     1      10.171  -1.622  21.626  0.00  0.00    -0.386 OA
ATOM      3  H   UNL     1      10.827  -1.416  22.322  0.00  0.00    +0.210 HD
ENDBRANCH   1   2
BRANCH   1   4
ATOM      4  C   UNL     1       8.651  -2.076  23.466  0.00  0.00    +0.171 C 
BRANCH   4   5
ATOM      5  O   UNL     1       9.842  -2.067  24.276  0.00  0.00    -0.387 OA
ATOM      6  H   UNL     1      10.239  -2.951  24.132  0.00  0.00    +0.210 HD
ENDBRANCH   4   5
BRANCH   4   7
ATOM      7  C   UNL     1       8.231  -3.525  23.202  0.00  0.00    +0.189 C 
BRANCH   7   8
ATOM      8  O   UNL     1       8.973  -4.375  24.083  0.00  0.00    -0.392 OA
ATOM      9  H   UNL     1       9.629  -3.807  24.524  0.00  0.00    +0.210 HD
ENDBRANCH   7   8
ENDBRANCH   4   7
ENDBRANCH   1   4
BRANCH   1  10
ATOM     10  C   UNL     1       8.703   0.228  22.355  0.00  0.00    +0.181 C 
BRANCH  10  11
ATOM     11  O   UNL     1       8.109   0.505  23.639  0.00  0.00    -0.386 OA
ATOM     12  H   UNL     1       7.578  -0.294  23.865  0.00  0.00    +0.210 HD
ENDBRANCH  10  11
BRANCH  10  13
ATOM     13  C   UNL     1      10.038   0.987  22.325  0.00  0.00    +0.208 C 
BRANCH  13  14
ATOM     14  C   UNL     1      10.501   1.385  23.716  0.00  0.00    +0.257 C 
ATOM     15  O   UNL     1      10.940   0.593  24.545  0.00  0.00    -0.298 OA
ENDBRANCH  13  14
BRANCH  13  16
ATOM     16  O   UNL     1       9.910   2.145  21.494  0.00  0.00    -0.382 OA
ATOM     17  H   UNL     1      10.190   2.885  22.076  0.00  0.00    +0.210 HD
ENDBRANCH  13  16
ENDBRANCH  10  13
ENDBRANCH   1  10
TORSDOF 10
ENDMDL
MODEL 2
REMARK VINA RESULT:      -4.0      1.771      4.706
REMARK  Name = 
REMARK  10 active torsions:
REMARK  status: ('A' for Active; 'I' for Inactive)
REMARK    1  A    between atoms: O_1  and  C_2
REMARK    2  A    between atoms: C_2  and  C_3
REMARK    3  A    between atoms: C_3  and  O_5
REMARK    4  A    between atoms: C_3  and  C_6
REMARK    5  A    between atoms: C_6  and  O_8
REMARK    6  A    between atoms: C_6  and  C_9
REMARK    7  A    between atoms: C_9  and  O_11
REMARK    8  A    between atoms: C_9  and  C_12
REMARK    9  A    between atoms: C_12  and  O_14
REMARK   10  A    between atoms: C_12  and  C_15
REMARK                            x       y       z     vdW  Elec       q    Type
REMARK                         _______ _______ _______ _____ _____    ______ ____
ROOT
ATOM      1  C   UNL     1      10.244   1.827  22.757  0.00  0.00    +0.176 C 
ENDROOT
BRANCH   1   2
ATOM      2  O   UNL     1       9.724   2.126  21.452  0.00  0.00    -0.386 OA
ATOM      3  H   UNL     1       9.898   1.350  20.883  0.00  0.00    +0.210 HD
ENDBRANCH   1   2
BRANCH   1   4
ATOM      4  C   UNL     1       9.420   2.576  23.820  0.00  0.00    +0.171 C 
BRANCH   4   5
ATOM      5  O   UNL     1       8.009   2.376  23.613  0.00  0.00    -0.387 OA
ATOM      6  H   UNL     1       7.962   1.696  22.908  0.00  0.00    +0.210 HD
ENDBRANCH   4   5
BRANCH   4   7
ATOM      7  C   UNL     1       9.722   4.078  23.811  0.00  0.00    +0.189 C 
BRANCH   7   8
ATOM      8  O   UNL     1      10.959   4.284  23.122  0.00  0.00    -0.392 OA
ATOM      9  H   UNL     1      11.595   3.654  23.508  0.00  0.00    +0.210 HD
ENDBRANCH   7   8
ENDBRANCH   4   7
ENDBRANCH   1   4
BRANCH   1  10
ATOM     10  C   UNL     1      10.262   0.296  23.023  0.00  0.00    +0.181 C 
BRANCH  10  11
ATOM     11  O   UNL     1       9.678  -0.000  24.308  0.00  0.00    -0.386 OA
ATOM     12  H   UNL     1      10.140  -0.810  24.630  0.00  0.00    +0.210 HD
ENDBRANCH  10  11
BRANCH  10  13
ATOM     13  C   UNL     1       9.453  -0.500  21.989  0.00  0.00    +0.208 C 
BRANCH  13  14
ATOM     14  C   UNL     1       8.149  -1.025  22.564  0.00  0.00    +0.257 C 
ATOM     15  O   UNL     1       7.181  -0.316  22.827  0.00  0.00    -0.298 OA
ENDBRANCH  13  14
BRANCH  13  16
ATOM     16  O   UNL     1      10.248  -1.583  21.492  0.00  0.00    -0.382 OA
ATOM     17  H   UNL     1      11.159  -1.361  21.788  0.00  0.00    +0.210 HD
ENDBRANCH  13  16
ENDBRANCH  10  13
ENDBRANCH   1  10
TORSDOF 10
ENDMDL
MODEL 3
REMARK VINA RESULT:      -4.0      2.649      4.546
REMARK  Name = 
REMARK  10 active torsions:
REMARK  status: ('A' for Active; 'I' for Inactive)
REMARK    1  A    between atoms: O_1  and  C_2
REMARK    2  A    between atoms: C_2  and  C_3
REMARK    3  A    between atoms: C_3  and  O_5
REMARK    4  A    between atoms: C_3  and  C_6
REMARK    5  A    between atoms: C_6  and  O_8
REMARK    6  A    between atoms: C_6  and  C_9
REMARK    7  A    between atoms: C_9  and  O_11
REMARK    8  A    between atoms: C_9  and  C_12
REMARK    9  A    between atoms: C_12  and  O_14
REMARK   10  A    between atoms: C_12  and  C_15
REMARK                            x       y       z     vdW  Elec       q    Type
REMARK                         _______ _______ _______ _____ _____    ______ ____
ROOT
ATOM      1  C   UNL     1       8.495  -5.229  24.906  0.00  0.00    +0.176 C 
ENDROOT
BRANCH   1   2
ATOM      2  O   UNL     1       9.820  -5.766  24.767  0.00  0.00    -0.386 OA
ATOM      3  H   UNL     1      10.100  -6.083  25.649  0.00  0.00    +0.210 HD
ENDBRANCH   1   2
BRANCH   1   4
ATOM      4  C   UNL     1       8.363  -4.542  26.278  0.00  0.00    +0.171 C 
BRANCH   4   5
ATOM      5  O   UNL     1       9.545  -4.750  27.073  0.00  0.00    -0.387 OA
ATOM      6  H   UNL     1       9.301  -5.475  27.685  0.00  0.00    +0.210 HD
ENDBRANCH   4   5
BRANCH   4   7
ATOM      7  C   UNL     1       7.141  -5.051  27.048  0.00  0.00    +0.189 C 
BRANCH   7   8
ATOM      8  O   UNL     1       7.558  -6.130  27.890  0.00  0.00    -0.392 OA
ATOM      9  H   UNL     1       7.099  -6.008  28.740  0.00  0.00    +0.210 HD
ENDBRANCH   7   8
ENDBRANCH   4   7
ENDBRANCH   1   4
BRANCH   1  10
ATOM     10  C   UNL     1       8.152  -4.256  23.744  0.00  0.00    +0.181 C 
BRANCH  10  11
ATOM     11  O   UNL     1       6.732  -4.006  23.697  0.00  0.00    -0.386 OA
ATOM     12  H   UNL     1       6.554  -3.653  22.793  0.00  0.00    +0.210 HD
ENDBRANCH  10  11
BRANCH  10  13
ATOM     13  C   UNL     1       8.825  -2.884  23.895  0.00  0.00    +0.208 C 
BRANCH  13  14
ATOM     14  C   UNL     1       8.348  -1.893  22.848  0.00  0.00    +0.257 C 
ATOM     15  O   UNL     1       7.345  -1.196  22.971  0.00  0.00    -0.298 OA
ENDBRANCH  13  14
BRANCH  13  16
ATOM     16  O   UNL     1      10.247  -3.040  23.820  0.00  0.00    -0.382 OA
ATOM     17  H   UNL     1      10.595  -2.166  24.103  0.00  0.00    +0.210 HD
ENDBRANCH  13  16
ENDBRANCH  10  13
ENDBRANCH   1  10
TORSDOF 10
ENDMDL
MODEL 4
REMARK VINA RESULT:      -4.0      1.670      2.791
REMARK  Name = 
REMARK  10 active torsions:
REMARK  status: ('A' for Active; 'I' for Inactive)
REMARK    1  A    between atoms: O_1  and  C_2
REMARK    2  A    between atoms: C_2  and  C_3
REMARK    3  A    between atoms: C_3  and  O_5
REMARK    4  A    between atoms: C_3  and  C_6
REMARK    5  A    between atoms: C_6  and  O_8
REMARK    6  A    between atoms: C_6  and  C_9
REMARK    7  A    between atoms: C_9  and  O_11
REMARK    8  A    between atoms: C_9  and  C_12
REMARK    9  A    between atoms: C_12  and  O_14
REMARK   10  A    between atoms: C_12  and  C_15
REMARK                            x       y       z     vdW  Elec       q    Type
REMARK                         _______ _______ _______ _____ _____    ______ ____
ROOT
ATOM      1  C   UNL     1      10.174   0.592  22.500  0.00  0.00    +0.176 C 
ENDROOT
BRANCH   1   2
ATOM      2  O   UNL     1      10.517   0.348  23.873  0.00  0.00    -0.386 OA
ATOM      3  H   UNL     1       9.739   0.587  24.415  0.00  0.00    +0.210 HD
ENDBRANCH   1   2
BRANCH   1   4
ATOM      4  C   UNL     1       8.793  -0.021  22.201  0.00  0.00    +0.171 C 
BRANCH   4   5
ATOM      5  O   UNL     1       7.885   0.200  23.297  0.00  0.00    -0.387 OA
ATOM      6  H   UNL     1       8.375   0.796  23.901  0.00  0.00    +0.210 HD
ENDBRANCH   4   5
BRANCH   4   7
ATOM      7  C   UNL     1       8.892  -1.524  21.924  0.00  0.00    +0.189 C 
BRANCH   7   8
ATOM      8  O   UNL     1      10.273  -1.864  21.774  0.00  0.00    -0.392 OA
ATOM      9  H   UNL     1      10.687  -1.719  22.643  0.00  0.00    +0.210 HD
ENDBRANCH   7   8
ENDBRANCH   4   7
ENDBRANCH   1   4
BRANCH   1  10
ATOM     10  C   UNL     1      10.210   2.109  22.166  0.00  0.00    +0.181 C 
BRANCH  10  11
ATOM     11  O   UNL     1       8.920   2.555  21.702  0.00  0.00    -0.386 OA
ATOM     12  H   UNL     1       8.755   2.066  20.861  0.00  0.00    +0.210 HD
ENDBRANCH  10  11
BRANCH  10  13
ATOM     13  C   UNL     1      10.554   2.980  23.383  0.00  0.00    +0.208 C 
BRANCH  13  14
ATOM     14  C   UNL     1       9.312   3.453  24.118  0.00  0.00    +0.257 C 
ATOM     15  O   UNL     1       8.565   2.710  24.750  0.00  0.00    -0.298 OA
ENDBRANCH  13  14
BRANCH  13  16
ATOM     16  O   UNL     1      11.338   4.102  22.961  0.00  0.00    -0.382 OA
ATOM     17  H   UNL     1      11.507   3.926  22.009  0.00  0.00    +0.210 HD
ENDBRANCH  13  16
ENDBRANCH  10  13
ENDBRANCH   1  10
TORSDOF 10
ENDMDL
MODEL 5
REMARK VINA RESULT:      -4.0      1.512      4.528
REMARK  Name = 
REMARK  10 active torsions:
REMARK  status: ('A' for Active; 'I' for Inactive)
REMARK    1  A    between atoms: O_1  and  C_2
REMARK    2  A    between atoms: C_2  and  C_3
REMARK    3  A    between atoms: C_3  and  O_5
REMARK    4  A    between atoms: C_3  and  C_6
REMARK    5  A    between atoms: C_6  and  O_8
REMARK    6  A    between atoms: C_6  and  C_9
REMARK    7  A    between atoms: C_9  and  O_11
REMARK    8  A    between atoms: C_9  and  C_12
REMARK    9  A    between atoms: C_12  and  O_14
REMARK   10  A    between atoms: C_12  and  C_15
REMARK                            x       y       z     vdW  Elec       q    Type
REMARK                         _______ _______ _______ _____ _____    ______ ____
ROOT
ATOM      1  C   UNL     1       9.257   1.183  23.470  0.00  0.00    +0.176 C 
ENDROOT
BRANCH   1   2
ATOM      2  O   UNL     1       9.837   2.280  24.194  0.00  0.00    -0.386 OA
ATOM      3  H   UNL     1      10.810   2.189  24.131  0.00  0.00    +0.210 HD
ENDBRANCH   1   2
BRANCH   1   4
ATOM      4  C   UNL     1       9.046   1.594  22.001  0.00  0.00    +0.171 C 
BRANCH   4   5
ATOM      5  O   UNL     1      10.200   2.289  21.491  0.00  0.00    -0.387 OA
ATOM      6  H   UNL     1       9.852   3.162  21.212  0.00  0.00    +0.210 HD
ENDBRANCH   4   5
BRANCH   4   7
ATOM      7  C   UNL     1       7.809   2.482  21.837  0.00  0.00    +0.189 C 
BRANCH   7   8
ATOM      8  O   UNL     1       8.172   3.825  22.172  0.00  0.00    -0.392 OA
ATOM      9  H   UNL     1       7.713   4.033  23.006  0.00  0.00    +0.210 HD
ENDBRANCH   7   8
ENDBRANCH   4   7
ENDBRANCH   1   4
BRANCH   1  10
ATOM     10  C   UNL     1      10.130  -0.098  23.585  0.00  0.00    +0.181 C 
BRANCH  10  11
ATOM     11  O   UNL     1      10.235  -0.517  24.961  0.00  0.00    -0.386 OA
ATOM     12  H   UNL     1      10.767   0.180  25.411  0.00  0.00    +0.210 HD
ENDBRANCH  10  11
BRANCH  10  13
ATOM     13  C   UNL     1       9.544  -1.291  22.815  0.00  0.00    +0.208 C 
BRANCH  13  14
ATOM     14  C   UNL     1       9.313  -2.494  23.714  0.00  0.00    +0.257 C 
ATOM     15  O   UNL     1      10.186  -3.303  24.014  0.00  0.00    -0.298 OA
ENDBRANCH  13  14
BRANCH  13  16
ATOM     16  O   UNL     1      10.418  -1.638  21.736  0.00  0.00    -0.382 OA
ATOM     17  H   UNL     1      10.048  -1.151  20.967  0.00  0.00    +0.210 HD
ENDBRANCH  13  16
ENDBRANCH  10  13
ENDBRANCH   1  10
TORSDOF 10
ENDMDL
MODEL 6
REMARK VINA RESULT:      -4.0      2.170      3.973
REMARK  Name = 
REMARK  10 active torsions:
REMARK  status: ('A' for Active; 'I' for Inactive)
REMARK    1  A    between atoms: O_1  and  C_2
REMARK    2  A    between atoms: C_2  and  C_3
REMARK    3  A    between atoms: C_3  and  O_5
REMARK    4  A    between atoms: C_3  and  C_6
REMARK    5  A    between atoms: C_6  and  O_8
REMARK    6  A    between atoms: C_6  and  C_9
REMARK    7  A    between atoms: C_9  and  O_11
REMARK    8  A    between atoms: C_9  and  C_12
REMARK    9  A    between atoms: C_12  and  O_14
REMARK   10  A    between atoms: C_12  and  C_15
REMARK                            x       y       z     vdW  Elec       q    Type
REMARK                         _______ _______ _______ _____ _____    ______ ____
ROOT
ATOM      1  C   UNL     1       8.303  -4.217  24.483  0.00  0.00    +0.176 C 
ENDROOT
BRANCH   1   2
ATOM      2  O   UNL     1       8.263  -5.261  23.496  0.00  0.00    -0.386 OA
ATOM      3  H   UNL     1       8.545  -4.868  22.645  0.00  0.00    +0.210 HD
ENDBRANCH   1   2
BRANCH   1   4
ATOM      4  C   UNL     1       9.106  -4.700  25.706  0.00  0.00    +0.171 C 
BRANCH   4   5
ATOM      5  O   UNL     1      10.070  -5.700  25.326  0.00  0.00    -0.387 OA
ATOM      6  H   UNL     1      10.888  -5.191  25.144  0.00  0.00    +0.210 HD
ENDBRANCH   4   5
BRANCH   4   7
ATOM      7  C   UNL     1       8.188  -5.271  26.791  0.00  0.00    +0.189 C 
BRANCH   7   8
ATOM      8  O   UNL     1       7.040  -5.841  26.155  0.00  0.00    -0.392 OA
ATOM      9  H   UNL     1       6.600  -6.393  26.827  0.00  0.00    +0.210 HD
ENDBRANCH   7   8
ENDBRANCH   4   7
ENDBRANCH   1   4
BRANCH   1  10
ATOM     10  C   UNL     1       8.891  -2.904  23.897  0.00  0.00    +0.181 C 
BRANCH  10  11
ATOM     11  O   UNL     1      10.328  -2.986  23.811  0.00  0.00    -0.386 OA
ATOM     12  H   UNL     1      10.562  -3.891  24.127  0.00  0.00    +0.210 HD
ENDBRANCH  10  11
BRANCH  10  13
ATOM     13  C   UNL     1       8.392  -2.608  22.475  0.00  0.00    +0.208 C 
BRANCH  13  14
ATOM     14  C   UNL     1       8.795  -1.222  22.003  0.00  0.00    +0.257 C 
ATOM     15  O   UNL     1       9.950  -0.897  21.740  0.00  0.00    -0.298 OA
ENDBRANCH  13  14
BRANCH  13  16
ATOM     16  O   UNL     1       6.968  -2.753  22.429  0.00  0.00    -0.382 OA
ATOM     17  H   UNL     1       6.834  -3.709  22.245  0.00  0.00    +0.210 HD
ENDBRANCH  13  16
ENDBRANCH  10  13
ENDBRANCH   1  10
TORSDOF 10
ENDMDL
MODEL 7
REMARK VINA RESULT:      -3.9      1.424      4.432
REMARK  Name = 
REMARK  10 active torsions:
REMARK  status: ('A' for Active; 'I' for Inactive)
REMARK    1  A    between atoms: O_1  and  C_2
REMARK    2  A    between atoms: C_2  and  C_3
REMARK    3  A    between atoms: C_3  and  O_5
REMARK    4  A    between atoms: C_3  and  C_6
REMARK    5  A    between atoms: C_6  and  O_8
REMARK    6  A    between atoms: C_6  and  C_9
REMARK    7  A    between atoms: C_9  and  O_11
REMARK    8  A    between atoms: C_9  and  C_12
REMARK    9  A    between atoms: C_12  and  O_14
REMARK   10  A    between atoms: C_12  and  C_15
REMARK                            x       y       z     vdW  Elec       q    Type
REMARK                         _______ _______ _______ _____ _____    ______ ____
ROOT
ATOM      1  C   UNL     1      10.232  -0.266  23.156  0.00  0.00    +0.176 C 
ENDROOT
BRANCH   1   2
ATOM      2  O   UNL     1      10.123  -0.752  21.808  0.00  0.00    -0.386 OA
ATOM      3  H   UNL     1       9.427  -0.228  21.365  0.00  0.00    +0.210 HD
ENDBRANCH   1   2
BRANCH   1   4
ATOM      4  C   UNL     1       9.346   0.982  23.323  0.00  0.00    +0.171 C 
BRANCH   4   5
ATOM      5  O   UNL     1       8.099   0.825  22.619  0.00  0.00    -0.387 OA
ATOM      6  H   UNL     1       8.045   1.616  22.043  0.00  0.00    +0.210 HD
ENDBRANCH   4   5
BRANCH   4   7
ATOM      7  C   UNL     1      10.052   2.245  22.820  0.00  0.00    +0.189 C 
BRANCH   7   8
ATOM      8  O   UNL     1      10.055   2.219  21.390  0.00  0.00    -0.392 OA
ATOM      9  H   UNL     1       9.987   1.283  21.132  0.00  0.00    +0.210 HD
ENDBRANCH   7   8
ENDBRANCH   4   7
ENDBRANCH   1   4
BRANCH   1  10
ATOM     10  C   UNL     1       9.867  -1.369  24.188  0.00  0.00    +0.181 C 
BRANCH  10  11
ATOM     11  O   UNL     1       8.726  -0.967  24.974  0.00  0.00    -0.386 OA
ATOM     12  H   UNL     1       7.943  -1.082  24.386  0.00  0.00    +0.210 HD
ENDBRANCH  10  11
BRANCH  10  13
ATOM     13  C   UNL     1       9.486  -2.702  23.529  0.00  0.00    +0.208 C 
BRANCH  13  14
ATOM     14  C   UNL     1       7.991  -2.812  23.280  0.00  0.00    +0.257 C 
ATOM     15  O   UNL     1       7.364  -2.066  22.532  0.00  0.00    -0.298 OA
ENDBRANCH  13  14
BRANCH  13  16
ATOM     16  O   UNL     1       9.933  -3.786  24.351  0.00  0.00    -0.382 OA
ATOM     17  H   UNL     1       9.277  -4.497  24.181  0.00  0.00    +0.210 HD
ENDBRANCH  13  16
ENDBRANCH  10  13
ENDBRANCH   1  10
TORSDOF 10
ENDMDL
MODEL 8
REMARK VINA RESULT:      -3.9      1.948      3.145
REMARK  Name = 
REMARK  10 active torsions:
REMARK  status: ('A' for Active; 'I' for Inactive)
REMARK    1  A    between atoms: O_1  and  C_2
REMARK    2  A    between atoms: C_2  and  C_3
REMARK    3  A    between atoms: C_3  and  O_5
REMARK    4  A    between atoms: C_3  and  C_6
REMARK    5  A    between atoms: C_6  and  O_8
REMARK    6  A    between atoms: C_6  and  C_9
REMARK    7  A    between atoms: C_9  and  O_11
REMARK    8  A    between atoms: C_9  and  C_12
REMARK    9  A    between atoms: C_12  and  O_14
REMARK   10  A    between atoms: C_12  and  C_15
REMARK                            x       y       z     vdW  Elec       q    Type
REMARK                         _______ _______ _______ _____ _____    ______ ____
ROOT
ATOM      1  C   UNL     1       9.166  -3.629  24.608  0.00  0.00    +0.176 C 
ENDROOT
BRANCH   1   2
ATOM      2  O   UNL     1       8.826  -2.988  25.847  0.00  0.00    -0.386 OA
ATOM      3  H   UNL     1       9.663  -2.744  26.289  0.00  0.00    +0.210 HD
ENDBRANCH   1   2
BRANCH   1   4
ATOM      4  C   UNL     1       8.356  -4.932  24.466  0.00  0.00    +0.171 C 
BRANCH   4   5
ATOM      5  O   UNL     1       7.504  -4.883  23.306  0.00  0.00    -0.387 OA
ATOM      6  H   UNL     1       7.439  -3.928  23.093  0.00  0.00    +0.210 HD
ENDBRANCH   4   5
BRANCH   4   7
ATOM      7  C   UNL     1       7.502  -5.202  25.708  0.00  0.00    +0.189 C 
BRANCH   7   8
ATOM      8  O   UNL     1       8.324  -5.842  26.688  0.00  0.00    -0.392 OA
ATOM      9  H   UNL     1       9.234  -5.816  26.342  0.00  0.00    +0.210 HD
ENDBRANCH   7   8
ENDBRANCH   4   7
ENDBRANCH   1   4
BRANCH   1  10
ATOM     10  C   UNL     1       8.940  -2.681  23.397  0.00  0.00    +0.181 C 
BRANCH  10  11
ATOM     11  O   UNL     1       7.846  -1.779  23.659  0.00  0.00    -0.386 OA
ATOM     12  H   UNL     1       8.078  -0.938  23.200  0.00  0.00    +0.210 HD
ENDBRANCH  10  11
BRANCH  10  13
ATOM     13  C   UNL     1      10.160  -1.800  23.093  0.00  0.00    +0.208 C 
BRANCH  13  14
ATOM     14  C   UNL     1      10.073  -0.446  23.775  0.00  0.00    +0.257 C 
ATOM     15  O   UNL     1      10.036  -0.293  24.993  0.00  0.00    -0.298 OA
ENDBRANCH  13  14
BRANCH  13  16
ATOM     16  O   UNL     1      10.287  -1.635  21.676  0.00  0.00    -0.382 OA
ATOM     17  H   UNL     1      10.850  -2.391  21.400  0.00  0.00    +0.210 HD
ENDBRANCH  13  16
ENDBRANCH  10  13
ENDBRANCH   1  10
TORSDOF 10
ENDMDL
MODEL 9
REMARK VINA RESULT:      -3.9      1.376      4.485
REMARK  Name = 
REMARK  10 active torsions:
REMARK  status: ('A' for Active; 'I' for Inactive)
REMARK    1  A    between atoms: O_1  and  C_2
REMARK    2  A    between atoms: C_2  and  C_3
REMARK    3  A    between atoms: C_3  and  O_5
REMARK    4  A    between atoms: C_3  and  C_6
REMARK    5  A    between atoms: C_6  and  O_8
REMARK    6  A    between atoms: C_6  and  C_9
REMARK    7  A    between atoms: C_9  and  O_11
REMARK    8  A    between atoms: C_9  and  C_12
REMARK    9  A    between atoms: C_12  and  O_14
REMARK   10  A    between atoms: C_12  and  C_15
REMARK                            x       y       z     vdW  Elec       q    Type
REMARK                         _______ _______ _______ _____ _____    ______ ____
ROOT
ATOM      1  C   UNL     1       9.163   0.081  23.071  0.00  0.00    +0.176 C 
ENDROOT
BRANCH   1   2
ATOM      2  O   UNL     1      10.581   0.087  23.307  0.00  0.00    -0.386 OA
ATOM      3  H   UNL     1      10.836   1.005  23.529  0.00  0.00    +0.210 HD
ENDBRANCH   1   2
BRANCH   1   4
ATOM      4  C   UNL     1       8.750   1.409  22.409  0.00  0.00    +0.171 C 
BRANCH   4   5
ATOM      5  O   UNL     1       9.020   1.384  20.994  0.00  0.00    -0.387 OA
ATOM      6  H   UNL     1       8.498   2.131  20.635  0.00  0.00    +0.210 HD
ENDBRANCH   4   5
BRANCH   4   7
ATOM      7  C   UNL     1       9.474   2.602  23.039  0.00  0.00    +0.189 C 
BRANCH   7   8
ATOM      8  O   UNL     1      10.652   2.870  22.272  0.00  0.00    -0.392 OA
ATOM      9  H   UNL     1      10.496   2.490  21.389  0.00  0.00    +0.210 HD
ENDBRANCH   7   8
ENDBRANCH   4   7
ENDBRANCH   1   4
BRANCH   1  10
ATOM     10  C   UNL     1       8.735  -1.142  22.214  0.00  0.00    +0.181 C 
BRANCH  10  11
ATOM     11  O   UNL     1       9.870  -1.695  21.519  0.00  0.00    -0.386 OA
ATOM     12  H   UNL     1      10.435  -0.924  21.275  0.00  0.00    +0.210 HD
ENDBRANCH  10  11
BRANCH  10  13
ATOM     13  C   UNL     1       8.148  -2.285  23.056  0.00  0.00    +0.208 C 
BRANCH  13  14
ATOM     14  C   UNL     1       9.138  -2.806  24.083  0.00  0.00    +0.257 C 
ATOM     15  O   UNL     1      10.317  -3.047  23.837  0.00  0.00    -0.298 OA
ENDBRANCH  13  14
BRANCH  13  16
ATOM     16  O   UNL     1       7.724  -3.345  22.192  0.00  0.00    -0.382 OA
ATOM     17  H   UNL     1       7.366  -4.022  22.808  0.00  0.00    +0.210 HD
ENDBRANCH  13  16
ENDBRANCH  10  13
ENDBRANCH   1  10
TORSDOF 10
ENDMDL
