MODEL 1
REMARK VINA RESULT:      -3.8      0.000      0.000
REMARK  Name = 
REMARK  4 active torsions:
REMARK  status: ('A' for Active; 'I' for Inactive)
REMARK    1  A    between atoms: O_1  and  N_2
REMARK    2  A    between atoms: N_2  and  C_3
REMARK    3  A    between atoms: C_3  and  C_4
REMARK    4  A    between atoms: C_4  and  O_5
REMARK                            x       y       z     vdW  Elec       q    Type
REMARK                         _______ _______ _______ _____ _____    ______ ____
ROOT
ATOM      1  N   UNL     1       7.471  -5.187  26.759  0.00  0.00    -0.176 N 
ATOM      2  C   UNL     1       6.423  -5.437  25.912  0.00  0.00    +0.353 C 
ATOM      3  O   UNL     1       6.148  -4.765  24.925  0.00  0.00    -0.277 OA
ENDROOT
BRANCH   1   4
ATOM      4  O   UNL     1       7.695  -6.127  27.783  0.00  0.00    -0.292 OA
ATOM      5  H   UNL     1       8.304  -6.790  27.404  0.00  0.00    +0.242 HD
ENDBRANCH   1   4
BRANCH   1   6
ATOM      6  C   UNL     1       8.570  -4.266  26.434  0.00  0.00    +0.259 C 
BRANCH   6   7
ATOM      7  C   UNL     1       9.561  -4.817  25.427  0.00  0.00    +0.325 C 
ATOM      8  O   UNL     1      10.018  -4.154  24.501  0.00  0.00    -0.249 OA
BRANCH   7   9
ATOM      9  O   UNL     1       9.908  -6.108  25.609  0.00  0.00    -0.479 OA
ATOM     10  H   UNL     1       9.226  -6.605  26.107  0.00  0.00    +0.295 HD
ENDBRANCH   7   9
ENDBRANCH   6   7
ENDBRANCH   1   6
TORSDOF 4
ENDMDL
MODEL 2
REMARK VINA RESULT:      -3.8      5.519      6.752
REMARK  Name = 
REMARK  4 active torsions:
REMARK  status: ('A' for Active; 'I' for Inactive)
REMARK    1  A    between atoms: O_1  and  N_2
REMARK    2  A    between atoms: N_2  and  C_3
REMARK    3  A    between atoms: C_3  and  C_4
REMARK    4  A    between atoms: C_4  and  O_5
REMARK                            x       y       z     vdW  Elec       q    Type
REMARK                         _______ _______ _______ _____ _____    ______ ____
ROOT
ATOM      1  N   UNL     1      10.178  -1.097  22.776  0.00  0.00    -0.176 N 
ATOM      2  C   UNL     1       9.643  -1.986  23.673  0.00  0.00    +0.353 C 
ATOM      3  O   UNL     1       9.399  -1.732  24.846  0.00  0.00    -0.277 OA
ENDROOT
BRANCH   1   4
ATOM      4  O   UNL     1      10.293  -1.535  21.443  0.00  0.00    -0.292 OA
ATOM      5  H   UNL     1       9.384  -1.535  21.086  0.00  0.00    +0.242 HD
ENDBRANCH   1   4
BRANCH   1   6
ATOM      6  C   UNL     1      10.252   0.350  23.022  0.00  0.00    +0.259 C 
BRANCH   6   7
ATOM      7  C   UNL     1       9.719   1.199  21.884  0.00  0.00    +0.325 C 
ATOM      8  O   UNL     1       8.765   0.867  21.188  0.00  0.00    -0.249 OA
BRANCH   7   9
ATOM      9  O   UNL     1      10.377   2.358  21.675  0.00  0.00    -0.479 OA
ATOM     10  H   UNL     1      11.269   2.352  22.078  0.00  0.00    +0.295 HD
ENDBRANCH   7   9
ENDBRANCH   6   7
ENDBRANCH   1   6
TORSDOF 4
ENDMDL
MODEL 3
REMARK VINA RESULT:      -3.6      6.476      7.415
REMARK  Name = 
REMARK  4 active torsions:
REMARK  status: ('A' for Active; 'I' for Inactive)
REMARK    1  A    between atoms: O_1  and  N_2
REMARK    2  A    between atoms: N_2  and  C_3
REMARK    3  A    between atoms: C_3  and  C_4
REMARK    4  A    between atoms: C_4  and  O_5
REMARK                            x       y       z     vdW  Elec       q    Type
REMARK                         _______ _______ _______ _____ _____    ______ ____
ROOT
ATOM      1  N   UNL     1       9.090   1.566  21.554  0.00  0.00    -0.176 N 
ATOM      2  C   UNL     1       7.957   2.181  22.020  0.00  0.00    +0.353 C 
ATOM      3  O   UNL     1       6.858   1.646  22.110  0.00  0.00    -0.277 OA
ENDROOT
BRANCH   1   4
ATOM      4  O   UNL     1      10.285   2.308  21.620  0.00  0.00    -0.292 OA
ATOM      5  H   UNL     1      10.148   2.965  22.328  0.00  0.00    +0.242 HD
ENDBRANCH   1   4
BRANCH   1   6
ATOM      6  C   UNL     1       9.205   0.111  21.380  0.00  0.00    +0.259 C 
BRANCH   6   7
ATOM      7  C   UNL     1      10.147  -0.557  22.362  0.00  0.00    +0.325 C 
ATOM      8  O   UNL     1      10.501  -0.035  23.415  0.00  0.00    -0.249 OA
BRANCH   7   9
ATOM      9  O   UNL     1      10.590  -1.778  21.996  0.00  0.00    -0.479 OA
ATOM     10  H   UNL     1      11.026  -2.247  22.736  0.00  0.00    +0.295 HD
ENDBRANCH   7   9
ENDBRANCH   6   7
ENDBRANCH   1   6
TORSDOF 4
ENDMDL
MODEL 4
REMARK VINA RESULT:      -3.5      5.090      6.270
REMARK  Name = 
REMARK  4 active torsions:
REMARK  status: ('A' for Active; 'I' for Inactive)
REMARK    1  A    between atoms: O_1  and  N_2
REMARK    2  A    between atoms: N_2  and  C_3
REMARK    3  A    between atoms: C_3  and  C_4
REMARK    4  A    between atoms: C_4  and  O_5
REMARK                            x       y       z     vdW  Elec       q    Type
REMARK                         _______ _______ _______ _____ _____    ______ ____
ROOT
ATOM      1  N   UNL     1      10.117   0.489  23.944  0.00  0.00    -0.176 N 
ATOM      2  C   UNL     1      10.282   1.502  23.036  0.00  0.00    +0.353 C 
ATOM      3  O   UNL     1       9.965   1.438  21.854  0.00  0.00    -0.277 OA
ENDROOT
BRANCH   1   4
ATOM      4  O   UNL     1      10.444   0.781  25.282  0.00  0.00    -0.292 OA
ATOM      5  H   UNL     1      11.418   0.836  25.310  0.00  0.00    +0.242 HD
ENDBRANCH   1   4
BRANCH   1   6
ATOM      6  C   UNL     1       9.276  -0.691  23.694  0.00  0.00    +0.259 C 
BRANCH   6   7
ATOM      7  C   UNL     1      10.018  -1.858  23.073  0.00  0.00    +0.325 C 
ATOM      8  O   UNL     1      10.279  -2.890  23.682  0.00  0.00    -0.249 OA
BRANCH   7   9
ATOM      9  O   UNL     1      10.390  -1.684  21.787  0.00  0.00    -0.479 OA
ATOM     10  H   UNL     1       9.633  -1.436  21.217  0.00  0.00    +0.295 HD
ENDBRANCH   7   9
ENDBRANCH   6   7
ENDBRANCH   1   6
TORSDOF 4
ENDMDL
MODEL 5
REMARK VINA RESULT:      -3.5      5.709      6.965
REMARK  Name = 
REMARK  4 active torsions:
REMARK  status: ('A' for Active; 'I' for Inactive)
REMARK    1  A    between atoms: O_1  and  N_2
REMARK    2  A    between atoms: N_2  and  C_3
REMARK    3  A    between atoms: C_3  and  C_4
REMARK    4  A    between atoms: C_4  and  O_5
REMARK                            x       y       z     vdW  Elec       q    Type
REMARK                         _______ _______ _______ _____ _____    ______ ____
ROOT
ATOM      1  N   UNL     1       9.778  -0.734  22.447  0.00  0.00    -0.176 N 
ATOM      2  C   UNL     1       9.910  -1.942  23.080  0.00  0.00    +0.353 C 
ATOM      3  O   UNL     1       9.877  -2.100  24.295  0.00  0.00    -0.277 OA
ENDROOT
BRANCH   1   4
ATOM      4  O   UNL     1       9.738  -0.759  21.040  0.00  0.00    -0.292 OA
ATOM      5  H   UNL     1      10.436  -1.384  20.767  0.00  0.00    +0.242 HD
ENDBRANCH   1   4
BRANCH   1   6
ATOM      6  C   UNL     1       9.288   0.480  23.117  0.00  0.00    +0.259 C 
BRANCH   6   7
ATOM      7  C   UNL     1      10.094   1.726  22.807  0.00  0.00    +0.325 C 
ATOM      8  O   UNL     1      10.756   2.325  23.648  0.00  0.00    -0.249 OA
BRANCH   7   9
ATOM      9  O   UNL     1      10.029   2.149  21.527  0.00  0.00    -0.479 OA
ATOM     10  H   UNL     1       9.113   2.362  21.257  0.00  0.00    +0.295 HD
ENDBRANCH   7   9
ENDBRANCH   6   7
ENDBRANCH   1   6
TORSDOF 4
ENDMDL
MODEL 6
REMARK VINA RESULT:      -3.5      6.471      7.325
REMARK  Name = 
REMARK  4 active torsions:
REMARK  status: ('A' for Active; 'I' for Inactive)
REMARK    1  A    between atoms: O_1  and  N_2
REMARK    2  A    between atoms: N_2  and  C_3
REMARK    3  A    between atoms: C_3  and  C_4
REMARK    4  A    between atoms: C_4  and  O_5
REMARK                            x       y       z     vdW  Elec       q    Type
REMARK                         _______ _______ _______ _____ _____    ______ ____
ROOT
ATOM      1  N   UNL     1      10.092   0.853  22.087  0.00  0.00    -0.176 N 
ATOM      2  C   UNL     1       9.293  -0.014  21.387  0.00  0.00    +0.353 C 
ATOM      3  O   UNL     1       9.104  -1.187  21.687  0.00  0.00    -0.277 OA
ENDROOT
BRANCH   1   4
ATOM      4  O   UNL     1      10.106   2.191  21.652  0.00  0.00    -0.292 OA
ATOM      5  H   UNL     1      10.904   2.280  21.097  0.00  0.00    +0.242 HD
ENDBRANCH   1   4
BRANCH   1   6
ATOM      6  C   UNL     1      10.588   0.576  23.443  0.00  0.00    +0.259 C 
BRANCH   6   7
ATOM      7  C   UNL     1       9.792   1.251  24.543  0.00  0.00    +0.325 C 
ATOM      8  O   UNL     1       9.329   2.383  24.440  0.00  0.00    -0.249 OA
BRANCH   7   9
ATOM      9  O   UNL     1       9.628   0.521  25.666  0.00  0.00    -0.479 OA
ATOM     10  H   UNL     1      10.068   0.932  26.438  0.00  0.00    +0.295 HD
ENDBRANCH   7   9
ENDBRANCH   6   7
ENDBRANCH   1   6
TORSDOF 4
ENDMDL
MODEL 7
REMARK VINA RESULT:      -3.4      5.586      6.928
REMARK  Name = 
REMARK  4 active torsions:
REMARK  status: ('A' for Active; 'I' for Inactive)
REMARK    1  A    between atoms: O_1  and  N_2
REMARK    2  A    between atoms: N_2  and  C_3
REMARK    3  A    between atoms: C_3  and  C_4
REMARK    4  A    between atoms: C_4  and  O_5
REMARK                            x       y       z     vdW  Elec       q    Type
REMARK                         _______ _______ _______ _____ _____    ______ ____
ROOT
ATOM      1  N   UNL     1       9.296   0.955  22.449  0.00  0.00    -0.176 N 
ATOM      2  C   UNL     1      10.213   1.760  23.072  0.00  0.00    +0.353 C 
ATOM      3  O   UNL     1      10.577   1.633  24.235  0.00  0.00    -0.277 OA
ENDROOT
BRANCH   1   4
ATOM      4  O   UNL     1       9.078   1.188  21.078  0.00  0.00    -0.292 OA
ATOM      5  H   UNL     1       9.778   0.691  20.611  0.00  0.00    +0.242 HD
ENDBRANCH   1   4
BRANCH   1   6
ATOM      6  C   UNL     1       8.851  -0.336  22.995  0.00  0.00    +0.259 C 
BRANCH   6   7
ATOM      7  C   UNL     1       9.784  -1.491  22.689  0.00  0.00    +0.325 C 
ATOM      8  O   UNL     1      10.136  -2.312  23.530  0.00  0.00    -0.249 OA
BRANCH   7   9
ATOM      9  O   UNL     1      10.220  -1.556  21.413  0.00  0.00    -0.479 OA
ATOM     10  H   UNL     1      10.639  -2.417  21.212  0.00  0.00    +0.295 HD
ENDBRANCH   7   9
ENDBRANCH   6   7
ENDBRANCH   1   6
TORSDOF 4
ENDMDL
MODEL 8
REMARK VINA RESULT:      -3.4      1.883      3.301
REMARK  Name = 
REMARK  4 active torsions:
REMARK  status: ('A' for Active; 'I' for Inactive)
REMARK    1  A    between atoms: O_1  and  N_2
REMARK    2  A    between atoms: N_2  and  C_3
REMARK    3  A    between atoms: C_3  and  C_4
REMARK    4  A    between atoms: C_4  and  O_5
REMARK                            x       y       z     vdW  Elec       q    Type
REMARK                         _______ _______ _______ _____ _____    ______ ____
ROOT
ATOM      1  N   UNL     1       9.157  -4.427  24.591  0.00  0.00    -0.176 N 
ATOM      2  C   UNL     1       9.504  -3.126  24.333  0.00  0.00    +0.353 C 
ATOM      3  O   UNL     1       8.709  -2.225  24.094  0.00  0.00    -0.277 OA
ENDROOT
BRANCH   1   4
ATOM      4  O   UNL     1      10.200  -5.302  24.947  0.00  0.00    -0.292 OA
ATOM      5  H   UNL     1      11.027  -4.823  24.745  0.00  0.00    +0.242 HD
ENDBRANCH   1   4
BRANCH   1   6
ATOM      6  C   UNL     1       7.783  -4.847  24.906  0.00  0.00    +0.259 C 
BRANCH   6   7
ATOM      7  C   UNL     1       7.612  -5.404  26.306  0.00  0.00    +0.325 C 
ATOM      8  O   UNL     1       6.645  -6.076  26.649  0.00  0.00    -0.249 OA
BRANCH   7   9
ATOM      9  O   UNL     1       8.603  -5.099  27.170  0.00  0.00    -0.479 OA
ATOM     10  H   UNL     1       8.871  -5.872  27.708  0.00  0.00    +0.295 HD
ENDBRANCH   7   9
ENDBRANCH   6   7
ENDBRANCH   1   6
TORSDOF 4
ENDMDL
MODEL 9
REMARK VINA RESULT:      -3.3      3.479      4.463
REMARK  Name = 
REMARK  4 active torsions:
REMARK  status: ('A' for Active; 'I' for Inactive)
REMARK    1  A    between atoms: O_1  and  N_2
REMARK    2  A    between atoms: N_2  and  C_3
REMARK    3  A    between atoms: C_3  and  C_4
REMARK    4  A    between atoms: C_4  and  O_5
REMARK                            x       y       z     vdW  Elec       q    Type
REMARK                         _______ _______ _______ _____ _____    ______ ____
ROOT
ATOM      1  N   UNL     1       8.584  -3.112  23.378  0.00  0.00    -0.176 N 
ATOM      2  C   UNL     1       8.216  -4.355  23.823  0.00  0.00    +0.353 C 
ATOM      3  O   UNL     1       8.978  -5.167  24.335  0.00  0.00    -0.277 OA
ENDROOT
BRANCH   1   4
ATOM      4  O   UNL     1       7.551  -2.276  22.912  0.00  0.00    -0.292 OA
ATOM      5  H   UNL     1       7.458  -2.477  21.962  0.00  0.00    +0.242 HD
ENDBRANCH   1   4
BRANCH   1   6
ATOM      6  C   UNL     1       9.865  -2.478  23.723  0.00  0.00    +0.259 C 
BRANCH   6   7
ATOM      7  C   UNL     1      10.251  -1.329  22.813  0.00  0.00    +0.325 C 
ATOM      8  O   UNL     1      10.627  -0.238  23.230  0.00  0.00    -0.249 OA
BRANCH   7   9
ATOM      9  O   UNL     1      10.143  -1.581  21.491  0.00  0.00    -0.479 OA
ATOM     10  H   UNL     1       9.954  -0.769  20.977  0.00  0.00    +0.295 HD
ENDBRANCH   7   9
ENDBRANCH   6   7
ENDBRANCH   1   6
TORSDOF 4
ENDMDL
