MODEL 1
REMARK VINA RESULT:      -7.9      0.000      0.000
REMARK  Name = 
REMARK  6 active torsions:
REMARK  status: ('A' for Active; 'I' for Inactive)
REMARK    1  A    between atoms: C_2  and  N_3
REMARK    2  A    between atoms: C_2  and  C_4
REMARK    3  A    between atoms: C_2  and  C_13
REMARK    4  A    between atoms: C_4  and  C_5
REMARK    5  A    between atoms: C_16  and  C_19
REMARK    6  A    between atoms: C_23  and  C_25
REMARK                            x       y       z     vdW  Elec       q    Type
REMARK                         _______ _______ _______ _____ _____    ______ ____
ROOT
ATOM      1  C   UNL     1       9.029  -3.348  25.411  0.00  0.00    -0.030 A 
ATOM      2  C   UNL     1       9.661  -3.093  24.188  0.00  0.00    +0.006 A 
ATOM      3  C   UNL     1       9.843  -1.778  23.737  0.00  0.00    +0.009 A 
ATOM      4  C   UNL     1       9.392  -0.672  24.480  0.00  0.00    -0.018 A 
ATOM      5  C   UNL     1       8.784  -0.945  25.717  0.00  0.00    +0.009 A 
ATOM      6  C   UNL     1       8.607  -2.254  26.176  0.00  0.00    +0.006 A 
ENDROOT
BRANCH   4   7
ATOM      7  C   UNL     1       9.490   0.718  23.966  0.00  0.00    -0.017 A 
ATOM      8  C   UNL     1       8.391   1.352  23.359  0.00  0.00    +0.021 A 
ATOM      9  C   UNL     1       8.447   2.697  22.957  0.00  0.00    +0.037 A 
ATOM     10  C   UNL     1       9.620   3.432  23.139  0.00  0.00    +0.013 A 
ATOM     11  C   UNL     1      10.729   2.821  23.716  0.00  0.00    +0.001 A 
ATOM     12  C   UNL     1      10.664   1.481  24.117  0.00  0.00    +0.008 A 
BRANCH   9  13
ATOM     13  C   UNL     1       7.236   3.292  22.337  0.00  0.00    +0.242 C 
ATOM     14  O   UNL     1       6.179   2.679  22.269  0.00  0.00    -0.270 OA
ATOM     15  N   UNL     1       7.334   4.578  21.883  0.00  0.00    -0.325 N 
ATOM     16  H   UNL     1       6.470   5.007  21.578  0.00  0.00    +0.145 HD
ATOM     17  H   UNL     1       8.091   5.189  22.156  0.00  0.00    +0.145 HD
ENDBRANCH   9  13
ENDBRANCH   4   7
BRANCH   1  18
ATOM     18  C   UNL     1       8.786  -4.774  25.883  0.00  0.00    +0.086 C 
BRANCH  18  19
ATOM     19  N   UNL     1       9.763  -5.675  25.249  0.00  0.00    -0.323 NA
ATOM     20  H   UNL     1       9.364  -6.614  25.227  0.00  0.00    +0.119 HD
ATOM     21  H   UNL     1       9.880  -5.398  24.276  0.00  0.00    +0.119 HD
ENDBRANCH  18  19
BRANCH  18  22
ATOM     22  C   UNL     1       7.328  -5.202  25.581  0.00  0.00    +0.061 C 
BRANCH  22  23
ATOM     23  C   UNL     1       6.800  -4.821  24.216  0.00  0.00    -0.008 A 
ATOM     24  C   UNL     1       5.993  -3.693  24.038  0.00  0.00    +0.127 A 
ATOM     25  F   UNL     1       5.645  -2.948  25.097  0.00  0.00    -0.205 F 
ATOM     26  C   UNL     1       5.544  -3.312  22.773  0.00  0.00    +0.041 A 
ATOM     27  C   UNL     1       5.910  -4.060  21.655  0.00  0.00    +0.041 A 
ATOM     28  C   UNL     1       6.714  -5.182  21.821  0.00  0.00    +0.124 A 
ATOM     29  F   UNL     1       7.075  -5.898  20.748  0.00  0.00    -0.205 F 
ATOM     30  C   UNL     1       7.158  -5.569  23.083  0.00  0.00    +0.044 A 
ENDBRANCH  22  23
ENDBRANCH  18  22
ENDBRANCH   1  18
TORSDOF 6
ENDMDL
MODEL 2
REMARK VINA RESULT:      -7.5      2.557      3.749
REMARK  Name = 
REMARK  6 active torsions:
REMARK  status: ('A' for Active; 'I' for Inactive)
REMARK    1  A    between atoms: C_2  and  N_3
REMARK    2  A    between atoms: C_2  and  C_4
REMARK    3  A    between atoms: C_2  and  C_13
REMARK    4  A    between atoms: C_4  and  C_5
REMARK    5  A    between atoms: C_16  and  C_19
REMARK    6  A    between atoms: C_23  and  C_25
REMARK                            x       y       z     vdW  Elec       q    Type
REMARK                         _______ _______ _______ _____ _____    ______ ____
ROOT
ATOM      1  C   UNL     1       8.911  -1.114  23.748  0.00  0.00    -0.030 A 
ATOM      2  C   UNL     1       8.541  -0.342  22.640  0.00  0.00    +0.006 A 
ATOM      3  C   UNL     1       8.792   1.038  22.613  0.00  0.00    +0.009 A 
ATOM      4  C   UNL     1       9.406   1.700  23.693  0.00  0.00    -0.018 A 
ATOM      5  C   UNL     1       9.794   0.905  24.785  0.00  0.00    +0.009 A 
ATOM      6  C   UNL     1       9.554  -0.473  24.813  0.00  0.00    +0.006 A 
ENDROOT
BRANCH   4   7
ATOM      7  C   UNL     1       9.585   3.173  23.717  0.00  0.00    -0.017 A 
ATOM      8  C   UNL     1      10.866   3.755  23.677  0.00  0.00    +0.021 A 
ATOM      9  C   UNL     1      11.040   5.146  23.604  0.00  0.00    +0.037 A 
ATOM     10  C   UNL     1       9.927   5.990  23.590  0.00  0.00    +0.013 A 
ATOM     11  C   UNL     1       8.651   5.441  23.653  0.00  0.00    +0.001 A 
ATOM     12  C   UNL     1       8.485   4.052  23.722  0.00  0.00    +0.008 A 
BRANCH   9  13
ATOM     13  C   UNL     1      12.426   5.675  23.552  0.00  0.00    +0.242 C 
ATOM     14  O   UNL     1      13.221   5.314  22.694  0.00  0.00    -0.270 OA
ATOM     15  N   UNL     1      12.769   6.624  24.475  0.00  0.00    -0.325 N 
ATOM     16  H   UNL     1      13.672   7.061  24.346  0.00  0.00    +0.145 HD
ATOM     17  H   UNL     1      12.077   7.126  25.013  0.00  0.00    +0.145 HD
ENDBRANCH   9  13
ENDBRANCH   4   7
BRANCH   1  18
ATOM     18  C   UNL     1       8.598  -2.602  23.802  0.00  0.00    +0.086 C 
BRANCH  18  19
ATOM     19  N   UNL     1       9.839  -3.356  24.048  0.00  0.00    -0.323 NA
ATOM     20  H   UNL     1       9.587  -4.321  24.267  0.00  0.00    +0.119 HD
ATOM     21  H   UNL     1      10.374  -3.396  23.182  0.00  0.00    +0.119 HD
ENDBRANCH  18  19
BRANCH  18  22
ATOM     22  C   UNL     1       7.898  -3.055  22.498  0.00  0.00    +0.061 C 
BRANCH  22  23
ATOM     23  C   UNL     1       6.622  -3.849  22.677  0.00  0.00    -0.008 A 
ATOM     24  C   UNL     1       6.493  -5.141  22.160  0.00  0.00    +0.127 A 
ATOM     25  F   UNL     1       7.499  -5.683  21.458  0.00  0.00    -0.205 F 
ATOM     26  C   UNL     1       5.336  -5.894  22.364  0.00  0.00    +0.041 A 
ATOM     27  C   UNL     1       4.285  -5.358  23.108  0.00  0.00    +0.041 A 
ATOM     28  C   UNL     1       4.405  -4.074  23.628  0.00  0.00    +0.124 A 
ATOM     29  F   UNL     1       3.401  -3.561  24.351  0.00  0.00    -0.205 F 
ATOM     30  C   UNL     1       5.555  -3.319  23.419  0.00  0.00    +0.044 A 
ENDBRANCH  22  23
ENDBRANCH  18  22
ENDBRANCH   1  18
TORSDOF 6
ENDMDL
MODEL 3
REMARK VINA RESULT:      -7.5      2.235      3.251
REMARK  Name = 
REMARK  6 active torsions:
REMARK  status: ('A' for Active; 'I' for Inactive)
REMARK    1  A    between atoms: C_2  and  N_3
REMARK    2  A    between atoms: C_2  and  C_4
REMARK    3  A    between atoms: C_2  and  C_13
REMARK    4  A    between atoms: C_4  and  C_5
REMARK    5  A    between atoms: C_16  and  C_19
REMARK    6  A    between atoms: C_23  and  C_25
REMARK                            x       y       z     vdW  Elec       q    Type
REMARK                         _______ _______ _______ _____ _____    ______ ____
ROOT
ATOM      1  C   UNL     1       9.981  -0.196  23.127  0.00  0.00    -0.030 A 
ATOM      2  C   UNL     1       9.841   0.578  21.969  0.00  0.00    +0.006 A 
ATOM      3  C   UNL     1       9.660   1.967  22.054  0.00  0.00    +0.009 A 
ATOM      4  C   UNL     1       9.598   2.630  23.294  0.00  0.00    -0.018 A 
ATOM      5  C   UNL     1       9.767   1.841  24.444  0.00  0.00    +0.009 A 
ATOM      6  C   UNL     1       9.957   0.458  24.365  0.00  0.00    +0.006 A 
ENDROOT
BRANCH   4   7
ATOM      7  C   UNL     1       9.307   4.082  23.398  0.00  0.00    -0.017 A 
ATOM      8  C   UNL     1       8.159   4.642  22.809  0.00  0.00    +0.021 A 
ATOM      9  C   UNL     1       7.828   5.996  22.984  0.00  0.00    +0.037 A 
ATOM     10  C   UNL     1       8.656   6.826  23.742  0.00  0.00    +0.013 A 
ATOM     11  C   UNL     1       9.811   6.301  24.315  0.00  0.00    +0.001 A 
ATOM     12  C   UNL     1      10.132   4.950  24.140  0.00  0.00    +0.008 A 
BRANCH   9  13
ATOM     13  C   UNL     1       6.590   6.502  22.338  0.00  0.00    +0.242 C 
ATOM     14  O   UNL     1       5.499   6.424  22.888  0.00  0.00    -0.270 OA
ATOM     15  N   UNL     1       6.723   7.106  21.119  0.00  0.00    -0.325 N 
ATOM     16  H   UNL     1       5.892   7.553  20.753  0.00  0.00    +0.145 HD
ATOM     17  H   UNL     1       7.617   7.417  20.768  0.00  0.00    +0.145 HD
ENDBRANCH   9  13
ENDBRANCH   4   7
BRANCH   1  18
ATOM     18  C   UNL     1      10.130  -1.708  23.042  0.00  0.00    +0.086 C 
BRANCH  18  19
ATOM     19  N   UNL     1       9.922  -2.145  21.652  0.00  0.00    -0.323 NA
ATOM     20  H   UNL     1       9.446  -3.048  21.669  0.00  0.00    +0.119 HD
ATOM     21  H   UNL     1       9.280  -1.498  21.198  0.00  0.00    +0.119 HD
ENDBRANCH  18  19
BRANCH  18  22
ATOM     22  C   UNL     1       9.148  -2.403  24.017  0.00  0.00    +0.061 C 
BRANCH  22  23
ATOM     23  C   UNL     1       7.933  -3.042  23.382  0.00  0.00    -0.008 A 
ATOM     24  C   UNL     1       6.851  -2.271  22.947  0.00  0.00    +0.127 A 
ATOM     25  F   UNL     1       6.865  -0.942  23.123  0.00  0.00    -0.205 F 
ATOM     26  C   UNL     1       5.749  -2.852  22.318  0.00  0.00    +0.041 A 
ATOM     27  C   UNL     1       5.722  -4.229  22.106  0.00  0.00    +0.041 A 
ATOM     28  C   UNL     1       6.793  -5.005  22.534  0.00  0.00    +0.124 A 
ATOM     29  F   UNL     1       6.774  -6.328  22.324  0.00  0.00    -0.205 F 
ATOM     30  C   UNL     1       7.890  -4.429  23.168  0.00  0.00    +0.044 A 
ENDBRANCH  22  23
ENDBRANCH  18  22
ENDBRANCH   1  18
TORSDOF 6
ENDMDL
MODEL 4
REMARK VINA RESULT:      -7.4      3.729      8.239
REMARK  Name = 
REMARK  6 active torsions:
REMARK  status: ('A' for Active; 'I' for Inactive)
REMARK    1  A    between atoms: C_2  and  N_3
REMARK    2  A    between atoms: C_2  and  C_4
REMARK    3  A    between atoms: C_2  and  C_13
REMARK    4  A    between atoms: C_4  and  C_5
REMARK    5  A    between atoms: C_16  and  C_19
REMARK    6  A    between atoms: C_23  and  C_25
REMARK                            x       y       z     vdW  Elec       q    Type
REMARK                         _______ _______ _______ _____ _____    ______ ____
ROOT
ATOM      1  C   UNL     1       9.942   1.908  23.218  0.00  0.00    -0.030 A 
ATOM      2  C   UNL     1       9.719   1.249  24.433  0.00  0.00    +0.006 A 
ATOM      3  C   UNL     1       9.358  -0.106  24.456  0.00  0.00    +0.009 A 
ATOM      4  C   UNL     1       9.194  -0.849  23.273  0.00  0.00    -0.018 A 
ATOM      5  C   UNL     1       9.449  -0.179  22.064  0.00  0.00    +0.009 A 
ATOM      6  C   UNL     1       9.817   1.170  22.035  0.00  0.00    +0.006 A 
ENDROOT
BRANCH   4   7
ATOM      7  C   UNL     1       8.717  -2.255  23.282  0.00  0.00    -0.017 A 
ATOM      8  C   UNL     1       9.057  -3.136  24.325  0.00  0.00    +0.021 A 
ATOM      9  C   UNL     1       8.532  -4.437  24.389  0.00  0.00    +0.037 A 
ATOM     10  C   UNL     1       7.665  -4.891  23.393  0.00  0.00    +0.013 A 
ATOM     11  C   UNL     1       7.333  -4.047  22.338  0.00  0.00    +0.001 A 
ATOM     12  C   UNL     1       7.856  -2.750  22.282  0.00  0.00    +0.008 A 
BRANCH   9  13
ATOM     13  C   UNL     1       8.933  -5.296  25.532  0.00  0.00    +0.242 C 
ATOM     14  O   UNL     1       8.107  -5.774  26.299  0.00  0.00    -0.270 OA
ATOM     15  N   UNL     1      10.264  -5.576  25.668  0.00  0.00    -0.325 N 
ATOM     16  H   UNL     1      10.503  -6.260  26.374  0.00  0.00    +0.145 HD
ATOM     17  H   UNL     1      10.925  -5.422  24.920  0.00  0.00    +0.145 HD
ENDBRANCH   9  13
ENDBRANCH   4   7
BRANCH   1  18
ATOM     18  C   UNL     1      10.287   3.390  23.185  0.00  0.00    +0.086 C 
BRANCH  18  19
ATOM     19  N   UNL     1      11.722   3.567  23.461  0.00  0.00    -0.323 NA
ATOM     20  H   UNL     1      11.842   4.439  23.977  0.00  0.00    +0.119 HD
ATOM     21  H   UNL     1      12.029   2.826  24.088  0.00  0.00    +0.119 HD
ENDBRANCH  18  19
BRANCH  18  22
ATOM     22  C   UNL     1       9.406   4.171  24.190  0.00  0.00    +0.061 C 
BRANCH  22  23
ATOM     23  C   UNL     1       8.236   4.923  23.593  0.00  0.00    -0.008 A 
ATOM     24  C   UNL     1       8.374   6.239  23.140  0.00  0.00    +0.127 A 
ATOM     25  F   UNL     1       9.552   6.868  23.264  0.00  0.00    -0.205 F 
ATOM     26  C   UNL     1       7.311   6.919  22.546  0.00  0.00    +0.041 A 
ATOM     27  C   UNL     1       6.083   6.278  22.387  0.00  0.00    +0.041 A 
ATOM     28  C   UNL     1       5.936   4.969  22.834  0.00  0.00    +0.124 A 
ATOM     29  F   UNL     1       4.760   4.348  22.675  0.00  0.00    -0.205 F 
ATOM     30  C   UNL     1       6.993   4.291  23.433  0.00  0.00    +0.044 A 
ENDBRANCH  22  23
ENDBRANCH  18  22
ENDBRANCH   1  18
TORSDOF 6
ENDMDL
MODEL 5
REMARK VINA RESULT:      -7.4      3.705      8.085
REMARK  Name = 
REMARK  6 active torsions:
REMARK  status: ('A' for Active; 'I' for Inactive)
REMARK    1  A    between atoms: C_2  and  N_3
REMARK    2  A    between atoms: C_2  and  C_4
REMARK    3  A    between atoms: C_2  and  C_13
REMARK    4  A    between atoms: C_4  and  C_5
REMARK    5  A    between atoms: C_16  and  C_19
REMARK    6  A    between atoms: C_23  and  C_25
REMARK                            x       y       z     vdW  Elec       q    Type
REMARK                         _______ _______ _______ _____ _____    ______ ____
ROOT
ATOM      1  C   UNL     1       8.682  -2.218  23.161  0.00  0.00    -0.030 A 
ATOM      2  C   UNL     1       9.129  -3.142  24.112  0.00  0.00    +0.006 A 
ATOM      3  C   UNL     1       8.287  -4.169  24.564  0.00  0.00    +0.009 A 
ATOM      4  C   UNL     1       6.967  -4.303  24.095  0.00  0.00    -0.018 A 
ATOM      5  C   UNL     1       6.544  -3.383  23.120  0.00  0.00    +0.009 A 
ATOM      6  C   UNL     1       7.383  -2.363  22.660  0.00  0.00    +0.006 A 
ENDROOT
BRANCH   4   7
ATOM      7  C   UNL     1       6.035  -5.323  24.639  0.00  0.00    -0.017 A 
ATOM      8  C   UNL     1       5.931  -5.555  26.023  0.00  0.00    +0.021 A 
ATOM      9  C   UNL     1       4.986  -6.449  26.550  0.00  0.00    +0.037 A 
ATOM     10  C   UNL     1       4.133  -7.149  25.694  0.00  0.00    +0.013 A 
ATOM     11  C   UNL     1       4.232  -6.956  24.320  0.00  0.00    +0.001 A 
ATOM     12  C   UNL     1       5.174  -6.060  23.802  0.00  0.00    +0.008 A 
BRANCH   9  13
ATOM     13  C   UNL     1       4.935  -6.624  28.023  0.00  0.00    +0.242 C 
ATOM     14  O   UNL     1       4.229  -5.919  28.732  0.00  0.00    -0.270 OA
ATOM     15  N   UNL     1       5.675  -7.642  28.559  0.00  0.00    -0.325 N 
ATOM     16  H   UNL     1       5.532  -7.823  29.544  0.00  0.00    +0.145 HD
ATOM     17  H   UNL     1       6.049  -8.390  27.993  0.00  0.00    +0.145 HD
ENDBRANCH   9  13
ENDBRANCH   4   7
BRANCH   1  18
ATOM     18  C   UNL     1       9.575  -1.074  22.703  0.00  0.00    +0.086 C 
BRANCH  18  19
ATOM     19  N   UNL     1      10.614  -1.594  21.798  0.00  0.00    -0.323 NA
ATOM     20  H   UNL     1      10.206  -1.691  20.867  0.00  0.00    +0.119 HD
ATOM     21  H   UNL     1      11.350  -0.896  21.709  0.00  0.00    +0.119 HD
ENDBRANCH  18  19
BRANCH  18  22
ATOM     22  C   UNL     1      10.187  -0.345  23.924  0.00  0.00    +0.061 C 
BRANCH  22  23
ATOM     23  C   UNL     1       9.657   1.046  24.193  0.00  0.00    -0.008 A 
ATOM     24  C   UNL     1       8.530   1.252  24.994  0.00  0.00    +0.127 A 
ATOM     25  F   UNL     1       7.878   0.200  25.511  0.00  0.00    -0.205 F 
ATOM     26  C   UNL     1       8.067   2.536  25.282  0.00  0.00    +0.041 A 
ATOM     27  C   UNL     1       8.741   3.644  24.773  0.00  0.00    +0.041 A 
ATOM     28  C   UNL     1       9.864   3.451  23.976  0.00  0.00    +0.124 A 
ATOM     29  F   UNL     1      10.519   4.514  23.492  0.00  0.00    -0.205 F 
ATOM     30  C   UNL     1      10.324   2.171  23.681  0.00  0.00    +0.044 A 
ENDBRANCH  22  23
ENDBRANCH  18  22
ENDBRANCH   1  18
TORSDOF 6
ENDMDL
MODEL 6
REMARK VINA RESULT:      -7.3      3.892      8.535
REMARK  Name = 
REMARK  6 active torsions:
REMARK  status: ('A' for Active; 'I' for Inactive)
REMARK    1  A    between atoms: C_2  and  N_3
REMARK    2  A    between atoms: C_2  and  C_4
REMARK    3  A    between atoms: C_2  and  C_13
REMARK    4  A    between atoms: C_4  and  C_5
REMARK    5  A    between atoms: C_16  and  C_19
REMARK    6  A    between atoms: C_23  and  C_25
REMARK                            x       y       z     vdW  Elec       q    Type
REMARK                         _______ _______ _______ _____ _____    ______ ____
ROOT
ATOM      1  C   UNL     1       8.009   0.413  22.806  0.00  0.00    -0.030 A 
ATOM      2  C   UNL     1       8.567  -0.732  22.223  0.00  0.00    +0.006 A 
ATOM      3  C   UNL     1       8.010  -1.998  22.457  0.00  0.00    +0.009 A 
ATOM      4  C   UNL     1       6.889  -2.171  23.289  0.00  0.00    -0.018 A 
ATOM      5  C   UNL     1       6.326  -1.008  23.844  0.00  0.00    +0.009 A 
ATOM      6  C   UNL     1       6.871   0.257  23.607  0.00  0.00    +0.006 A 
ENDROOT
BRANCH   4   7
ATOM      7  C   UNL     1       6.353  -3.514  23.623  0.00  0.00    -0.017 A 
ATOM      8  C   UNL     1       6.662  -4.142  24.844  0.00  0.00    +0.021 A 
ATOM      9  C   UNL     1       6.084  -5.369  25.208  0.00  0.00    +0.037 A 
ATOM     10  C   UNL     1       5.193  -6.006  24.341  0.00  0.00    +0.013 A 
ATOM     11  C   UNL     1       4.889  -5.417  23.118  0.00  0.00    +0.001 A 
ATOM     12  C   UNL     1       5.466  -4.192  22.764  0.00  0.00    +0.008 A 
BRANCH   9  13
ATOM     13  C   UNL     1       6.455  -5.955  26.520  0.00  0.00    +0.242 C 
ATOM     14  O   UNL     1       5.665  -6.623  27.174  0.00  0.00    -0.270 OA
ATOM     15  N   UNL     1       7.738  -5.760  26.952  0.00  0.00    -0.325 N 
ATOM     16  H   UNL     1       8.007  -6.268  27.784  0.00  0.00    +0.145 HD
ATOM     17  H   UNL     1       8.472  -5.450  26.333  0.00  0.00    +0.145 HD
ENDBRANCH   9  13
ENDBRANCH   4   7
BRANCH   1  18
ATOM     18  C   UNL     1       8.637   1.782  22.594  0.00  0.00    +0.086 C 
BRANCH  18  19
ATOM     19  N   UNL     1       9.347   1.803  21.304  0.00  0.00    -0.323 NA
ATOM     20  H   UNL     1      10.028   1.042  21.303  0.00  0.00    +0.119 HD
ATOM     21  H   UNL     1       8.684   1.587  20.562  0.00  0.00    +0.119 HD
ENDBRANCH  18  19
BRANCH  18  22
ATOM     22  C   UNL     1       9.575   2.135  23.774  0.00  0.00    +0.061 C 
BRANCH  22  23
ATOM     23  C   UNL     1      10.246   3.489  23.700  0.00  0.00    -0.008 A 
ATOM     24  C   UNL     1       9.545   4.663  23.992  0.00  0.00    +0.127 A 
ATOM     25  F   UNL     1       8.245   4.602  24.312  0.00  0.00    -0.205 F 
ATOM     26  C   UNL     1      10.173   5.909  23.971  0.00  0.00    +0.041 A 
ATOM     27  C   UNL     1      11.529   5.995  23.661  0.00  0.00    +0.041 A 
ATOM     28  C   UNL     1      12.235   4.832  23.370  0.00  0.00    +0.124 A 
ATOM     29  F   UNL     1      13.541   4.911  23.081  0.00  0.00    -0.205 F 
ATOM     30  C   UNL     1      11.610   3.589  23.384  0.00  0.00    +0.044 A 
ENDBRANCH  22  23
ENDBRANCH  18  22
ENDBRANCH   1  18
TORSDOF 6
ENDMDL
MODEL 7
REMARK VINA RESULT:      -7.3      3.845      8.227
REMARK  Name = 
REMARK  6 active torsions:
REMARK  status: ('A' for Active; 'I' for Inactive)
REMARK    1  A    between atoms: C_2  and  N_3
REMARK    2  A    between atoms: C_2  and  C_4
REMARK    3  A    between atoms: C_2  and  C_13
REMARK    4  A    between atoms: C_4  and  C_5
REMARK    5  A    between atoms: C_16  and  C_19
REMARK    6  A    between atoms: C_23  and  C_25
REMARK                            x       y       z     vdW  Elec       q    Type
REMARK                         _______ _______ _______ _____ _____    ______ ____
ROOT
ATOM      1  C   UNL     1       8.490  -2.170  23.080  0.00  0.00    -0.030 A 
ATOM      2  C   UNL     1       8.814  -2.755  24.310  0.00  0.00    +0.006 A 
ATOM      3  C   UNL     1       8.038  -3.802  24.830  0.00  0.00    +0.009 A 
ATOM      4  C   UNL     1       6.907  -4.293  24.152  0.00  0.00    -0.018 A 
ATOM      5  C   UNL     1       6.613  -3.711  22.907  0.00  0.00    +0.009 A 
ATOM      6  C   UNL     1       7.388  -2.673  22.379  0.00  0.00    +0.006 A 
ENDROOT
BRANCH   4   7
ATOM      7  C   UNL     1       6.022  -5.330  24.739  0.00  0.00    -0.017 A 
ATOM      8  C   UNL     1       6.109  -5.680  26.099  0.00  0.00    +0.021 A 
ATOM      9  C   UNL     1       5.213  -6.591  26.683  0.00  0.00    +0.037 A 
ATOM     10  C   UNL     1       4.218  -7.188  25.906  0.00  0.00    +0.013 A 
ATOM     11  C   UNL     1       4.127  -6.877  24.553  0.00  0.00    +0.001 A 
ATOM     12  C   UNL     1       5.021  -5.965  23.979  0.00  0.00    +0.008 A 
BRANCH   9  13
ATOM     13  C   UNL     1       5.367  -6.894  28.128  0.00  0.00    +0.242 C 
ATOM     14  O   UNL     1       6.422  -6.702  28.718  0.00  0.00    -0.270 OA
ATOM     15  N   UNL     1       4.263  -7.354  28.792  0.00  0.00    -0.325 N 
ATOM     16  H   UNL     1       4.353  -7.437  29.796  0.00  0.00    +0.145 HD
ATOM     17  H   UNL     1       3.333  -7.274  28.408  0.00  0.00    +0.145 HD
ENDBRANCH   9  13
ENDBRANCH   4   7
BRANCH   1  18
ATOM     18  C   UNL     1       9.300  -1.003  22.534  0.00  0.00    +0.086 C 
BRANCH  18  19
ATOM     19  N   UNL     1      10.249  -1.494  21.522  0.00  0.00    -0.323 NA
ATOM     20  H   UNL     1      10.061  -1.007  20.645  0.00  0.00    +0.119 HD
ATOM     21  H   UNL     1      11.191  -1.221  21.797  0.00  0.00    +0.119 HD
ENDBRANCH  18  19
BRANCH  18  22
ATOM     22  C   UNL     1      10.019  -0.258  23.686  0.00  0.00    +0.061 C 
BRANCH  22  23
ATOM     23  C   UNL     1       9.524   1.142  23.974  0.00  0.00    -0.008 A 
ATOM     24  C   UNL     1       9.809   2.205  23.112  0.00  0.00    +0.127 A 
ATOM     25  F   UNL     1      10.565   1.998  22.024  0.00  0.00    -0.205 F 
ATOM     26  C   UNL     1       9.314   3.487  23.350  0.00  0.00    +0.041 A 
ATOM     27  C   UNL     1       8.509   3.722  24.463  0.00  0.00    +0.041 A 
ATOM     28  C   UNL     1       8.218   2.671  25.326  0.00  0.00    +0.124 A 
ATOM     29  F   UNL     1       7.437   2.892  26.392  0.00  0.00    -0.205 F 
ATOM     30  C   UNL     1       8.716   1.392  25.095  0.00  0.00    +0.044 A 
ENDBRANCH  22  23
ENDBRANCH  18  22
ENDBRANCH   1  18
TORSDOF 6
ENDMDL
MODEL 8
REMARK VINA RESULT:      -7.2      2.585      3.783
REMARK  Name = 
REMARK  6 active torsions:
REMARK  status: ('A' for Active; 'I' for Inactive)
REMARK    1  A    between atoms: C_2  and  N_3
REMARK    2  A    between atoms: C_2  and  C_4
REMARK    3  A    between atoms: C_2  and  C_13
REMARK    4  A    between atoms: C_4  and  C_5
REMARK    5  A    between atoms: C_16  and  C_19
REMARK    6  A    between atoms: C_23  and  C_25
REMARK                            x       y       z     vdW  Elec       q    Type
REMARK                         _______ _______ _______ _____ _____    ______ ____
ROOT
ATOM      1  C   UNL     1       9.901  -0.506  22.840  0.00  0.00    -0.030 A 
ATOM      2  C   UNL     1       9.668   0.440  21.834  0.00  0.00    +0.006 A 
ATOM      3  C   UNL     1       9.976   1.793  22.038  0.00  0.00    +0.009 A 
ATOM      4  C   UNL     1      10.513   2.255  23.254  0.00  0.00    -0.018 A 
ATOM      5  C   UNL     1      10.765   1.288  24.243  0.00  0.00    +0.009 A 
ATOM      6  C   UNL     1      10.468  -0.063  24.041  0.00  0.00    +0.006 A 
ENDROOT
BRANCH   4   7
ATOM      7  C   UNL     1      10.749   3.697  23.516  0.00  0.00    -0.017 A 
ATOM      8  C   UNL     1       9.732   4.522  24.031  0.00  0.00    +0.021 A 
ATOM      9  C   UNL     1       9.974   5.863  24.371  0.00  0.00    +0.037 A 
ATOM     10  C   UNL     1      11.244   6.413  24.182  0.00  0.00    +0.013 A 
ATOM     11  C   UNL     1      12.260   5.625  23.652  0.00  0.00    +0.001 A 
ATOM     12  C   UNL     1      12.012   4.287  23.319  0.00  0.00    +0.008 A 
BRANCH   9  13
ATOM     13  C   UNL     1       8.848   6.659  24.920  0.00  0.00    +0.242 C 
ATOM     14  O   UNL     1       8.780   6.943  26.109  0.00  0.00    -0.270 OA
ATOM     15  N   UNL     1       7.908   7.108  24.035  0.00  0.00    -0.325 N 
ATOM     16  H   UNL     1       7.220   7.749  24.406  0.00  0.00    +0.145 HD
ATOM     17  H   UNL     1       8.070   7.118  23.038  0.00  0.00    +0.145 HD
ENDBRANCH   9  13
ENDBRANCH   4   7
BRANCH   1  18
ATOM     18  C   UNL     1       9.525  -1.967  22.642  0.00  0.00    +0.086 C 
BRANCH  18  19
ATOM     19  N   UNL     1       8.103  -2.062  22.273  0.00  0.00    -0.323 NA
ATOM     20  H   UNL     1       7.824  -3.043  22.331  0.00  0.00    +0.119 HD
ATOM     21  H   UNL     1       7.549  -1.572  22.974  0.00  0.00    +0.119 HD
ENDBRANCH  18  19
BRANCH  18  22
ATOM     22  C   UNL     1       9.846  -2.785  23.917  0.00  0.00    +0.061 C 
BRANCH  22  23
ATOM     23  C   UNL     1       8.653  -3.360  24.647  0.00  0.00    -0.008 A 
ATOM     24  C   UNL     1       8.176  -2.782  25.827  0.00  0.00    +0.127 A 
ATOM     25  F   UNL     1       8.803  -1.718  26.350  0.00  0.00    -0.205 F 
ATOM     26  C   UNL     1       7.047  -3.281  26.477  0.00  0.00    +0.041 A 
ATOM     27  C   UNL     1       6.367  -4.374  25.941  0.00  0.00    +0.041 A 
ATOM     28  C   UNL     1       6.832  -4.955  24.767  0.00  0.00    +0.124 A 
ATOM     29  F   UNL     1       6.176  -5.999  24.244  0.00  0.00    -0.205 F 
ATOM     30  C   UNL     1       7.963  -4.463  24.120  0.00  0.00    +0.044 A 
ENDBRANCH  22  23
ENDBRANCH  18  22
ENDBRANCH   1  18
TORSDOF 6
ENDMDL
MODEL 9
REMARK VINA RESULT:      -7.2      3.896      7.912
REMARK  Name = 
REMARK  6 active torsions:
REMARK  status: ('A' for Active; 'I' for Inactive)
REMARK    1  A    between atoms: C_2  and  N_3
REMARK    2  A    between atoms: C_2  and  C_4
REMARK    3  A    between atoms: C_2  and  C_13
REMARK    4  A    between atoms: C_4  and  C_5
REMARK    5  A    between atoms: C_16  and  C_19
REMARK    6  A    between atoms: C_23  and  C_25
REMARK                            x       y       z     vdW  Elec       q    Type
REMARK                         _______ _______ _______ _____ _____    ______ ____
ROOT
ATOM      1  C   UNL     1       8.871  -1.966  23.349  0.00  0.00    -0.030 A 
ATOM      2  C   UNL     1       9.417  -3.006  24.111  0.00  0.00    +0.006 A 
ATOM      3  C   UNL     1       8.588  -3.970  24.704  0.00  0.00    +0.009 A 
ATOM      4  C   UNL     1       7.188  -3.924  24.572  0.00  0.00    -0.018 A 
ATOM      5  C   UNL     1       6.660  -2.889  23.781  0.00  0.00    +0.009 A 
ATOM      6  C   UNL     1       7.482  -1.931  23.180  0.00  0.00    +0.006 A 
ENDROOT
BRANCH   4   7
ATOM      7  C   UNL     1       6.297  -4.879  25.277  0.00  0.00    -0.017 A 
ATOM      8  C   UNL     1       5.333  -5.631  24.580  0.00  0.00    +0.021 A 
ATOM      9  C   UNL     1       4.552  -6.604  25.224  0.00  0.00    +0.037 A 
ATOM     10  C   UNL     1       4.708  -6.832  26.593  0.00  0.00    +0.013 A 
ATOM     11  C   UNL     1       5.637  -6.084  27.310  0.00  0.00    +0.001 A 
ATOM     12  C   UNL     1       6.415  -5.119  26.660  0.00  0.00    +0.008 A 
BRANCH   9  13
ATOM     13  C   UNL     1       3.568  -7.362  24.411  0.00  0.00    +0.242 C 
ATOM     14  O   UNL     1       3.041  -8.385  24.826  0.00  0.00    -0.270 OA
ATOM     15  N   UNL     1       3.233  -6.843  23.190  0.00  0.00    -0.325 N 
ATOM     16  H   UNL     1       2.474  -7.304  22.707  0.00  0.00    +0.145 HD
ATOM     17  H   UNL     1       3.442  -5.888  22.936  0.00  0.00    +0.145 HD
ENDBRANCH   9  13
ENDBRANCH   4   7
BRANCH   1  18
ATOM     18  C   UNL     1       9.762  -0.891  22.743  0.00  0.00    +0.086 C 
BRANCH  18  19
ATOM     19  N   UNL     1      10.755  -1.519  21.856  0.00  0.00    -0.323 NA
ATOM     20  H   UNL     1      11.434  -2.014  22.437  0.00  0.00    +0.119 HD
ATOM     21  H   UNL     1      10.291  -2.233  21.298  0.00  0.00    +0.119 HD
ENDBRANCH  18  19
BRANCH  18  22
ATOM     22  C   UNL     1      10.433  -0.053  23.858  0.00  0.00    +0.061 C 
BRANCH  22  23
ATOM     23  C   UNL     1       9.795   1.288  24.147  0.00  0.00    -0.008 A 
ATOM     24  C   UNL     1       8.678   1.396  24.981  0.00  0.00    +0.127 A 
ATOM     25  F   UNL     1       8.131   0.293  25.512  0.00  0.00    -0.205 F 
ATOM     26  C   UNL     1       8.116   2.636  25.287  0.00  0.00    +0.041 A 
ATOM     27  C   UNL     1       8.679   3.798  24.764  0.00  0.00    +0.041 A 
ATOM     28  C   UNL     1       9.791   3.702  23.934  0.00  0.00    +0.124 A 
ATOM     29  F   UNL     1      10.340   4.818  23.437  0.00  0.00    -0.205 F 
ATOM     30  C   UNL     1      10.349   2.466  23.622  0.00  0.00    +0.044 A 
ENDBRANCH  22  23
ENDBRANCH  18  22
ENDBRANCH   1  18
TORSDOF 6
ENDMDL
