MODEL 1
REMARK VINA RESULT:      -4.7      0.000      0.000
REMARK  Name = 
REMARK  7 active torsions:
REMARK  status: ('A' for Active; 'I' for Inactive)
REMARK    1  A    between atoms: C_1  and  C_2
REMARK    2  A    between atoms: N_4  and  CA_5
REMARK    3  A    between atoms: CA_5  and  CB_7
REMARK    4  A    between atoms: CA_5  and  C_12
REMARK    5  A    between atoms: CB_7  and  CG_8
REMARK    6  A    between atoms: CG_8  and  CD_9
REMARK    7  A    between atoms: C_12  and  O_13
REMARK                            x       y       z     vdW  Elec       q    Type
REMARK                         _______ _______ _______ _____ _____    ______ ____
ROOT
ATOM      1  CA  GLN A   1      10.218  -0.962  23.863  0.00  0.00    +0.182 C 
ENDROOT
BRANCH   1   4
ATOM      2  C   UNK A   0       7.543  -3.576  24.535  0.00  0.00    +0.109 C 
ATOM      3  C   UNK A   0       8.916  -3.021  24.284  0.00  0.00    +0.211 C 
ATOM      4  N   GLN A   1       8.950  -1.668  24.056  0.00  0.00    -0.303 N 
ATOM      5  H   GLN A   1       8.096  -1.117  24.048  0.00  0.00    +0.149 HD
ATOM      6  O   UNK A   0       9.919  -3.727  24.314  0.00  0.00    -0.276 OA
ENDBRANCH   1   4
BRANCH   1   7
ATOM      7  C   GLN A   1      10.255   0.234  24.816  0.00  0.00    +0.325 C 
ATOM      8  OXT GLN A   1      10.751   1.316  24.525  0.00  0.00    -0.249 OA
BRANCH   7   9
ATOM      9  O   GLN A   1       9.709  -0.011  26.030  0.00  0.00    -0.479 OA
ATOM     10  H   GLN A   1      10.322  -0.465  26.659  0.00  0.00    +0.295 HD
ENDBRANCH   7   9
ENDBRANCH   1   7
BRANCH   1  11
ATOM     11  CB  GLN A   1      10.356  -0.519  22.400  0.00  0.00    +0.043 C 
BRANCH  11  12
ATOM     12  CG  GLN A   1       9.050  -0.149  21.694  0.00  0.00    +0.098 C 
BRANCH  12  13
ATOM     13  CD  GLN A   1       8.864   1.345  21.570  0.00  0.00    +0.211 C 
ATOM     14  OE1 GLN A   1       7.759   1.855  21.411  0.00  0.00    -0.276 OA
ATOM     15  NE2 GLN A   1      10.002   2.086  21.634  0.00  0.00    -0.329 N 
ATOM     16 HE21 GLN A   1       9.926   3.090  21.526  0.00  0.00    +0.145 HD
ATOM     17 HE22 GLN A   1      10.929   1.679  21.613  0.00  0.00    +0.145 HD
ENDBRANCH  12  13
ENDBRANCH  11  12
ENDBRANCH   1  11
TORSDOF 6
ENDMDL
MODEL 2
REMARK VINA RESULT:      -4.7      3.362      5.467
REMARK  Name = 
REMARK  7 active torsions:
REMARK  status: ('A' for Active; 'I' for Inactive)
REMARK    1  A    between atoms: C_1  and  C_2
REMARK    2  A    between atoms: N_4  and  CA_5
REMARK    3  A    between atoms: CA_5  and  CB_7
REMARK    4  A    between atoms: CA_5  and  C_12
REMARK    5  A    between atoms: CB_7  and  CG_8
REMARK    6  A    between atoms: CG_8  and  CD_9
REMARK    7  A    between atoms: C_12  and  O_13
REMARK                            x       y       z     vdW  Elec       q    Type
REMARK                         _______ _______ _______ _____ _____    ______ ____
ROOT
ATOM      1  CA  GLN A   1       7.721  -2.751  23.050  0.00  0.00    +0.182 C 
ENDROOT
BRANCH   1   4
ATOM      2  C   UNK A   0       6.252  -5.620  21.039  0.00  0.00    +0.109 C 
ATOM      3  C   UNK A   0       6.329  -4.262  21.676  0.00  0.00    +0.211 C 
ATOM      4  N   GLN A   1       7.462  -4.047  22.420  0.00  0.00    -0.303 N 
ATOM      5  H   GLN A   1       8.165  -4.773  22.526  0.00  0.00    +0.149 HD
ATOM      6  O   UNK A   0       5.458  -3.414  21.509  0.00  0.00    -0.276 OA
ENDBRANCH   1   4
BRANCH   1   7
ATOM      7  C   GLN A   1       9.054  -2.215  22.520  0.00  0.00    +0.325 C 
ATOM      8  OXT GLN A   1       9.143  -1.433  21.581  0.00  0.00    -0.249 OA
BRANCH   7   9
ATOM      9  O   GLN A   1      10.139  -2.699  23.168  0.00  0.00    -0.479 OA
ATOM     10  H   GLN A   1      10.994  -2.509  22.710  0.00  0.00    +0.295 HD
ENDBRANCH   7   9
ENDBRANCH   1   7
BRANCH   1  11
ATOM     11  CB  GLN A   1       7.744  -2.902  24.577  0.00  0.00    +0.043 C 
BRANCH  11  12
ATOM     12  CG  GLN A   1       7.341  -4.277  25.112  0.00  0.00    +0.098 C 
BRANCH  12  13
ATOM     13  CD  GLN A   1       8.536  -5.138  25.451  0.00  0.00    +0.211 C 
ATOM     14  OE1 GLN A   1       9.494  -5.254  24.693  0.00  0.00    -0.276 OA
ATOM     15  NE2 GLN A   1       8.474  -5.785  26.645  0.00  0.00    -0.329 N 
ATOM     16 HE21 GLN A   1       9.241  -6.396  26.898  0.00  0.00    +0.145 HD
ATOM     17 HE22 GLN A   1       7.635  -5.823  27.210  0.00  0.00    +0.145 HD
ENDBRANCH  12  13
ENDBRANCH  11  12
ENDBRANCH   1  11
TORSDOF 6
ENDMDL
MODEL 3
REMARK VINA RESULT:      -4.7      4.927      6.842
REMARK  Name = 
REMARK  7 active torsions:
REMARK  status: ('A' for Active; 'I' for Inactive)
REMARK    1  A    between atoms: C_1  and  C_2
REMARK    2  A    between atoms: N_4  and  CA_5
REMARK    3  A    between atoms: CA_5  and  CB_7
REMARK    4  A    between atoms: CA_5  and  C_12
REMARK    5  A    between atoms: CB_7  and  CG_8
REMARK    6  A    between atoms: CG_8  and  CD_9
REMARK    7  A    between atoms: C_12  and  O_13
REMARK                            x       y       z     vdW  Elec       q    Type
REMARK                         _______ _______ _______ _____ _____    ______ ____
ROOT
ATOM      1  CA  GLN A   1       7.943  -4.252  25.132  0.00  0.00    +0.182 C 
ENDROOT
BRANCH   1   4
ATOM      2  C   UNK A   0       7.054  -5.863  21.808  0.00  0.00    +0.109 C 
ATOM      3  C   UNK A   0       7.413  -4.770  22.774  0.00  0.00    +0.211 C 
ATOM      4  N   GLN A   1       7.531  -5.181  24.079  0.00  0.00    -0.303 N 
ATOM      5  H   GLN A   1       7.366  -6.149  24.340  0.00  0.00    +0.149 HD
ATOM      6  O   UNK A   0       7.613  -3.616  22.407  0.00  0.00    -0.276 OA
ENDBRANCH   1   4
BRANCH   1   7
ATOM      7  C   GLN A   1       9.297  -4.710  25.678  0.00  0.00    +0.325 C 
ATOM      8  OXT GLN A   1      10.258  -4.977  24.965  0.00  0.00    -0.249 OA
BRANCH   7   9
ATOM      9  O   GLN A   1       9.341  -4.818  27.026  0.00  0.00    -0.479 OA
ATOM     10  H   GLN A   1       9.261  -3.953  27.498  0.00  0.00    +0.295 HD
ENDBRANCH   7   9
ENDBRANCH   1   7
BRANCH   1  11
ATOM     11  CB  GLN A   1       6.880  -4.204  26.238  0.00  0.00    +0.043 C 
BRANCH  11  12
ATOM     12  CG  GLN A   1       5.919  -5.394  26.285  0.00  0.00    +0.098 C 
BRANCH  12  13
ATOM     13  CD  GLN A   1       6.101  -6.233  27.528  0.00  0.00    +0.211 C 
ATOM     14  OE1 GLN A   1       7.041  -6.064  28.300  0.00  0.00    -0.276 OA
ATOM     15  NE2 GLN A   1       5.162  -7.195  27.730  0.00  0.00    -0.329 N 
ATOM     16 HE21 GLN A   1       5.262  -7.800  28.536  0.00  0.00    +0.145 HD
ATOM     17 HE22 GLN A   1       4.471  -7.448  27.034  0.00  0.00    +0.145 HD
ENDBRANCH  12  13
ENDBRANCH  11  12
ENDBRANCH   1  11
TORSDOF 6
ENDMDL
MODEL 4
REMARK VINA RESULT:      -4.6      3.021      4.407
REMARK  Name = 
REMARK  7 active torsions:
REMARK  status: ('A' for Active; 'I' for Inactive)
REMARK    1  A    between atoms: C_1  and  C_2
REMARK    2  A    between atoms: N_4  and  CA_5
REMARK    3  A    between atoms: CA_5  and  CB_7
REMARK    4  A    between atoms: CA_5  and  C_12
REMARK    5  A    between atoms: CB_7  and  CG_8
REMARK    6  A    between atoms: CG_8  and  CD_9
REMARK    7  A    between atoms: C_12  and  O_13
REMARK                            x       y       z     vdW  Elec       q    Type
REMARK                         _______ _______ _______ _____ _____    ______ ____
ROOT
ATOM      1  CA  GLN A   1       8.611  -4.493  24.321  0.00  0.00    +0.182 C 
ENDROOT
BRANCH   1   4
ATOM      2  C   UNK A   0       5.317  -5.516  22.729  0.00  0.00    +0.109 C 
ATOM      3  C   UNK A   0       6.804  -5.426  22.916  0.00  0.00    +0.211 C 
ATOM      4  N   GLN A   1       7.198  -4.630  23.963  0.00  0.00    -0.303 N 
ATOM      5  H   GLN A   1       6.516  -4.142  24.535  0.00  0.00    +0.149 HD
ATOM      6  O   UNK A   0       7.589  -6.045  22.203  0.00  0.00    -0.276 OA
ENDBRANCH   1   4
BRANCH   1   7
ATOM      7  C   GLN A   1       8.882  -5.353  25.557  0.00  0.00    +0.325 C 
ATOM      8  OXT GLN A   1       8.001  -5.745  26.315  0.00  0.00    -0.249 OA
BRANCH   7   9
ATOM      9  O   GLN A   1      10.190  -5.632  25.759  0.00  0.00    -0.479 OA
ATOM     10  H   GLN A   1      10.784  -4.847  25.666  0.00  0.00    +0.295 HD
ENDBRANCH   7   9
ENDBRANCH   1   7
BRANCH   1  11
ATOM     11  CB  GLN A   1       8.948  -3.018  24.579  0.00  0.00    +0.043 C 
BRANCH  11  12
ATOM     12  CG  GLN A   1       9.870  -2.359  23.551  0.00  0.00    +0.098 C 
BRANCH  12  13
ATOM     13  CD  GLN A   1       9.122  -1.868  22.334  0.00  0.00    +0.211 C 
ATOM     14  OE1 GLN A   1       7.927  -2.092  22.168  0.00  0.00    -0.276 OA
ATOM     15  NE2 GLN A   1       9.862  -1.172  21.431  0.00  0.00    -0.329 N 
ATOM     16 HE21 GLN A   1       9.406  -0.850  20.586  0.00  0.00    +0.145 HD
ATOM     17 HE22 GLN A   1      10.871  -1.108  21.475  0.00  0.00    +0.145 HD
ENDBRANCH  12  13
ENDBRANCH  11  12
ENDBRANCH   1  11
TORSDOF 6
ENDMDL
MODEL 5
REMARK VINA RESULT:      -4.6      2.973      5.763
REMARK  Name = 
REMARK  7 active torsions:
REMARK  status: ('A' for Active; 'I' for Inactive)
REMARK    1  A    between atoms: C_1  and  C_2
REMARK    2  A    between atoms: N_4  and  CA_5
REMARK    3  A    between atoms: CA_5  and  CB_7
REMARK    4  A    between atoms: CA_5  and  C_12
REMARK    5  A    between atoms: CB_7  and  CG_8
REMARK    6  A    between atoms: CG_8  and  CD_9
REMARK    7  A    between atoms: C_12  and  O_13
REMARK                            x       y       z     vdW  Elec       q    Type
REMARK                         _______ _______ _______ _____ _____    ______ ____
ROOT
ATOM      1  CA  GLN A   1       7.645  -3.430  22.549  0.00  0.00    +0.182 C 
ENDROOT
BRANCH   1   4
ATOM      2  C   UNK A   0       9.959  -0.908  24.199  0.00  0.00    +0.109 C 
ATOM      3  C   UNK A   0       9.449  -1.848  23.144  0.00  0.00    +0.211 C 
ATOM      4  N   GLN A   1       8.308  -2.527  23.491  0.00  0.00    -0.303 N 
ATOM      5  H   GLN A   1       7.877  -2.395  24.402  0.00  0.00    +0.149 HD
ATOM      6  O   UNK A   0      10.000  -1.965  22.054  0.00  0.00    -0.276 OA
ENDBRANCH   1   4
BRANCH   1   7
ATOM      7  C   GLN A   1       6.246  -2.882  22.258  0.00  0.00    +0.325 C 
ATOM      8  OXT GLN A   1       5.455  -3.419  21.490  0.00  0.00    -0.249 OA
BRANCH   7   9
ATOM      9  O   GLN A   1       5.958  -1.732  22.911  0.00  0.00    -0.479 OA
ATOM     10  H   GLN A   1       5.170  -1.798  23.504  0.00  0.00    +0.295 HD
ENDBRANCH   7   9
ENDBRANCH   1   7
BRANCH   1  11
ATOM     11  CB  GLN A   1       7.583  -4.848  23.132  0.00  0.00    +0.043 C 
BRANCH  11  12
ATOM     12  CG  GLN A   1       7.370  -4.933  24.645  0.00  0.00    +0.098 C 
BRANCH  12  13
ATOM     13  CD  GLN A   1       8.645  -5.256  25.390  0.00  0.00    +0.211 C 
ATOM     14  OE1 GLN A   1       9.754  -5.069  24.899  0.00  0.00    -0.276 OA
ATOM     15  NE2 GLN A   1       8.481  -5.779  26.634  0.00  0.00    -0.329 N 
ATOM     16 HE21 GLN A   1       9.308  -6.037  27.157  0.00  0.00    +0.145 HD
ATOM     17 HE22 GLN A   1       7.584  -6.079  26.994  0.00  0.00    +0.145 HD
ENDBRANCH  12  13
ENDBRANCH  11  12
ENDBRANCH   1  11
TORSDOF 6
ENDMDL
MODEL 6
REMARK VINA RESULT:      -4.6      2.286      5.173
REMARK  Name = 
REMARK  7 active torsions:
REMARK  status: ('A' for Active; 'I' for Inactive)
REMARK    1  A    between atoms: C_1  and  C_2
REMARK    2  A    between atoms: N_4  and  CA_5
REMARK    3  A    between atoms: CA_5  and  CB_7
REMARK    4  A    between atoms: CA_5  and  C_12
REMARK    5  A    between atoms: CB_7  and  CG_8
REMARK    6  A    between atoms: CG_8  and  CD_9
REMARK    7  A    between atoms: C_12  and  O_13
REMARK                            x       y       z     vdW  Elec       q    Type
REMARK                         _______ _______ _______ _____ _____    ______ ____
ROOT
ATOM      1  CA  GLN A   1       9.337  -1.602  24.341  0.00  0.00    +0.182 C 
ENDROOT
BRANCH   1   4
ATOM      2  C   UNK A   0       9.298   2.191  24.566  0.00  0.00    +0.109 C 
ATOM      3  C   UNK A   0       9.857   0.798  24.623  0.00  0.00    +0.211 C 
ATOM      4  N   GLN A   1       8.938  -0.194  24.388  0.00  0.00    -0.303 N 
ATOM      5  H   GLN A   1       7.963   0.027  24.211  0.00  0.00    +0.149 HD
ATOM      6  O   UNK A   0      11.048   0.582  24.831  0.00  0.00    -0.276 OA
ENDBRANCH   1   4
BRANCH   1   7
ATOM      7  C   GLN A   1       9.573  -1.987  22.879  0.00  0.00    +0.325 C 
ATOM      8  OXT GLN A   1      10.624  -1.774  22.284  0.00  0.00    -0.249 OA
BRANCH   7   9
ATOM      9  O   GLN A   1       8.507  -2.571  22.283  0.00  0.00    -0.479 OA
ATOM     10  H   GLN A   1       8.605  -3.546  22.158  0.00  0.00    +0.295 HD
ENDBRANCH   7   9
ENDBRANCH   1   7
BRANCH   1  11
ATOM     11  CB  GLN A   1       8.254  -2.478  24.984  0.00  0.00    +0.043 C 
BRANCH  11  12
ATOM     12  CG  GLN A   1       8.763  -3.599  25.894  0.00  0.00    +0.098 C 
BRANCH  12  13
ATOM     13  CD  GLN A   1       9.215  -4.813  25.117  0.00  0.00    +0.211 C 
ATOM     14  OE1 GLN A   1       8.706  -5.131  24.047  0.00  0.00    -0.276 OA
ATOM     15  NE2 GLN A   1      10.215  -5.536  25.688  0.00  0.00    -0.329 N 
ATOM     16 HE21 GLN A   1      10.529  -6.374  25.215  0.00  0.00    +0.145 HD
ATOM     17 HE22 GLN A   1      10.541  -5.379  26.633  0.00  0.00    +0.145 HD
ENDBRANCH  12  13
ENDBRANCH  11  12
ENDBRANCH   1  11
TORSDOF 6
ENDMDL
MODEL 7
REMARK VINA RESULT:      -4.5      3.093      5.694
REMARK  Name = 
REMARK  7 active torsions:
REMARK  status: ('A' for Active; 'I' for Inactive)
REMARK    1  A    between atoms: C_1  and  C_2
REMARK    2  A    between atoms: N_4  and  CA_5
REMARK    3  A    between atoms: CA_5  and  CB_7
REMARK    4  A    between atoms: CA_5  and  C_12
REMARK    5  A    between atoms: CB_7  and  CG_8
REMARK    6  A    between atoms: CG_8  and  CD_9
REMARK    7  A    between atoms: C_12  and  O_13
REMARK                            x       y       z     vdW  Elec       q    Type
REMARK                         _______ _______ _______ _____ _____    ______ ____
ROOT
ATOM      1  CA  GLN A   1       8.129  -4.121  24.633  0.00  0.00    +0.182 C 
ENDROOT
BRANCH   1   4
ATOM      2  C   UNK A   0      10.186  -1.565  22.717  0.00  0.00    +0.109 C 
ATOM      3  C   UNK A   0       9.374  -2.137  23.844  0.00  0.00    +0.211 C 
ATOM      4  N   GLN A   1       8.882  -3.397  23.608  0.00  0.00    -0.303 N 
ATOM      5  H   GLN A   1       9.055  -3.870  22.726  0.00  0.00    +0.149 HD
ATOM      6  O   UNK A   0       9.202  -1.530  24.897  0.00  0.00    -0.276 OA
ENDBRANCH   1   4
BRANCH   1   7
ATOM      7  C   GLN A   1       9.092  -5.056  25.369  0.00  0.00    +0.325 C 
ATOM      8  OXT GLN A   1      10.292  -5.119  25.126  0.00  0.00    -0.249 OA
BRANCH   7   9
ATOM      9  O   GLN A   1       8.499  -5.832  26.306  0.00  0.00    -0.479 OA
ATOM     10  H   GLN A   1       9.055  -5.982  27.109  0.00  0.00    +0.295 HD
ENDBRANCH   7   9
ENDBRANCH   1   7
BRANCH   1  11
ATOM     11  CB  GLN A   1       6.975  -4.900  23.988  0.00  0.00    +0.043 C 
BRANCH  11  12
ATOM     12  CG  GLN A   1       7.282  -5.535  22.630  0.00  0.00    +0.098 C 
BRANCH  12  13
ATOM     13  CD  GLN A   1       6.045  -5.704  21.779  0.00  0.00    +0.211 C 
ATOM     14  OE1 GLN A   1       5.998  -5.324  20.613  0.00  0.00    -0.276 OA
ATOM     15  NE2 GLN A   1       4.985  -6.294  22.393  0.00  0.00    -0.329 N 
ATOM     16 HE21 GLN A   1       4.127  -6.400  21.867  0.00  0.00    +0.145 HD
ATOM     17 HE22 GLN A   1       4.954  -6.475  23.388  0.00  0.00    +0.145 HD
ENDBRANCH  12  13
ENDBRANCH  11  12
ENDBRANCH   1  11
TORSDOF 6
ENDMDL
MODEL 8
REMARK VINA RESULT:      -4.5      3.949      6.639
REMARK  Name = 
REMARK  7 active torsions:
REMARK  status: ('A' for Active; 'I' for Inactive)
REMARK    1  A    between atoms: C_1  and  C_2
REMARK    2  A    between atoms: N_4  and  CA_5
REMARK    3  A    between atoms: CA_5  and  CB_7
REMARK    4  A    between atoms: CA_5  and  C_12
REMARK    5  A    between atoms: CB_7  and  CG_8
REMARK    6  A    between atoms: CG_8  and  CD_9
REMARK    7  A    between atoms: C_12  and  O_13
REMARK                            x       y       z     vdW  Elec       q    Type
REMARK                         _______ _______ _______ _____ _____    ______ ____
ROOT
ATOM      1  CA  GLN A   1       6.980  -4.872  23.660  0.00  0.00    +0.182 C 
ENDROOT
BRANCH   1   4
ATOM      2  C   UNK A   0       9.679  -2.226  24.048  0.00  0.00    +0.109 C 
ATOM      3  C   UNK A   0       9.027  -3.575  24.148  0.00  0.00    +0.211 C 
ATOM      4  N   GLN A   1       7.732  -3.617  23.694  0.00  0.00    -0.303 N 
ATOM      5  H   GLN A   1       7.275  -2.781  23.341  0.00  0.00    +0.149 HD
ATOM      6  O   UNK A   0       9.627  -4.558  24.574  0.00  0.00    -0.276 OA
ENDBRANCH   1   4
BRANCH   1   7
ATOM      7  C   GLN A   1       6.414  -5.057  22.250  0.00  0.00    +0.325 C 
ATOM      8  OXT GLN A   1       5.311  -4.649  21.906  0.00  0.00    -0.249 OA
BRANCH   7   9
ATOM      9  O   GLN A   1       7.232  -5.734  21.412  0.00  0.00    -0.479 OA
ATOM     10  H   GLN A   1       7.039  -6.702  21.364  0.00  0.00    +0.295 HD
ENDBRANCH   7   9
ENDBRANCH   1   7
BRANCH   1  11
ATOM     11  CB  GLN A   1       5.865  -4.847  24.714  0.00  0.00    +0.043 C 
BRANCH  11  12
ATOM     12  CG  GLN A   1       6.046  -5.804  25.894  0.00  0.00    +0.098 C 
BRANCH  12  13
ATOM     13  CD  GLN A   1       7.021  -5.278  26.920  0.00  0.00    +0.211 C 
ATOM     14  OE1 GLN A   1       6.726  -4.378  27.701  0.00  0.00    -0.276 OA
ATOM     15  NE2 GLN A   1       8.251  -5.859  26.914  0.00  0.00    -0.329 N 
ATOM     16 HE21 GLN A   1       8.945  -5.516  27.567  0.00  0.00    +0.145 HD
ATOM     17 HE22 GLN A   1       8.560  -6.490  26.186  0.00  0.00    +0.145 HD
ENDBRANCH  12  13
ENDBRANCH  11  12
ENDBRANCH   1  11
TORSDOF 6
ENDMDL
MODEL 9
REMARK VINA RESULT:      -4.5      1.726      2.203
REMARK  Name = 
REMARK  7 active torsions:
REMARK  status: ('A' for Active; 'I' for Inactive)
REMARK    1  A    between atoms: C_1  and  C_2
REMARK    2  A    between atoms: N_4  and  CA_5
REMARK    3  A    between atoms: CA_5  and  CB_7
REMARK    4  A    between atoms: CA_5  and  C_12
REMARK    5  A    between atoms: CB_7  and  CG_8
REMARK    6  A    between atoms: CG_8  and  CD_9
REMARK    7  A    between atoms: C_12  and  O_13
REMARK                            x       y       z     vdW  Elec       q    Type
REMARK                         _______ _______ _______ _____ _____    ______ ____
ROOT
ATOM      1  CA  GLN A   1       9.258  -2.227  23.179  0.00  0.00    +0.182 C 
ENDROOT
BRANCH   1   4
ATOM      2  C   UNK A   0       5.745  -3.079  22.008  0.00  0.00    +0.109 C 
ATOM      3  C   UNK A   0       7.142  -3.315  22.507  0.00  0.00    +0.211 C 
ATOM      4  N   GLN A   1       7.898  -2.177  22.640  0.00  0.00    -0.303 N 
ATOM      5  H   GLN A   1       7.520  -1.266  22.395  0.00  0.00    +0.149 HD
ATOM      6  O   UNK A   0       7.549  -4.435  22.799  0.00  0.00    -0.276 OA
ENDBRANCH   1   4
BRANCH   1   7
ATOM      7  C   GLN A   1       9.197  -1.899  24.673  0.00  0.00    +0.325 C 
ATOM      8  OXT GLN A   1       8.846  -2.703  25.529  0.00  0.00    -0.249 OA
BRANCH   7   9
ATOM      9  O   GLN A   1       9.545  -0.625  24.971  0.00  0.00    -0.479 OA
ATOM     10  H   GLN A   1      10.342  -0.557  25.552  0.00  0.00    +0.295 HD
ENDBRANCH   7   9
ENDBRANCH   1   7
BRANCH   1  11
ATOM     11  CB  GLN A   1      10.161  -1.243  22.424  0.00  0.00    +0.043 C 
BRANCH  11  12
ATOM     12  CG  GLN A   1       9.455  -0.338  21.412  0.00  0.00    +0.098 C 
BRANCH  12  13
ATOM     13  CD  GLN A   1       9.077   1.001  22.001  0.00  0.00    +0.211 C 
ATOM     14  OE1 GLN A   1       8.200   1.117  22.851  0.00  0.00    -0.276 OA
ATOM     15  NE2 GLN A   1       9.765   2.070  21.518  0.00  0.00    -0.329 N 
ATOM     16 HE21 GLN A   1       9.523   2.990  21.864  0.00  0.00    +0.145 HD
ATOM     17 HE22 GLN A   1      10.380   2.015  20.716  0.00  0.00    +0.145 HD
ENDBRANCH  12  13
ENDBRANCH  11  12
ENDBRANCH   1  11
TORSDOF 6
ENDMDL
