MODEL 1
REMARK VINA RESULT:      -4.9      0.000      0.000
REMARK  Name = 
REMARK  0 active torsions:
REMARK  status: ('A' for Active; 'I' for Inactive)
REMARK                            x       y       z     vdW  Elec       q    Type
REMARK                         _______ _______ _______ _____ _____    ______ ____
ROOT
ATOM      1  N   UNL     1      10.862   3.657  23.002  0.00  0.00    -0.329 N 
ATOM      2  H   UNL     1      10.654   4.246  23.797  0.00  0.00    +0.145 HD
ATOM      3  H   UNL     1      10.690   4.103  22.106  0.00  0.00    +0.145 HD
ATOM      4  C   UNL     1      10.458   2.364  23.038  0.00  0.00    +0.195 A 
ATOM      5  N   UNL     1      10.363   1.788  24.291  0.00  0.00    -0.293 N 
ATOM      6  H   UNL     1      10.616   2.312  25.110  0.00  0.00    +0.172 HD
ATOM      7  C   UNL     1       9.992   0.471  24.531  0.00  0.00    +0.280 A 
ATOM      8  O   UNL     1       9.941   0.008  25.666  0.00  0.00    -0.265 OA
ATOM      9  C   UNL     1       9.695  -0.243  23.308  0.00  0.00    +0.172 A 
ATOM     10  C   UNL     1       9.813   0.449  22.125  0.00  0.00    +0.167 A 
ATOM     11  N   UNL     1       9.497  -0.451  21.154  0.00  0.00    -0.329 N 
ATOM     12  H   UNL     1       9.491  -0.273  20.161  0.00  0.00    +0.168 HD
ATOM     13  C   UNL     1       9.214  -1.638  21.781  0.00  0.00    +0.199 A 
ATOM     14  N   UNL     1       9.318  -1.544  23.091  0.00  0.00    -0.229 NA
ATOM     15  N   UNL     1      10.180   1.735  21.927  0.00  0.00    -0.197 NA
ENDROOT
TORSDOF 0
ENDMDL
MODEL 2
REMARK VINA RESULT:      -4.9      6.459      7.029
REMARK  Name = 
REMARK  0 active torsions:
REMARK  status: ('A' for Active; 'I' for Inactive)
REMARK                            x       y       z     vdW  Elec       q    Type
REMARK                         _______ _______ _______ _____ _____    ______ ____
ROOT
ATOM      1  N   UNL     1      10.420  -5.496  25.637  0.00  0.00    -0.329 N 
ATOM      2  H   UNL     1      10.727  -5.400  26.595  0.00  0.00    +0.145 HD
ATOM      3  H   UNL     1      11.006  -5.007  24.968  0.00  0.00    +0.145 HD
ATOM      4  C   UNL     1       9.096  -5.374  25.373  0.00  0.00    +0.195 A 
ATOM      5  N   UNL     1       8.233  -5.732  26.392  0.00  0.00    -0.293 N 
ATOM      6  H   UNL     1       8.594  -6.089  27.259  0.00  0.00    +0.172 HD
ATOM      7  C   UNL     1       6.847  -5.701  26.303  0.00  0.00    +0.280 A 
ATOM      8  O   UNL     1       6.129  -6.046  27.237  0.00  0.00    -0.265 OA
ATOM      9  C   UNL     1       6.394  -5.230  25.012  0.00  0.00    +0.172 A 
ATOM     10  C   UNL     1       7.354  -4.891  24.088  0.00  0.00    +0.167 A 
ATOM     11  N   UNL     1       6.661  -4.506  22.981  0.00  0.00    -0.329 N 
ATOM     12  H   UNL     1       7.064  -4.200  22.108  0.00  0.00    +0.168 HD
ATOM     13  C   UNL     1       5.328  -4.636  23.274  0.00  0.00    +0.199 A 
ATOM     14  N   UNL     1       5.130  -5.067  24.504  0.00  0.00    -0.229 NA
ATOM     15  N   UNL     1       8.700  -4.936  24.206  0.00  0.00    -0.197 NA
ENDROOT
TORSDOF 0
ENDMDL
MODEL 3
REMARK VINA RESULT:      -4.9      2.234      2.741
REMARK  Name = 
REMARK  0 active torsions:
REMARK  status: ('A' for Active; 'I' for Inactive)
REMARK                            x       y       z     vdW  Elec       q    Type
REMARK                         _______ _______ _______ _____ _____    ______ ____
ROOT
ATOM      1  N   UNL     1       9.844   2.146  21.554  0.00  0.00    -0.329 N 
ATOM      2  H   UNL     1      10.825   2.313  21.732  0.00  0.00    +0.145 HD
ATOM      3  H   UNL     1       9.256   2.959  21.703  0.00  0.00    +0.145 HD
ATOM      4  C   UNL     1       9.294   0.999  22.023  0.00  0.00    +0.195 A 
ATOM      5  N   UNL     1      10.147  -0.082  22.148  0.00  0.00    -0.293 N 
ATOM      6  H   UNL     1      11.109  -0.003  21.869  0.00  0.00    +0.172 HD
ATOM      7  C   UNL     1       9.765  -1.344  22.585  0.00  0.00    +0.280 A 
ATOM      8  O   UNL     1      10.564  -2.273  22.661  0.00  0.00    -0.265 OA
ATOM      9  C   UNL     1       8.358  -1.404  22.917  0.00  0.00    +0.172 A 
ATOM     10  C   UNL     1       7.621  -0.254  22.763  0.00  0.00    +0.167 A 
ATOM     11  N   UNL     1       6.353  -0.594  23.124  0.00  0.00    -0.329 N 
ATOM     12  H   UNL     1       5.552   0.020  23.120  0.00  0.00    +0.168 HD
ATOM     13  C   UNL     1       6.374  -1.921  23.468  0.00  0.00    +0.199 A 
ATOM     14  N   UNL     1       7.579  -2.443  23.360  0.00  0.00    -0.229 NA
ATOM     15  N   UNL     1       8.024   0.962  22.332  0.00  0.00    -0.197 NA
ENDROOT
TORSDOF 0
ENDMDL
MODEL 4
REMARK VINA RESULT:      -4.8      1.879      2.925
REMARK  Name = 
REMARK  0 active torsions:
REMARK  status: ('A' for Active; 'I' for Inactive)
REMARK                            x       y       z     vdW  Elec       q    Type
REMARK                         _______ _______ _______ _____ _____    ______ ____
ROOT
ATOM      1  N   UNL     1      10.215   2.368  21.692  0.00  0.00    -0.329 N 
ATOM      2  H   UNL     1      10.813   2.189  20.897  0.00  0.00    +0.145 HD
ATOM      3  H   UNL     1      10.422   3.238  22.173  0.00  0.00    +0.145 HD
ATOM      4  C   UNL     1       9.948   1.343  22.537  0.00  0.00    +0.195 A 
ATOM      5  N   UNL     1       9.970   0.075  21.987  0.00  0.00    -0.293 N 
ATOM      6  H   UNL     1      10.145  -0.048  21.006  0.00  0.00    +0.172 HD
ATOM      7  C   UNL     1       9.698  -1.095  22.685  0.00  0.00    +0.280 A 
ATOM      8  O   UNL     1       9.716  -2.194  22.140  0.00  0.00    -0.265 OA
ATOM      9  C   UNL     1       9.400  -0.842  24.078  0.00  0.00    +0.172 A 
ATOM     10  C   UNL     1       9.426   0.464  24.506  0.00  0.00    +0.167 A 
ATOM     11  N   UNL     1       9.098   0.413  25.826  0.00  0.00    -0.329 N 
ATOM     12  H   UNL     1       9.018   1.204  26.446  0.00  0.00    +0.168 HD
ATOM     13  C   UNL     1       8.881  -0.905  26.136  0.00  0.00    +0.199 A 
ATOM     14  N   UNL     1       9.063  -1.696  25.098  0.00  0.00    -0.229 NA
ATOM     15  N   UNL     1       9.693   1.584  23.797  0.00  0.00    -0.197 NA
ENDROOT
TORSDOF 0
ENDMDL
MODEL 5
REMARK VINA RESULT:      -4.8      4.955      6.342
REMARK  Name = 
REMARK  0 active torsions:
REMARK  status: ('A' for Active; 'I' for Inactive)
REMARK                            x       y       z     vdW  Elec       q    Type
REMARK                         _______ _______ _______ _____ _____    ______ ____
ROOT
ATOM      1  N   UNL     1       7.933  -5.836  27.121  0.00  0.00    -0.329 N 
ATOM      2  H   UNL     1       8.839  -6.147  27.444  0.00  0.00    +0.145 HD
ATOM      3  H   UNL     1       7.192  -6.516  27.263  0.00  0.00    +0.145 HD
ATOM      4  C   UNL     1       7.859  -5.212  25.920  0.00  0.00    +0.195 A 
ATOM      5  N   UNL     1       8.986  -4.519  25.520  0.00  0.00    -0.293 N 
ATOM      6  H   UNL     1       9.790  -4.470  26.121  0.00  0.00    +0.172 HD
ATOM      7  C   UNL     1       9.093  -3.798  24.338  0.00  0.00    +0.280 A 
ATOM      8  O   UNL     1      10.115  -3.186  24.042  0.00  0.00    -0.265 OA
ATOM      9  C   UNL     1       7.883  -3.864  23.547  0.00  0.00    +0.172 A 
ATOM     10  C   UNL     1       6.836  -4.600  24.050  0.00  0.00    +0.167 A 
ATOM     11  N   UNL     1       5.841  -4.478  23.129  0.00  0.00    -0.329 N 
ATOM     12  H   UNL     1       4.924  -4.892  23.191  0.00  0.00    +0.168 HD
ATOM     13  C   UNL     1       6.318  -3.675  22.124  0.00  0.00    +0.199 A 
ATOM     14  N   UNL     1       7.559  -3.289  22.344  0.00  0.00    -0.229 NA
ATOM     15  N   UNL     1       6.764  -5.290  25.210  0.00  0.00    -0.197 NA
ENDROOT
TORSDOF 0
ENDMDL
MODEL 6
REMARK VINA RESULT:      -4.7      3.593      5.686
REMARK  Name = 
REMARK  0 active torsions:
REMARK  status: ('A' for Active; 'I' for Inactive)
REMARK                            x       y       z     vdW  Elec       q    Type
REMARK                         _______ _______ _______ _____ _____    ______ ____
ROOT
ATOM      1  N   UNL     1       9.771  -5.832  25.625  0.00  0.00    -0.329 N 
ATOM      2  H   UNL     1       9.153  -6.386  26.202  0.00  0.00    +0.145 HD
ATOM      3  H   UNL     1      10.606  -5.513  26.107  0.00  0.00    +0.145 HD
ATOM      4  C   UNL     1       9.224  -4.882  24.828  0.00  0.00    +0.195 A 
ATOM      5  N   UNL     1       7.933  -5.120  24.392  0.00  0.00    -0.293 N 
ATOM      6  H   UNL     1       7.463  -5.972  24.641  0.00  0.00    +0.172 HD
ATOM      7  C   UNL     1       7.215  -4.279  23.550  0.00  0.00    +0.280 A 
ATOM      8  O   UNL     1       6.076  -4.550  23.181  0.00  0.00    -0.265 OA
ATOM      9  C   UNL     1       7.969  -3.100  23.184  0.00  0.00    +0.172 A 
ATOM     10  C   UNL     1       9.239  -2.974  23.697  0.00  0.00    +0.167 A 
ATOM     11  N   UNL     1       9.715  -1.805  23.187  0.00  0.00    -0.329 N 
ATOM     12  H   UNL     1      10.628  -1.414  23.358  0.00  0.00    +0.168 HD
ATOM     13  C   UNL     1       8.729  -1.284  22.389  0.00  0.00    +0.199 A 
ATOM     14  N   UNL     1       7.652  -2.042  22.370  0.00  0.00    -0.229 NA
ATOM     15  N   UNL     1       9.911  -3.815  24.515  0.00  0.00    -0.197 NA
ENDROOT
TORSDOF 0
ENDMDL
MODEL 7
REMARK VINA RESULT:      -4.6      3.471      4.626
REMARK  Name = 
REMARK  0 active torsions:
REMARK  status: ('A' for Active; 'I' for Inactive)
REMARK                            x       y       z     vdW  Elec       q    Type
REMARK                         _______ _______ _______ _____ _____    ______ ____
ROOT
ATOM      1  N   UNL     1       8.656   0.430  25.988  0.00  0.00    -0.329 N 
ATOM      2  H   UNL     1       9.325   1.123  25.681  0.00  0.00    +0.145 HD
ATOM      3  H   UNL     1       8.370   0.537  26.956  0.00  0.00    +0.145 HD
ATOM      4  C   UNL     1       8.864  -0.862  25.635  0.00  0.00    +0.195 A 
ATOM      5  N   UNL     1       9.551  -1.071  24.453  0.00  0.00    -0.293 N 
ATOM      6  H   UNL     1       9.840  -0.290  23.891  0.00  0.00    +0.172 HD
ATOM      7  C   UNL     1       9.837  -2.319  23.914  0.00  0.00    +0.280 A 
ATOM      8  O   UNL     1      10.436  -2.444  22.851  0.00  0.00    -0.265 OA
ATOM      9  C   UNL     1       9.345  -3.397  24.744  0.00  0.00    +0.172 A 
ATOM     10  C   UNL     1       8.690  -3.057  25.904  0.00  0.00    +0.167 A 
ATOM     11  N   UNL     1       8.328  -4.242  26.469  0.00  0.00    -0.329 N 
ATOM     12  H   UNL     1       7.820  -4.354  27.332  0.00  0.00    +0.168 HD
ATOM     13  C   UNL     1       8.765  -5.237  25.632  0.00  0.00    +0.199 A 
ATOM     14  N   UNL     1       9.393  -4.758  24.577  0.00  0.00    -0.229 NA
ATOM     15  N   UNL     1       8.425  -1.828  26.400  0.00  0.00    -0.197 NA
ENDROOT
TORSDOF 0
ENDMDL
MODEL 8
REMARK VINA RESULT:      -4.5      2.261      4.395
REMARK  Name = 
REMARK  0 active torsions:
REMARK  status: ('A' for Active; 'I' for Inactive)
REMARK                            x       y       z     vdW  Elec       q    Type
REMARK                         _______ _______ _______ _____ _____    ______ ____
ROOT
ATOM      1  N   UNL     1       8.395  -3.263  26.064  0.00  0.00    -0.329 N 
ATOM      2  H   UNL     1       8.114  -4.092  25.558  0.00  0.00    +0.145 HD
ATOM      3  H   UNL     1       7.746  -2.989  26.794  0.00  0.00    +0.145 HD
ATOM      4  C   UNL     1       8.874  -2.211  25.357  0.00  0.00    +0.195 A 
ATOM      5  N   UNL     1       9.503  -2.512  24.163  0.00  0.00    -0.293 N 
ATOM      6  H   UNL     1       9.613  -3.468  23.875  0.00  0.00    +0.172 HD
ATOM      7  C   UNL     1      10.079  -1.575  23.313  0.00  0.00    +0.280 A 
ATOM      8  O   UNL     1      10.639  -1.902  22.272  0.00  0.00    -0.265 OA
ATOM      9  C   UNL     1       9.934  -0.225  23.813  0.00  0.00    +0.172 A 
ATOM     10  C   UNL     1       9.274  -0.058  25.007  0.00  0.00    +0.167 A 
ATOM     11  N   UNL     1       9.298   1.283  25.242  0.00  0.00    -0.329 N 
ATOM     12  H   UNL     1       8.905   1.750  26.045  0.00  0.00    +0.168 HD
ATOM     13  C   UNL     1       9.972   1.863  24.197  0.00  0.00    +0.199 A 
ATOM     14  N   UNL     1      10.366   0.975  23.307  0.00  0.00    -0.229 NA
ATOM     15  N   UNL     1       8.726  -0.995  25.813  0.00  0.00    -0.197 NA
ENDROOT
TORSDOF 0
ENDMDL
MODEL 9
REMARK VINA RESULT:      -4.4      5.955      7.394
REMARK  Name = 
REMARK  0 active torsions:
REMARK  status: ('A' for Active; 'I' for Inactive)
REMARK                            x       y       z     vdW  Elec       q    Type
REMARK                         _______ _______ _______ _____ _____    ______ ____
ROOT
ATOM      1  N   UNL     1       4.173  -5.588  24.923  0.00  0.00    -0.329 N 
ATOM      2  H   UNL     1       3.533  -4.979  24.431  0.00  0.00    +0.145 HD
ATOM      3  H   UNL     1       3.871  -5.826  25.863  0.00  0.00    +0.145 HD
ATOM      4  C   UNL     1       5.500  -5.324  24.842  0.00  0.00    +0.195 A 
ATOM      5  N   UNL     1       5.928  -4.693  23.690  0.00  0.00    -0.293 N 
ATOM      6  H   UNL     1       5.276  -4.482  22.955  0.00  0.00    +0.172 HD
ATOM      7  C   UNL     1       7.249  -4.363  23.412  0.00  0.00    +0.280 A 
ATOM      8  O   UNL     1       7.575  -3.817  22.363  0.00  0.00    -0.265 OA
ATOM      9  C   UNL     1       8.143  -4.744  24.485  0.00  0.00    +0.172 A 
ATOM     10  C   UNL     1       7.589  -5.352  25.586  0.00  0.00    +0.167 A 
ATOM     11  N   UNL     1       8.637  -5.612  26.415  0.00  0.00    -0.329 N 
ATOM     12  H   UNL     1       8.583  -6.064  27.315  0.00  0.00    +0.168 HD
ATOM     13  C   UNL     1       9.770  -5.164  25.783  0.00  0.00    +0.199 A 
ATOM     14  N   UNL     1       9.504  -4.624  24.611  0.00  0.00    -0.229 NA
ATOM     15  N   UNL     1       6.294  -5.662  25.824  0.00  0.00    -0.197 NA
ENDROOT
TORSDOF 0
ENDMDL
