MODEL 1
REMARK VINA RESULT:      -7.7      0.000      0.000
REMARK  Name = 
REMARK  4 active torsions:
REMARK  status: ('A' for Active; 'I' for Inactive)
REMARK    1  A    between atoms: C_2  and  C_21
REMARK    2  A    between atoms: N_3  and  C_4
REMARK    3  A    between atoms: C_12  and  C_14
REMARK    4  A    between atoms: C_14  and  C_15
REMARK                            x       y       z     vdW  Elec       q    Type
REMARK                         _______ _______ _______ _____ _____    ______ ____
ROOT
ATOM      1  C   UNL     1       7.597  -0.366  22.795  0.00  0.00    +0.094 C 
ATOM      2  C   UNL     1       8.920  -0.467  23.667  0.00  0.00    +0.081 C 
ATOM      3  N   UNL     1       9.657   0.847  23.661  0.00  0.00    -0.297 NA
ATOM      4  C   UNL     1       9.874   1.292  22.263  0.00  0.00    +0.085 C 
ATOM      5  C   UNL     1       8.543   1.532  21.523  0.00  0.00    +0.021 C 
ATOM      6  C   UNL     1       8.861   1.888  24.341  0.00  0.00    +0.085 C 
ATOM      7  C   UNL     1       7.487   2.057  23.676  0.00  0.00    +0.021 C 
ATOM      8  C   UNL     1       7.364   1.134  22.449  0.00  0.00    +0.013 C 
ENDROOT
BRANCH   1  11
ATOM      9  O   UNL     1       7.056  -2.898  21.967  0.00  0.00    -0.267 OA
ATOM     10  C   UNL     1       6.251  -2.431  22.775  0.00  0.00    +0.280 C 
ATOM     11  N   UNL     1       6.429  -1.132  23.263  0.00  0.00    -0.304 N 
ATOM     12  H   UNL     1       5.607  -0.667  23.612  0.00  0.00    +0.149 HD
BRANCH  10  13
ATOM     13  C   UNL     1       5.209  -3.259  23.355  0.00  0.00    +0.190 A 
ATOM     14  O   UNL     1       4.557  -4.263  22.681  0.00  0.00    -0.450 OA
ATOM     15  C   UNL     1       3.515  -4.663  23.486  0.00  0.00    +0.136 A 
ATOM     16  C   UNL     1       3.500  -3.920  24.662  0.00  0.00    +0.021 A 
ATOM     17  C   UNL     1       2.425  -4.066  25.560  0.00  0.00    +0.011 A 
ATOM     18  C   UNL     1       1.388  -4.945  25.229  0.00  0.00    +0.001 A 
ATOM     19  C   UNL     1       1.459  -5.725  24.073  0.00  0.00    +0.004 A 
ATOM     20  C   UNL     1       2.543  -5.621  23.185  0.00  0.00    +0.047 A 
ATOM     21  C   UNL     1       4.655  -3.114  24.616  0.00  0.00    +0.063 A 
ENDBRANCH  10  13
ENDBRANCH   1  11
BRANCH   2  22
ATOM     22  C   UNL     1       8.728  -1.024  25.110  0.00  0.00    +0.057 C 
BRANCH  22  23
ATOM     23  C   UNL     1       8.762  -2.525  25.297  0.00  0.00    -0.028 A 
ATOM     24  C   UNL     1       8.137  -3.173  26.368  0.00  0.00    +0.006 A 
ATOM     25  C   UNL     1       8.347  -4.535  26.580  0.00  0.00    +0.020 A 
ATOM     26  C   UNL     1       9.187  -5.215  25.717  0.00  0.00    +0.111 A 
ATOM     27  N   UNL     1       9.803  -4.635  24.665  0.00  0.00    -0.263 NA
ATOM     28  C   UNL     1       9.579  -3.312  24.481  0.00  0.00    +0.114 A 
ENDBRANCH  22  23
ENDBRANCH   2  22
TORSDOF 4
ENDMDL
MODEL 2
REMARK VINA RESULT:      -7.5      2.844      7.303
REMARK  Name = 
REMARK  4 active torsions:
REMARK  status: ('A' for Active; 'I' for Inactive)
REMARK    1  A    between atoms: C_2  and  C_21
REMARK    2  A    between atoms: N_3  and  C_4
REMARK    3  A    between atoms: C_12  and  C_14
REMARK    4  A    between atoms: C_14  and  C_15
REMARK                            x       y       z     vdW  Elec       q    Type
REMARK                         _______ _______ _______ _____ _____    ______ ____
ROOT
ATOM      1  C   UNL     1       6.475  -5.010  26.788  0.00  0.00    +0.094 C 
ATOM      2  C   UNL     1       5.210  -5.593  26.025  0.00  0.00    +0.081 C 
ATOM      3  N   UNL     1       4.160  -6.039  27.008  0.00  0.00    -0.297 NA
ATOM      4  C   UNL     1       4.762  -6.965  27.998  0.00  0.00    +0.085 C 
ATOM      5  C   UNL     1       5.873  -6.283  28.821  0.00  0.00    +0.021 C 
ATOM      6  C   UNL     1       3.624  -4.880  27.750  0.00  0.00    +0.085 C 
ATOM      7  C   UNL     1       4.743  -4.129  28.487  0.00  0.00    +0.021 C 
ATOM      8  C   UNL     1       6.094  -4.843  28.289  0.00  0.00    +0.013 C 
ENDROOT
BRANCH   1  11
ATOM      9  O   UNL     1       8.556  -5.347  25.072  0.00  0.00    -0.267 OA
ATOM     10  C   UNL     1       8.235  -4.175  25.278  0.00  0.00    +0.280 C 
ATOM     11  N   UNL     1       7.181  -3.885  26.150  0.00  0.00    -0.304 N 
ATOM     12  H   UNL     1       7.179  -2.967  26.565  0.00  0.00    +0.149 HD
BRANCH  10  13
ATOM     13  C   UNL     1       8.824  -3.093  24.509  0.00  0.00    +0.190 A 
ATOM     14  O   UNL     1       9.403  -1.979  25.066  0.00  0.00    -0.450 OA
ATOM     15  C   UNL     1       9.648  -1.106  24.031  0.00  0.00    +0.136 A 
ATOM     16  C   UNL     1       9.228  -1.656  22.825  0.00  0.00    +0.021 A 
ATOM     17  C   UNL     1       9.249  -0.868  21.658  0.00  0.00    +0.011 A 
ATOM     18  C   UNL     1       9.677   0.461  21.754  0.00  0.00    +0.001 A 
ATOM     19  C   UNL     1      10.153   0.969  22.964  0.00  0.00    +0.004 A 
ATOM     20  C   UNL     1      10.175   0.185  24.129  0.00  0.00    +0.047 A 
ATOM     21  C   UNL     1       8.816  -2.969  23.131  0.00  0.00    +0.063 A 
ENDBRANCH  10  13
ENDBRANCH   1  11
BRANCH   2  22
ATOM     22  C   UNL     1       4.620  -4.674  24.912  0.00  0.00    +0.057 C 
BRANCH  22  23
ATOM     23  C   UNL     1       5.122  -4.868  23.498  0.00  0.00    -0.028 A 
ATOM     24  C   UNL     1       5.726  -6.051  23.060  0.00  0.00    +0.006 A 
ATOM     25  C   UNL     1       6.321  -6.109  21.801  0.00  0.00    +0.020 A 
ATOM     26  C   UNL     1       6.305  -4.973  21.012  0.00  0.00    +0.111 A 
ATOM     27  N   UNL     1       5.725  -3.813  21.387  0.00  0.00    -0.263 NA
ATOM     28  C   UNL     1       5.153  -3.787  22.614  0.00  0.00    +0.114 A 
ENDBRANCH  22  23
ENDBRANCH   2  22
TORSDOF 4
ENDMDL
MODEL 3
REMARK VINA RESULT:      -7.3      2.827      7.217
REMARK  Name = 
REMARK  4 active torsions:
REMARK  status: ('A' for Active; 'I' for Inactive)
REMARK    1  A    between atoms: C_2  and  C_21
REMARK    2  A    between atoms: N_3  and  C_4
REMARK    3  A    between atoms: C_12  and  C_14
REMARK    4  A    between atoms: C_14  and  C_15
REMARK                            x       y       z     vdW  Elec       q    Type
REMARK                         _______ _______ _______ _____ _____    ______ ____
ROOT
ATOM      1  C   UNL     1       6.928  -1.672  24.032  0.00  0.00    +0.094 C 
ATOM      2  C   UNL     1       8.184  -2.455  23.455  0.00  0.00    +0.081 C 
ATOM      3  N   UNL     1       7.797  -3.857  23.064  0.00  0.00    -0.297 NA
ATOM      4  C   UNL     1       7.125  -4.527  24.203  0.00  0.00    +0.085 C 
ATOM      5  C   UNL     1       5.821  -3.809  24.605  0.00  0.00    +0.021 C 
ATOM      6  C   UNL     1       6.844  -3.832  21.936  0.00  0.00    +0.085 C 
ATOM      7  C   UNL     1       5.588  -3.024  22.290  0.00  0.00    +0.021 C 
ATOM      8  C   UNL     1       5.659  -2.526  23.747  0.00  0.00    +0.013 C 
ENDROOT
BRANCH   1  11
ATOM      9  O   UNL     1       7.408   0.255  25.888  0.00  0.00    -0.267 OA
ATOM     10  C   UNL     1       7.118   0.674  24.766  0.00  0.00    +0.280 C 
ATOM     11  N   UNL     1       6.845  -0.232  23.735  0.00  0.00    -0.304 N 
ATOM     12  H   UNL     1       6.282   0.110  22.973  0.00  0.00    +0.149 HD
BRANCH  10  13
ATOM     13  C   UNL     1       7.211   2.087  24.447  0.00  0.00    +0.190 A 
ATOM     14  O   UNL     1       6.805   2.637  23.256  0.00  0.00    -0.450 OA
ATOM     15  C   UNL     1       7.244   3.942  23.257  0.00  0.00    +0.136 A 
ATOM     16  C   UNL     1       7.924   4.222  24.437  0.00  0.00    +0.021 A 
ATOM     17  C   UNL     1       8.586   5.457  24.579  0.00  0.00    +0.011 A 
ATOM     18  C   UNL     1       8.554   6.362  23.512  0.00  0.00    +0.001 A 
ATOM     19  C   UNL     1       7.810   6.082  22.364  0.00  0.00    +0.004 A 
ATOM     20  C   UNL     1       7.112   4.871  22.222  0.00  0.00    +0.047 A 
ATOM     21  C   UNL     1       7.791   3.067  25.234  0.00  0.00    +0.063 A 
ENDBRANCH  10  13
ENDBRANCH   1  11
BRANCH   2  22
ATOM     22  C   UNL     1       8.964  -1.723  22.321  0.00  0.00    +0.057 C 
BRANCH  22  23
ATOM     23  C   UNL     1       9.719  -0.463  22.684  0.00  0.00    -0.028 A 
ATOM     24  C   UNL     1      10.373  -0.294  23.909  0.00  0.00    +0.006 A 
ATOM     25  C   UNL     1      10.904   0.948  24.254  0.00  0.00    +0.020 A 
ATOM     26  C   UNL     1      10.757   1.997  23.364  0.00  0.00    +0.111 A 
ATOM     27  N   UNL     1      10.143   1.879  22.167  0.00  0.00    -0.263 NA
ATOM     28  C   UNL     1       9.640   0.660  21.858  0.00  0.00    +0.114 A 
ENDBRANCH  22  23
ENDBRANCH   2  22
TORSDOF 4
ENDMDL
MODEL 4
REMARK VINA RESULT:      -7.1      1.794      2.290
REMARK  Name = 
REMARK  4 active torsions:
REMARK  status: ('A' for Active; 'I' for Inactive)
REMARK    1  A    between atoms: C_2  and  C_21
REMARK    2  A    between atoms: N_3  and  C_4
REMARK    3  A    between atoms: C_12  and  C_14
REMARK    4  A    between atoms: C_14  and  C_15
REMARK                            x       y       z     vdW  Elec       q    Type
REMARK                         _______ _______ _______ _____ _____    ______ ____
ROOT
ATOM      1  C   UNL     1       8.061  -2.416  23.268  0.00  0.00    +0.094 C 
ATOM      2  C   UNL     1       8.690  -2.003  24.666  0.00  0.00    +0.081 C 
ATOM      3  N   UNL     1       9.459  -0.715  24.539  0.00  0.00    -0.297 NA
ATOM      4  C   UNL     1      10.439  -0.824  23.432  0.00  0.00    +0.085 C 
ATOM      5  C   UNL     1       9.749  -1.058  22.074  0.00  0.00    +0.021 C 
ATOM      6  C   UNL     1       8.546   0.401  24.218  0.00  0.00    +0.085 C 
ATOM      7  C   UNL     1       7.771   0.125  22.921  0.00  0.00    +0.021 C 
ATOM      8  C   UNL     1       8.221  -1.210  22.296  0.00  0.00    +0.013 C 
ENDROOT
BRANCH   1  11
ATOM      9  O   UNL     1       7.748  -5.099  22.962  0.00  0.00    -0.267 OA
ATOM     10  C   UNL     1       6.703  -4.469  23.134  0.00  0.00    +0.280 C 
ATOM     11  N   UNL     1       6.746  -3.080  23.297  0.00  0.00    -0.304 N 
ATOM     12  H   UNL     1       5.903  -2.575  23.077  0.00  0.00    +0.149 HD
BRANCH  10  13
ATOM     13  C   UNL     1       5.440  -5.156  23.334  0.00  0.00    +0.190 A 
ATOM     14  O   UNL     1       4.251  -4.763  22.769  0.00  0.00    -0.450 OA
ATOM     15  C   UNL     1       3.267  -5.527  23.355  0.00  0.00    +0.136 A 
ATOM     16  C   UNL     1       3.822  -6.398  24.286  0.00  0.00    +0.021 A 
ATOM     17  C   UNL     1       2.975  -7.165  25.109  0.00  0.00    +0.011 A 
ATOM     18  C   UNL     1       1.590  -7.011  24.975  0.00  0.00    +0.001 A 
ATOM     19  C   UNL     1       1.060  -6.177  23.989  0.00  0.00    +0.004 A 
ATOM     20  C   UNL     1       1.890  -5.434  23.134  0.00  0.00    +0.047 A 
ATOM     21  C   UNL     1       5.218  -6.233  24.175  0.00  0.00    +0.063 A 
ENDBRANCH  10  13
ENDBRANCH   1  11
BRANCH   2  22
ATOM     22  C   UNL     1       7.694  -1.977  25.865  0.00  0.00    +0.057 C 
BRANCH  22  23
ATOM     23  C   UNL     1       7.210  -3.303  26.410  0.00  0.00    -0.028 A 
ATOM     24  C   UNL     1       5.900  -3.509  26.856  0.00  0.00    +0.006 A 
ATOM     25  C   UNL     1       5.560  -4.696  27.504  0.00  0.00    +0.020 A 
ATOM     26  C   UNL     1       6.547  -5.646  27.698  0.00  0.00    +0.111 A 
ATOM     27  N   UNL     1       7.821  -5.495  27.276  0.00  0.00    -0.263 NA
ATOM     28  C   UNL     1       8.121  -4.334  26.647  0.00  0.00    +0.114 A 
ENDBRANCH  22  23
ENDBRANCH   2  22
TORSDOF 4
ENDMDL
MODEL 5
REMARK VINA RESULT:      -6.9      1.739      2.457
REMARK  Name = 
REMARK  4 active torsions:
REMARK  status: ('A' for Active; 'I' for Inactive)
REMARK    1  A    between atoms: C_2  and  C_21
REMARK    2  A    between atoms: N_3  and  C_4
REMARK    3  A    between atoms: C_12  and  C_14
REMARK    4  A    between atoms: C_14  and  C_15
REMARK                            x       y       z     vdW  Elec       q    Type
REMARK                         _______ _______ _______ _____ _____    ______ ____
ROOT
ATOM      1  C   UNL     1       8.772   0.256  22.906  0.00  0.00    +0.094 C 
ATOM      2  C   UNL     1       9.042   0.862  24.349  0.00  0.00    +0.081 C 
ATOM      3  N   UNL     1       9.441   2.310  24.247  0.00  0.00    -0.297 NA
ATOM      4  C   UNL     1      10.572   2.453  23.298  0.00  0.00    +0.085 C 
ATOM      5  C   UNL     1      10.188   2.002  21.875  0.00  0.00    +0.021 C 
ATOM      6  C   UNL     1       8.319   3.118  23.727  0.00  0.00    +0.085 C 
ATOM      7  C   UNL     1       7.857   2.606  22.355  0.00  0.00    +0.021 C 
ATOM      8  C   UNL     1       8.745   1.435  21.889  0.00  0.00    +0.013 C 
ENDROOT
BRANCH   1  11
ATOM      9  O   UNL     1       9.254  -2.394  22.540  0.00  0.00    -0.267 OA
ATOM     10  C   UNL     1       8.063  -2.086  22.611  0.00  0.00    +0.280 C 
ATOM     11  N   UNL     1       7.699  -0.747  22.792  0.00  0.00    -0.304 N 
ATOM     12  H   UNL     1       6.773  -0.488  22.493  0.00  0.00    +0.149 HD
BRANCH  10  13
ATOM     13  C   UNL     1       7.030  -3.105  22.673  0.00  0.00    +0.190 A 
ATOM     14  O   UNL     1       5.695  -2.839  22.858  0.00  0.00    -0.450 OA
ATOM     15  C   UNL     1       5.079  -4.052  23.068  0.00  0.00    +0.136 A 
ATOM     16  C   UNL     1       6.012  -5.082  23.018  0.00  0.00    +0.021 A 
ATOM     17  C   UNL     1       5.617  -6.391  23.355  0.00  0.00    +0.011 A 
ATOM     18  C   UNL     1       4.293  -6.612  23.752  0.00  0.00    +0.001 A 
ATOM     19  C   UNL     1       3.362  -5.571  23.731  0.00  0.00    +0.004 A 
ATOM     20  C   UNL     1       3.730  -4.267  23.360  0.00  0.00    +0.047 A 
ATOM     21  C   UNL     1       7.229  -4.475  22.647  0.00  0.00    +0.063 A 
ENDBRANCH  10  13
ENDBRANCH   1  11
BRANCH   2  22
ATOM     22  C   UNL     1       7.904   0.638  25.390  0.00  0.00    +0.057 C 
BRANCH  22  23
ATOM     23  C   UNL     1       7.663  -0.773  25.880  0.00  0.00    -0.028 A 
ATOM     24  C   UNL     1       8.695  -1.697  26.075  0.00  0.00    +0.006 A 
ATOM     25  C   UNL     1       8.398  -3.029  26.361  0.00  0.00    +0.020 A 
ATOM     26  C   UNL     1       7.069  -3.405  26.436  0.00  0.00    +0.111 A 
ATOM     27  N   UNL     1       6.040  -2.547  26.266  0.00  0.00    -0.263 NA
ATOM     28  C   UNL     1       6.359  -1.260  25.992  0.00  0.00    +0.114 A 
ENDBRANCH  22  23
ENDBRANCH   2  22
TORSDOF 4
ENDMDL
MODEL 6
REMARK VINA RESULT:      -6.9      3.185      4.918
REMARK  Name = 
REMARK  4 active torsions:
REMARK  status: ('A' for Active; 'I' for Inactive)
REMARK    1  A    between atoms: C_2  and  C_21
REMARK    2  A    between atoms: N_3  and  C_4
REMARK    3  A    between atoms: C_12  and  C_14
REMARK    4  A    between atoms: C_14  and  C_15
REMARK                            x       y       z     vdW  Elec       q    Type
REMARK                         _______ _______ _______ _____ _____    ______ ____
ROOT
ATOM      1  C   UNL     1       7.445   3.310  23.949  0.00  0.00    +0.094 C 
ATOM      2  C   UNL     1       8.824   3.806  23.336  0.00  0.00    +0.081 C 
ATOM      3  N   UNL     1       9.013   5.279  23.589  0.00  0.00    -0.297 NA
ATOM      4  C   UNL     1       7.824   6.026  23.113  0.00  0.00    +0.085 C 
ATOM      5  C   UNL     1       6.545   5.612  23.869  0.00  0.00    +0.021 C 
ATOM      6  C   UNL     1       9.154   5.539  25.036  0.00  0.00    +0.085 C 
ATOM      7  C   UNL     1       7.930   5.029  25.811  0.00  0.00    +0.021 C 
ATOM      8  C   UNL     1       6.879   4.452  24.843  0.00  0.00    +0.013 C 
ENDROOT
BRANCH   1  11
ATOM      9  O   UNL     1       6.413   1.180  22.611  0.00  0.00    -0.267 OA
ATOM     10  C   UNL     1       6.865   0.924  23.728  0.00  0.00    +0.280 C 
ATOM     11  N   UNL     1       7.415   1.947  24.508  0.00  0.00    -0.304 N 
ATOM     12  H   UNL     1       7.438   1.792  25.503  0.00  0.00    +0.149 HD
BRANCH  10  13
ATOM     13  C   UNL     1       6.986  -0.447  24.190  0.00  0.00    +0.190 A 
ATOM     14  O   UNL     1       7.541  -0.810  25.393  0.00  0.00    -0.450 OA
ATOM     15  C   UNL     1       7.663  -2.181  25.371  0.00  0.00    +0.136 A 
ATOM     16  C   UNL     1       7.191  -2.688  24.166  0.00  0.00    +0.021 A 
ATOM     17  C   UNL     1       7.361  -4.056  23.876  0.00  0.00    +0.011 A 
ATOM     18  C   UNL     1       8.023  -4.863  24.809  0.00  0.00    +0.001 A 
ATOM     19  C   UNL     1       8.430  -4.341  26.038  0.00  0.00    +0.004 A 
ATOM     20  C   UNL     1       8.233  -2.987  26.360  0.00  0.00    +0.047 A 
ATOM     21  C   UNL     1       6.654  -1.584  23.474  0.00  0.00    +0.063 A 
ENDBRANCH  10  13
ENDBRANCH   1  11
BRANCH   2  22
ATOM     22  C   UNL     1      10.076   2.974  23.747  0.00  0.00    +0.057 C 
BRANCH  22  23
ATOM     23  C   UNL     1      10.208   1.575  23.186  0.00  0.00    -0.028 A 
ATOM     24  C   UNL     1       9.818   1.236  21.886  0.00  0.00    +0.006 A 
ATOM     25  C   UNL     1       9.804  -0.099  21.485  0.00  0.00    +0.020 A 
ATOM     26  C   UNL     1      10.174  -1.066  22.402  0.00  0.00    +0.111 A 
ATOM     27  N   UNL     1      10.568  -0.786  23.663  0.00  0.00    -0.263 NA
ATOM     28  C   UNL     1      10.574   0.519  24.024  0.00  0.00    +0.114 A 
ENDBRANCH  22  23
ENDBRANCH   2  22
TORSDOF 4
ENDMDL
MODEL 7
REMARK VINA RESULT:      -6.8      2.810      4.013
REMARK  Name = 
REMARK  4 active torsions:
REMARK  status: ('A' for Active; 'I' for Inactive)
REMARK    1  A    between atoms: C_2  and  C_21
REMARK    2  A    between atoms: N_3  and  C_4
REMARK    3  A    between atoms: C_12  and  C_14
REMARK    4  A    between atoms: C_14  and  C_15
REMARK                            x       y       z     vdW  Elec       q    Type
REMARK                         _______ _______ _______ _____ _____    ______ ____
ROOT
ATOM      1  C   UNL     1       7.811  -0.382  24.541  0.00  0.00    +0.094 C 
ATOM      2  C   UNL     1       8.272  -0.930  23.123  0.00  0.00    +0.081 C 
ATOM      3  N   UNL     1       9.324  -0.032  22.528  0.00  0.00    -0.297 NA
ATOM      4  C   UNL     1       8.839   1.369  22.518  0.00  0.00    +0.085 C 
ATOM      5  C   UNL     1       8.570   1.894  23.941  0.00  0.00    +0.021 C 
ATOM      6  C   UNL     1      10.556  -0.072  23.342  0.00  0.00    +0.085 C 
ATOM      7  C   UNL     1      10.274   0.345  24.792  0.00  0.00    +0.021 C 
ATOM      8  C   UNL     1       8.796   0.748  24.961  0.00  0.00    +0.013 C 
ENDROOT
BRANCH   1  11
ATOM      9  O   UNL     1       5.276  -1.270  24.956  0.00  0.00    -0.267 OA
ATOM     10  C   UNL     1       6.130  -1.774  25.688  0.00  0.00    +0.280 C 
ATOM     11  N   UNL     1       7.468  -1.384  25.565  0.00  0.00    -0.304 N 
ATOM     12  H   UNL     1       8.053  -1.524  26.372  0.00  0.00    +0.149 HD
BRANCH  10  13
ATOM     13  C   UNL     1       5.803  -2.881  26.567  0.00  0.00    +0.190 A 
ATOM     14  O   UNL     1       4.885  -2.811  27.587  0.00  0.00    -0.450 OA
ATOM     15  C   UNL     1       5.011  -3.976  28.309  0.00  0.00    +0.136 A 
ATOM     16  C   UNL     1       6.000  -4.782  27.756  0.00  0.00    +0.021 A 
ATOM     17  C   UNL     1       6.394  -5.955  28.428  0.00  0.00    +0.011 A 
ATOM     18  C   UNL     1       5.787  -6.264  29.651  0.00  0.00    +0.001 A 
ATOM     19  C   UNL     1       4.752  -5.472  30.151  0.00  0.00    +0.004 A 
ATOM     20  C   UNL     1       4.320  -4.319  29.474  0.00  0.00    +0.047 A 
ATOM     21  C   UNL     1       6.411  -4.125  26.579  0.00  0.00    +0.063 A 
ENDBRANCH  10  13
ENDBRANCH   1  11
BRANCH   2  22
ATOM     22  C   UNL     1       8.695  -2.430  23.092  0.00  0.00    +0.057 C 
BRANCH  22  23
ATOM     23  C   UNL     1       7.623  -3.459  22.804  0.00  0.00    -0.028 A 
ATOM     24  C   UNL     1       7.736  -4.801  23.183  0.00  0.00    +0.006 A 
ATOM     25  C   UNL     1       6.799  -5.734  22.740  0.00  0.00    +0.020 A 
ATOM     26  C   UNL     1       5.774  -5.300  21.920  0.00  0.00    +0.111 A 
ATOM     27  N   UNL     1       5.618  -4.014  21.537  0.00  0.00    -0.263 NA
ATOM     28  C   UNL     1       6.542  -3.130  21.984  0.00  0.00    +0.114 A 
ENDBRANCH  22  23
ENDBRANCH   2  22
TORSDOF 4
ENDMDL
MODEL 8
REMARK VINA RESULT:      -6.7      2.671      4.097
REMARK  Name = 
REMARK  4 active torsions:
REMARK  status: ('A' for Active; 'I' for Inactive)
REMARK    1  A    between atoms: C_2  and  C_21
REMARK    2  A    between atoms: N_3  and  C_4
REMARK    3  A    between atoms: C_12  and  C_14
REMARK    4  A    between atoms: C_14  and  C_15
REMARK                            x       y       z     vdW  Elec       q    Type
REMARK                         _______ _______ _______ _____ _____    ______ ____
ROOT
ATOM      1  C   UNL     1       8.952   0.234  23.288  0.00  0.00    +0.094 C 
ATOM      2  C   UNL     1       8.669   1.388  24.342  0.00  0.00    +0.081 C 
ATOM      3  N   UNL     1       8.852   2.741  23.705  0.00  0.00    -0.297 NA
ATOM      4  C   UNL     1      10.185   2.812  23.057  0.00  0.00    +0.085 C 
ATOM      5  C   UNL     1      10.332   1.773  21.929  0.00  0.00    +0.021 C 
ATOM      6  C   UNL     1       7.835   2.958  22.657  0.00  0.00    +0.085 C 
ATOM      7  C   UNL     1       7.903   1.863  21.583  0.00  0.00    +0.021 C 
ATOM      8  C   UNL     1       9.059   0.888  21.879  0.00  0.00    +0.013 C 
ENDROOT
BRANCH   1  11
ATOM      9  O   UNL     1      10.024  -2.256  23.489  0.00  0.00    -0.267 OA
ATOM     10  C   UNL     1       8.793  -2.216  23.502  0.00  0.00    +0.280 C 
ATOM     11  N   UNL     1       8.134  -0.986  23.398  0.00  0.00    -0.304 N 
ATOM     12  H   UNL     1       7.187  -1.010  23.057  0.00  0.00    +0.149 HD
BRANCH  10  13
ATOM     13  C   UNL     1       8.009  -3.406  23.785  0.00  0.00    +0.190 A 
ATOM     14  O   UNL     1       7.331  -4.127  22.833  0.00  0.00    -0.450 OA
ATOM     15  C   UNL     1       6.553  -5.038  23.512  0.00  0.00    +0.136 A 
ATOM     16  C   UNL     1       6.732  -4.899  24.883  0.00  0.00    +0.021 A 
ATOM     17  C   UNL     1       5.918  -5.633  25.767  0.00  0.00    +0.011 A 
ATOM     18  C   UNL     1       4.933  -6.471  25.232  0.00  0.00    +0.001 A 
ATOM     19  C   UNL     1       4.817  -6.641  23.851  0.00  0.00    +0.004 A 
ATOM     20  C   UNL     1       5.648  -5.945  22.956  0.00  0.00    +0.047 A 
ATOM     21  C   UNL     1       7.752  -3.937  25.037  0.00  0.00    +0.063 A 
ENDBRANCH  10  13
ENDBRANCH   1  11
BRANCH   2  22
ATOM     22  C   UNL     1       7.314   1.278  25.105  0.00  0.00    +0.057 C 
BRANCH  22  23
ATOM     23  C   UNL     1       7.289   1.688  26.561  0.00  0.00    -0.028 A 
ATOM     24  C   UNL     1       7.130   0.773  27.607  0.00  0.00    +0.006 A 
ATOM     25  C   UNL     1       6.943   1.226  28.912  0.00  0.00    +0.020 A 
ATOM     26  C   UNL     1       6.911   2.591  29.136  0.00  0.00    +0.111 A 
ATOM     27  N   UNL     1       7.070   3.511  28.161  0.00  0.00    -0.263 NA
ATOM     28  C   UNL     1       7.253   3.041  26.905  0.00  0.00    +0.114 A 
ENDBRANCH  22  23
ENDBRANCH   2  22
TORSDOF 4
ENDMDL
MODEL 9
REMARK VINA RESULT:      -6.7      2.207      6.758
REMARK  Name = 
REMARK  4 active torsions:
REMARK  status: ('A' for Active; 'I' for Inactive)
REMARK    1  A    between atoms: C_2  and  C_21
REMARK    2  A    between atoms: N_3  and  C_4
REMARK    3  A    between atoms: C_12  and  C_14
REMARK    4  A    between atoms: C_14  and  C_15
REMARK                            x       y       z     vdW  Elec       q    Type
REMARK                         _______ _______ _______ _____ _____    ______ ____
ROOT
ATOM      1  C   UNL     1       5.086  -4.045  25.109  0.00  0.00    +0.094 C 
ATOM      2  C   UNL     1       5.870  -5.245  24.428  0.00  0.00    +0.081 C 
ATOM      3  N   UNL     1       4.958  -6.428  24.234  0.00  0.00    -0.297 NA
ATOM      4  C   UNL     1       4.303  -6.772  25.519  0.00  0.00    +0.085 C 
ATOM      5  C   UNL     1       3.422  -5.620  26.041  0.00  0.00    +0.021 C 
ATOM      6  C   UNL     1       3.893  -6.104  23.263  0.00  0.00    +0.085 C 
ATOM      7  C   UNL     1       3.078  -4.886  23.723  0.00  0.00    +0.021 C 
ATOM      8  C   UNL     1       3.569  -4.396  25.099  0.00  0.00    +0.013 C 
ENDROOT
BRANCH   1  11
ATOM      9  O   UNL     1       6.567  -2.372  26.658  0.00  0.00    -0.267 OA
ATOM     10  C   UNL     1       6.229  -1.909  25.567  0.00  0.00    +0.280 C 
ATOM     11  N   UNL     1       5.458  -2.682  24.692  0.00  0.00    -0.304 N 
ATOM     12  H   UNL     1       4.914  -2.180  24.008  0.00  0.00    +0.149 HD
BRANCH  10  13
ATOM     13  C   UNL     1       6.749  -0.636  25.101  0.00  0.00    +0.190 A 
ATOM     14  O   UNL     1       6.285   0.026  23.991  0.00  0.00    -0.450 OA
ATOM     15  C   UNL     1       7.156   1.068  23.763  0.00  0.00    +0.136 A 
ATOM     16  C   UNL     1       8.167   1.070  24.719  0.00  0.00    +0.021 A 
ATOM     17  C   UNL     1       9.247   1.963  24.583  0.00  0.00    +0.011 A 
ATOM     18  C   UNL     1       9.280   2.812  23.471  0.00  0.00    +0.001 A 
ATOM     19  C   UNL     1       8.221   2.834  22.562  0.00  0.00    +0.004 A 
ATOM     20  C   UNL     1       7.116   1.978  22.704  0.00  0.00    +0.047 A 
ATOM     21  C   UNL     1       7.826   0.052  25.633  0.00  0.00    +0.063 A 
ENDBRANCH  10  13
ENDBRANCH   1  11
BRANCH   2  22
ATOM     22  C   UNL     1       6.646  -4.883  23.125  0.00  0.00    +0.057 C 
BRANCH  22  23
ATOM     23  C   UNL     1       7.727  -3.828  23.219  0.00  0.00    -0.028 A 
ATOM     24  C   UNL     1       7.843  -2.775  22.305  0.00  0.00    +0.006 A 
ATOM     25  C   UNL     1       8.956  -1.936  22.342  0.00  0.00    +0.020 A 
ATOM     26  C   UNL     1       9.934  -2.180  23.289  0.00  0.00    +0.111 A 
ATOM     27  N   UNL     1       9.860  -3.177  24.197  0.00  0.00    -0.263 NA
ATOM     28  C   UNL     1       8.767  -3.973  24.140  0.00  0.00    +0.114 A 
ENDBRANCH  22  23
ENDBRANCH   2  22
TORSDOF 4
ENDMDL
