MODEL 1
REMARK VINA RESULT:      -7.2      0.000      0.000
REMARK  Name = 
REMARK  7 active torsions:
REMARK  status: ('A' for Active; 'I' for Inactive)
REMARK    1  A    between atoms: C_4  and  C_5
REMARK    2  A    between atoms: C_4  and  C_6
REMARK    3  A    between atoms: CA_7  and  C_24
REMARK    4  A    between atoms: CA_12  and  N_14
REMARK    5  A    between atoms: C_15  and  C_17
REMARK    6  A    between atoms: C_17  and  C_18
REMARK    7  A    between atoms: C_24  and  O_25
REMARK                            x       y       z     vdW  Elec       q    Type
REMARK                         _______ _______ _______ _____ _____    ______ ____
ROOT
ATOM      1  C   UNL     1       7.516  -1.212  22.723  0.00  0.00    +0.165 C 
ATOM      2  CA  UNL     1       8.000  -2.659  23.023  0.00  0.00    +0.190 C 
ATOM      3  C   UNL     1       9.409  -2.088  22.752  0.00  0.00    +0.240 C 
ATOM      4  O   UNL     1      10.552  -2.415  22.984  0.00  0.00    -0.273 OA
ATOM      5  N   UNL     1       8.907  -0.883  22.323  0.00  0.00    -0.271 N 
ATOM      6  CA  UNL     1       9.453   0.381  22.862  0.00  0.00    +0.201 C 
ATOM      7  C   UNL     1       8.848   0.576  24.273  0.00  0.00    +0.042 C 
ATOM      8  C   UNL     1       9.599  -0.237  25.349  0.00  0.00    +0.025 C 
ATOM      9  C   UNL     1       8.769   2.019  24.783  0.00  0.00    +0.025 C 
ATOM     10  S   UNL     1       7.144  -0.105  24.149  0.00  0.00    -0.127 S 
ENDROOT
BRANCH   2  11
ATOM     11  N   UNL     1       7.735  -3.187  24.389  0.00  0.00    -0.301 N 
ATOM     12  H   UNL     1       7.297  -2.605  25.094  0.00  0.00    +0.150 HD
ATOM     13  C   UNL     1       8.055  -4.494  24.691  0.00  0.00    +0.218 C 
ATOM     14  O   UNL     1       8.655  -5.213  23.895  0.00  0.00    -0.275 OA
BRANCH  13  15
ATOM     15  C   UNL     1       7.609  -4.969  26.058  0.00  0.00    +0.130 C 
BRANCH  15  16
ATOM     16  C   UNL     1       6.267  -5.652  26.019  0.00  0.00    -0.039 A 
ATOM     17  C   UNL     1       5.655  -6.077  27.208  0.00  0.00    +0.004 A 
ATOM     18  C   UNL     1       4.422  -6.728  27.177  0.00  0.00    +0.000 A 
ATOM     19  C   UNL     1       3.793  -6.966  25.959  0.00  0.00    +0.000 A 
ATOM     20  C   UNL     1       4.392  -6.550  24.771  0.00  0.00    +0.000 A 
ATOM     21  C   UNL     1       5.625  -5.896  24.799  0.00  0.00    +0.004 A 
ENDBRANCH  15  16
ENDBRANCH  13  15
ENDBRANCH   2  11
BRANCH   6  22
ATOM     22  C   UNL     1       9.141   1.500  21.848  0.00  0.00    +0.327 C 
ATOM     23  OXT UNL     1       8.038   1.727  21.373  0.00  0.00    -0.249 OA
BRANCH  22  24
ATOM     24  O   UNL     1      10.205   2.301  21.577  0.00  0.00    -0.479 OA
ATOM     25  H   UNL     1      11.020   1.928  21.973  0.00  0.00    +0.295 HD
ENDBRANCH  22  24
ENDBRANCH   6  22
TORSDOF 5
ENDMDL
MODEL 2
REMARK VINA RESULT:      -7.1      2.826      7.219
REMARK  Name = 
REMARK  7 active torsions:
REMARK  status: ('A' for Active; 'I' for Inactive)
REMARK    1  A    between atoms: C_4  and  C_5
REMARK    2  A    between atoms: C_4  and  C_6
REMARK    3  A    between atoms: CA_7  and  C_24
REMARK    4  A    between atoms: CA_12  and  N_14
REMARK    5  A    between atoms: C_15  and  C_17
REMARK    6  A    between atoms: C_17  and  C_18
REMARK    7  A    between atoms: C_24  and  O_25
REMARK                            x       y       z     vdW  Elec       q    Type
REMARK                         _______ _______ _______ _____ _____    ______ ____
ROOT
ATOM      1  C   UNL     1       6.000  -3.078  25.229  0.00  0.00    +0.165 C 
ATOM      2  CA  UNL     1       6.799  -2.705  26.509  0.00  0.00    +0.190 C 
ATOM      3  C   UNL     1       6.752  -4.220  26.804  0.00  0.00    +0.240 C 
ATOM      4  O   UNL     1       7.350  -4.999  27.514  0.00  0.00    -0.273 OA
ATOM      5  N   UNL     1       5.895  -4.461  25.758  0.00  0.00    -0.271 N 
ATOM      6  CA  UNL     1       6.187  -5.544  24.795  0.00  0.00    +0.201 C 
ATOM      7  C   UNL     1       7.287  -5.022  23.838  0.00  0.00    +0.042 C 
ATOM      8  C   UNL     1       8.699  -5.148  24.447  0.00  0.00    +0.025 C 
ATOM      9  C   UNL     1       7.342  -5.673  22.452  0.00  0.00    +0.025 C 
ATOM     10  S   UNL     1       6.921  -3.231  23.641  0.00  0.00    -0.127 S 
ENDROOT
BRANCH   2  11
ATOM     11  N   UNL     1       8.142  -2.095  26.310  0.00  0.00    -0.301 N 
ATOM     12  H   UNL     1       8.974  -2.673  26.275  0.00  0.00    +0.150 HD
ATOM     13  C   UNL     1       8.255  -0.732  26.135  0.00  0.00    +0.218 C 
ATOM     14  O   UNL     1       7.286   0.017  26.245  0.00  0.00    -0.275 OA
BRANCH  13  15
ATOM     15  C   UNL     1       9.645  -0.237  25.794  0.00  0.00    +0.130 C 
BRANCH  15  16
ATOM     16  C   UNL     1       9.720   0.360  24.413  0.00  0.00    -0.039 A 
ATOM     17  C   UNL     1       9.727  -0.470  23.283  0.00  0.00    +0.004 A 
ATOM     18  C   UNL     1       9.816   0.075  22.003  0.00  0.00    +0.000 A 
ATOM     19  C   UNL     1       9.904   1.455  21.841  0.00  0.00    +0.000 A 
ATOM     20  C   UNL     1       9.900   2.290  22.957  0.00  0.00    +0.000 A 
ATOM     21  C   UNL     1       9.809   1.747  24.240  0.00  0.00    +0.004 A 
ENDBRANCH  15  16
ENDBRANCH  13  15
ENDBRANCH   2  11
BRANCH   6  22
ATOM     22  C   UNL     1       4.860  -5.948  24.121  0.00  0.00    +0.327 C 
ATOM     23  OXT UNL     1       4.053  -5.165  23.641  0.00  0.00    -0.249 OA
BRANCH  22  24
ATOM     24  O   UNL     1       4.689  -7.292  24.017  0.00  0.00    -0.479 OA
ATOM     25  H   UNL     1       3.758  -7.530  24.207  0.00  0.00    +0.295 HD
ENDBRANCH  22  24
ENDBRANCH   6  22
TORSDOF 5
ENDMDL
MODEL 3
REMARK VINA RESULT:      -7.0      2.165      7.281
REMARK  Name = 
REMARK  7 active torsions:
REMARK  status: ('A' for Active; 'I' for Inactive)
REMARK    1  A    between atoms: C_4  and  C_5
REMARK    2  A    between atoms: C_4  and  C_6
REMARK    3  A    between atoms: CA_7  and  C_24
REMARK    4  A    between atoms: CA_12  and  N_14
REMARK    5  A    between atoms: C_15  and  C_17
REMARK    6  A    between atoms: C_17  and  C_18
REMARK    7  A    between atoms: C_24  and  O_25
REMARK                            x       y       z     vdW  Elec       q    Type
REMARK                         _______ _______ _______ _____ _____    ______ ____
ROOT
ATOM      1  C   UNL     1       8.242  -3.224  25.515  0.00  0.00    +0.165 C 
ATOM      2  CA  UNL     1       9.036  -3.268  24.179  0.00  0.00    +0.190 C 
ATOM      3  C   UNL     1       8.429  -4.681  24.035  0.00  0.00    +0.240 C 
ATOM      4  O   UNL     1       8.259  -5.480  23.140  0.00  0.00    -0.273 OA
ATOM      5  N   UNL     1       7.902  -4.652  25.303  0.00  0.00    -0.271 N 
ATOM      6  CA  UNL     1       6.487  -5.020  25.525  0.00  0.00    +0.201 C 
ATOM      7  C   UNL     1       5.626  -3.810  25.087  0.00  0.00    +0.042 C 
ATOM      8  C   UNL     1       5.404  -3.773  23.560  0.00  0.00    +0.025 C 
ATOM      9  C   UNL     1       4.244  -3.691  25.739  0.00  0.00    +0.025 C 
ATOM     10  S   UNL     1       6.628  -2.336  25.540  0.00  0.00    -0.127 S 
ENDROOT
BRANCH   2  11
ATOM     11  N   UNL     1       8.667  -2.264  23.145  0.00  0.00    -0.301 N 
ATOM     12  H   UNL     1       7.699  -1.999  23.000  0.00  0.00    +0.150 HD
ATOM     13  C   UNL     1       9.654  -1.659  22.396  0.00  0.00    +0.218 C 
ATOM     14  O   UNL     1      10.832  -2.001  22.482  0.00  0.00    -0.275 OA
BRANCH  13  15
ATOM     15  C   UNL     1       9.182  -0.549  21.479  0.00  0.00    +0.130 C 
BRANCH  15  16
ATOM     16  C   UNL     1       9.191   0.797  22.154  0.00  0.00    -0.039 A 
ATOM     17  C   UNL     1      10.164   1.098  23.119  0.00  0.00    +0.004 A 
ATOM     18  C   UNL     1      10.165   2.334  23.762  0.00  0.00    +0.000 A 
ATOM     19  C   UNL     1       9.192   3.280  23.452  0.00  0.00    +0.000 A 
ATOM     20  C   UNL     1       8.220   2.992  22.495  0.00  0.00    +0.000 A 
ATOM     21  C   UNL     1       8.217   1.755  21.848  0.00  0.00    +0.004 A 
ENDBRANCH  15  16
ENDBRANCH  13  15
ENDBRANCH   2  11
BRANCH   6  22
ATOM     22  C   UNL     1       6.334  -5.441  27.000  0.00  0.00    +0.327 C 
ATOM     23  OXT UNL     1       6.696  -4.776  27.959  0.00  0.00    -0.249 OA
BRANCH  22  24
ATOM     24  O   UNL     1       5.662  -6.611  27.166  0.00  0.00    -0.479 OA
ATOM     25  H   UNL     1       5.918  -7.031  28.013  0.00  0.00    +0.295 HD
ENDBRANCH  22  24
ENDBRANCH   6  22
TORSDOF 5
ENDMDL
MODEL 4
REMARK VINA RESULT:      -7.0      2.405      7.644
REMARK  Name = 
REMARK  7 active torsions:
REMARK  status: ('A' for Active; 'I' for Inactive)
REMARK    1  A    between atoms: C_4  and  C_5
REMARK    2  A    between atoms: C_4  and  C_6
REMARK    3  A    between atoms: CA_7  and  C_24
REMARK    4  A    between atoms: CA_12  and  N_14
REMARK    5  A    between atoms: C_15  and  C_17
REMARK    6  A    between atoms: C_17  and  C_18
REMARK    7  A    between atoms: C_24  and  O_25
REMARK                            x       y       z     vdW  Elec       q    Type
REMARK                         _______ _______ _______ _____ _____    ______ ____
ROOT
ATOM      1  C   UNL     1       7.055  -3.531  26.782  0.00  0.00    +0.165 C 
ATOM      2  CA  UNL     1       8.368  -3.370  25.966  0.00  0.00    +0.190 C 
ATOM      3  C   UNL     1       8.404  -4.914  25.995  0.00  0.00    +0.240 C 
ATOM      4  O   UNL     1       8.964  -5.794  25.380  0.00  0.00    -0.273 OA
ATOM      5  N   UNL     1       7.344  -4.984  26.867  0.00  0.00    -0.271 N 
ATOM      6  CA  UNL     1       6.208  -5.887  26.580  0.00  0.00    +0.201 C 
ATOM      7  C   UNL     1       5.338  -5.200  25.500  0.00  0.00    +0.042 C 
ATOM      8  C   UNL     1       5.898  -5.410  24.077  0.00  0.00    +0.025 C 
ATOM      9  C   UNL     1       3.862  -5.607  25.460  0.00  0.00    +0.025 C 
ATOM     10  S   UNL     1       5.451  -3.404  25.883  0.00  0.00    -0.127 S 
ENDROOT
BRANCH   2  11
ATOM     11  N   UNL     1       8.256  -2.721  24.632  0.00  0.00    -0.301 N 
ATOM     12  H   UNL     1       7.397  -2.264  24.348  0.00  0.00    +0.150 HD
ATOM     13  C   UNL     1       9.343  -2.708  23.783  0.00  0.00    +0.218 C 
ATOM     14  O   UNL     1      10.379  -3.314  24.051  0.00  0.00    -0.275 OA
BRANCH  13  15
ATOM     15  C   UNL     1       9.166  -1.896  22.517  0.00  0.00    +0.130 C 
BRANCH  15  16
ATOM     16  C   UNL     1       9.576  -0.457  22.696  0.00  0.00    -0.039 A 
ATOM     17  C   UNL     1       9.362   0.472  21.667  0.00  0.00    +0.004 A 
ATOM     18  C   UNL     1       9.758   1.800  21.818  0.00  0.00    +0.000 A 
ATOM     19  C   UNL     1      10.376   2.211  22.995  0.00  0.00    +0.000 A 
ATOM     20  C   UNL     1      10.595   1.296  24.024  0.00  0.00    +0.000 A 
ATOM     21  C   UNL     1      10.198  -0.034  23.877  0.00  0.00    +0.004 A 
ENDBRANCH  15  16
ENDBRANCH  13  15
ENDBRANCH   2  11
BRANCH   6  22
ATOM     22  C   UNL     1       5.495  -6.186  27.913  0.00  0.00    +0.327 C 
ATOM     23  OXT UNL     1       5.030  -5.340  28.663  0.00  0.00    -0.249 OA
BRANCH  22  24
ATOM     24  O   UNL     1       5.336  -7.513  28.161  0.00  0.00    -0.479 OA
ATOM     25  H   UNL     1       4.571  -7.862  27.659  0.00  0.00    +0.295 HD
ENDBRANCH  22  24
ENDBRANCH   6  22
TORSDOF 5
ENDMDL
MODEL 5
REMARK VINA RESULT:      -7.0      2.417      7.196
REMARK  Name = 
REMARK  7 active torsions:
REMARK  status: ('A' for Active; 'I' for Inactive)
REMARK    1  A    between atoms: C_4  and  C_5
REMARK    2  A    between atoms: C_4  and  C_6
REMARK    3  A    between atoms: CA_7  and  C_24
REMARK    4  A    between atoms: CA_12  and  N_14
REMARK    5  A    between atoms: C_15  and  C_17
REMARK    6  A    between atoms: C_17  and  C_18
REMARK    7  A    between atoms: C_24  and  O_25
REMARK                            x       y       z     vdW  Elec       q    Type
REMARK                         _______ _______ _______ _____ _____    ______ ____
ROOT
ATOM      1  C   UNL     1       7.191  -5.070  25.801  0.00  0.00    +0.165 C 
ATOM      2  CA  UNL     1       8.328  -4.394  24.984  0.00  0.00    +0.190 C 
ATOM      3  C   UNL     1       7.563  -4.926  23.753  0.00  0.00    +0.240 C 
ATOM      4  O   UNL     1       7.536  -4.694  22.564  0.00  0.00    -0.273 OA
ATOM      5  N   UNL     1       6.693  -5.653  24.530  0.00  0.00    -0.271 N 
ATOM      6  CA  UNL     1       5.236  -5.554  24.300  0.00  0.00    +0.201 C 
ATOM      7  C   UNL     1       4.763  -4.221  24.931  0.00  0.00    +0.042 C 
ATOM      8  C   UNL     1       5.017  -3.013  24.005  0.00  0.00    +0.025 C 
ATOM      9  C   UNL     1       3.290  -4.157  25.351  0.00  0.00    +0.025 C 
ATOM     10  S   UNL     1       5.817  -4.012  26.423  0.00  0.00    -0.127 S 
ENDROOT
BRANCH   2  11
ATOM     11  N   UNL     1       8.461  -2.917  25.113  0.00  0.00    -0.301 N 
ATOM     12  H   UNL     1       7.817  -2.386  25.688  0.00  0.00    +0.150 HD
ATOM     13  C   UNL     1       9.492  -2.265  24.472  0.00  0.00    +0.218 C 
ATOM     14  O   UNL     1      10.252  -2.853  23.703  0.00  0.00    -0.275 OA
BRANCH  13  15
ATOM     15  C   UNL     1       9.621  -0.789  24.788  0.00  0.00    +0.130 C 
BRANCH  15  16
ATOM     16  C   UNL     1       9.144   0.084  23.657  0.00  0.00    -0.039 A 
ATOM     17  C   UNL     1      10.070   0.702  22.803  0.00  0.00    +0.004 A 
ATOM     18  C   UNL     1       9.636   1.528  21.767  0.00  0.00    +0.000 A 
ATOM     19  C   UNL     1       8.275   1.749  21.578  0.00  0.00    +0.000 A 
ATOM     20  C   UNL     1       7.346   1.142  22.422  0.00  0.00    +0.000 A 
ATOM     21  C   UNL     1       7.777   0.313  23.459  0.00  0.00    +0.004 A 
ENDBRANCH  15  16
ENDBRANCH  13  15
ENDBRANCH   2  11
BRANCH   6  22
ATOM     22  C   UNL     1       4.580  -6.827  24.872  0.00  0.00    +0.327 C 
ATOM     23  OXT UNL     1       4.564  -7.134  26.055  0.00  0.00    -0.249 OA
BRANCH  22  24
ATOM     24  O   UNL     1       3.921  -7.565  23.941  0.00  0.00    -0.479 OA
ATOM     25  H   UNL     1       4.133  -8.515  24.050  0.00  0.00    +0.295 HD
ENDBRANCH  22  24
ENDBRANCH   6  22
TORSDOF 5
ENDMDL
MODEL 6
REMARK VINA RESULT:      -7.0      2.396      7.942
REMARK  Name = 
REMARK  7 active torsions:
REMARK  status: ('A' for Active; 'I' for Inactive)
REMARK    1  A    between atoms: C_4  and  C_5
REMARK    2  A    between atoms: C_4  and  C_6
REMARK    3  A    between atoms: CA_7  and  C_24
REMARK    4  A    between atoms: CA_12  and  N_14
REMARK    5  A    between atoms: C_15  and  C_17
REMARK    6  A    between atoms: C_17  and  C_18
REMARK    7  A    between atoms: C_24  and  O_25
REMARK                            x       y       z     vdW  Elec       q    Type
REMARK                         _______ _______ _______ _____ _____    ______ ____
ROOT
ATOM      1  C   UNL     1       9.315  -1.275  25.021  0.00  0.00    +0.165 C 
ATOM      2  CA  UNL     1       9.633  -0.289  23.862  0.00  0.00    +0.190 C 
ATOM      3  C   UNL     1       9.825  -1.569  23.020  0.00  0.00    +0.240 C 
ATOM      4  O   UNL     1       9.860  -1.852  21.843  0.00  0.00    -0.273 OA
ATOM      5  N   UNL     1       9.715  -2.385  24.120  0.00  0.00    -0.271 N 
ATOM      6  CA  UNL     1       8.807  -3.552  24.089  0.00  0.00    +0.201 C 
ATOM      7  C   UNL     1       7.367  -3.016  24.280  0.00  0.00    +0.042 C 
ATOM      8  C   UNL     1       6.764  -2.479  22.966  0.00  0.00    +0.025 C 
ATOM      9  C   UNL     1       6.351  -4.003  24.864  0.00  0.00    +0.025 C 
ATOM     10  S   UNL     1       7.548  -1.595  25.434  0.00  0.00    -0.127 S 
ENDROOT
BRANCH   2  11
ATOM     11  N   UNL     1       8.542   0.636  23.449  0.00  0.00    -0.301 N 
ATOM     12  H   UNL     1       7.633   0.598  23.895  0.00  0.00    +0.150 HD
ATOM     13  C   UNL     1       8.780   1.580  22.473  0.00  0.00    +0.218 C 
ATOM     14  O   UNL     1       9.840   1.615  21.851  0.00  0.00    -0.275 OA
BRANCH  13  15
ATOM     15  C   UNL     1       7.651   2.562  22.235  0.00  0.00    +0.130 C 
BRANCH  15  16
ATOM     16  C   UNL     1       8.000   3.958  22.682  0.00  0.00    -0.039 A 
ATOM     17  C   UNL     1       7.376   5.066  22.091  0.00  0.00    +0.004 A 
ATOM     18  C   UNL     1       7.709   6.361  22.486  0.00  0.00    +0.000 A 
ATOM     19  C   UNL     1       8.673   6.561  23.470  0.00  0.00    +0.000 A 
ATOM     20  C   UNL     1       9.302   5.467  24.063  0.00  0.00    +0.000 A 
ATOM     21  C   UNL     1       8.969   4.169  23.671  0.00  0.00    +0.004 A 
ENDBRANCH  15  16
ENDBRANCH  13  15
ENDBRANCH   2  11
BRANCH   6  22
ATOM     22  C   UNL     1       9.289  -4.553  25.157  0.00  0.00    +0.327 C 
ATOM     23  OXT UNL     1       9.234  -4.369  26.364  0.00  0.00    -0.249 OA
BRANCH  22  24
ATOM     24  O   UNL     1       9.714  -5.737  24.642  0.00  0.00    -0.479 OA
ATOM     25  H   UNL     1       9.323  -5.880  23.755  0.00  0.00    +0.295 HD
ENDBRANCH  22  24
ENDBRANCH   6  22
TORSDOF 5
ENDMDL
MODEL 7
REMARK VINA RESULT:      -6.8      2.361      7.500
REMARK  Name = 
REMARK  7 active torsions:
REMARK  status: ('A' for Active; 'I' for Inactive)
REMARK    1  A    between atoms: C_4  and  C_5
REMARK    2  A    between atoms: C_4  and  C_6
REMARK    3  A    between atoms: CA_7  and  C_24
REMARK    4  A    between atoms: CA_12  and  N_14
REMARK    5  A    between atoms: C_15  and  C_17
REMARK    6  A    between atoms: C_17  and  C_18
REMARK    7  A    between atoms: C_24  and  O_25
REMARK                            x       y       z     vdW  Elec       q    Type
REMARK                         _______ _______ _______ _____ _____    ______ ____
ROOT
ATOM      1  C   UNL     1       6.147  -3.456  25.496  0.00  0.00    +0.165 C 
ATOM      2  CA  UNL     1       7.660  -3.257  25.198  0.00  0.00    +0.190 C 
ATOM      3  C   UNL     1       7.720  -4.800  25.229  0.00  0.00    +0.240 C 
ATOM      4  O   UNL     1       8.483  -5.659  24.845  0.00  0.00    -0.273 OA
ATOM      5  N   UNL     1       6.423  -4.904  25.669  0.00  0.00    -0.271 N 
ATOM      6  CA  UNL     1       5.484  -5.826  24.994  0.00  0.00    +0.201 C 
ATOM      7  C   UNL     1       5.035  -5.141  23.681  0.00  0.00    +0.042 C 
ATOM      8  C   UNL     1       6.066  -5.320  22.546  0.00  0.00    +0.025 C 
ATOM      9  C   UNL     1       3.677  -5.578  23.120  0.00  0.00    +0.025 C 
ATOM     10  S   UNL     1       4.961  -3.349  24.090  0.00  0.00    -0.127 S 
ENDROOT
BRANCH   2  11
ATOM     11  N   UNL     1       8.010  -2.591  23.914  0.00  0.00    -0.301 N 
ATOM     12  H   UNL     1       7.298  -2.133  23.356  0.00  0.00    +0.150 HD
ATOM     13  C   UNL     1       9.323  -2.564  23.493  0.00  0.00    +0.218 C 
ATOM     14  O   UNL     1      10.208  -3.169  24.095  0.00  0.00    -0.275 OA
BRANCH  13  15
ATOM     15  C   UNL     1       9.588  -1.736  22.252  0.00  0.00    +0.130 C 
BRANCH  15  16
ATOM     16  C   UNL     1       9.892  -0.297  22.576  0.00  0.00    -0.039 A 
ATOM     17  C   UNL     1      10.502   0.040  23.794  0.00  0.00    +0.004 A 
ATOM     18  C   UNL     1      10.768   1.371  24.109  0.00  0.00    +0.000 A 
ATOM     19  C   UNL     1      10.423   2.379  23.213  0.00  0.00    +0.000 A 
ATOM     20  C   UNL     1       9.816   2.057  22.001  0.00  0.00    +0.000 A 
ATOM     21  C   UNL     1       9.550   0.724  21.682  0.00  0.00    +0.004 A 
ENDBRANCH  15  16
ENDBRANCH  13  15
ENDBRANCH   2  11
BRANCH   6  22
ATOM     22  C   UNL     1       4.353  -6.158  25.988  0.00  0.00    +0.327 C 
ATOM     23  OXT UNL     1       3.706  -5.331  26.613  0.00  0.00    -0.249 OA
BRANCH  22  24
ATOM     24  O   UNL     1       4.058  -7.483  26.054  0.00  0.00    -0.479 OA
ATOM     25  H   UNL     1       4.785  -8.012  25.665  0.00  0.00    +0.295 HD
ENDBRANCH  22  24
ENDBRANCH   6  22
TORSDOF 5
ENDMDL
MODEL 8
REMARK VINA RESULT:      -6.6      2.045      2.767
REMARK  Name = 
REMARK  7 active torsions:
REMARK  status: ('A' for Active; 'I' for Inactive)
REMARK    1  A    between atoms: C_4  and  C_5
REMARK    2  A    between atoms: C_4  and  C_6
REMARK    3  A    between atoms: CA_7  and  C_24
REMARK    4  A    between atoms: CA_12  and  N_14
REMARK    5  A    between atoms: C_15  and  C_17
REMARK    6  A    between atoms: C_17  and  C_18
REMARK    7  A    between atoms: C_24  and  O_25
REMARK                            x       y       z     vdW  Elec       q    Type
REMARK                         _______ _______ _______ _____ _____    ______ ____
ROOT
ATOM      1  C   UNL     1       9.605  -1.087  23.170  0.00  0.00    +0.165 C 
ATOM      2  CA  UNL     1       9.727  -1.937  24.466  0.00  0.00    +0.190 C 
ATOM      3  C   UNL     1       9.741  -0.571  25.186  0.00  0.00    +0.240 C 
ATOM      4  O   UNL     1       9.558  -0.168  26.314  0.00  0.00    -0.273 OA
ATOM      5  N   UNL     1       9.816   0.123  24.003  0.00  0.00    -0.271 N 
ATOM      6  CA  UNL     1       8.895   1.252  23.747  0.00  0.00    +0.201 C 
ATOM      7  C   UNL     1       7.524   0.646  23.362  0.00  0.00    +0.042 C 
ATOM      8  C   UNL     1       6.703   0.224  24.599  0.00  0.00    +0.025 C 
ATOM      9  C   UNL     1       6.611   1.529  22.504  0.00  0.00    +0.025 C 
ATOM     10  S   UNL     1       7.935  -0.879  22.419  0.00  0.00    -0.127 S 
ENDROOT
BRANCH   2  11
ATOM     11  N   UNL     1       8.597  -2.855  24.776  0.00  0.00    -0.301 N 
ATOM     12  H   UNL     1       7.643  -2.514  24.798  0.00  0.00    +0.150 HD
ATOM     13  C   UNL     1       8.845  -4.192  25.003  0.00  0.00    +0.218 C 
ATOM     14  O   UNL     1       9.990  -4.637  25.063  0.00  0.00    -0.275 OA
BRANCH  13  15
ATOM     15  C   UNL     1       7.614  -5.060  25.164  0.00  0.00    +0.130 C 
BRANCH  15  16
ATOM     16  C   UNL     1       6.934  -5.340  23.849  0.00  0.00    -0.039 A 
ATOM     17  C   UNL     1       5.534  -5.406  23.778  0.00  0.00    +0.004 A 
ATOM     18  C   UNL     1       4.899  -5.684  22.569  0.00  0.00    +0.000 A 
ATOM     19  C   UNL     1       5.655  -5.905  21.421  0.00  0.00    +0.000 A 
ATOM     20  C   UNL     1       7.047  -5.844  21.480  0.00  0.00    +0.000 A 
ATOM     21  C   UNL     1       7.686  -5.563  22.689  0.00  0.00    +0.004 A 
ENDBRANCH  15  16
ENDBRANCH  13  15
ENDBRANCH   2  11
BRANCH   6  22
ATOM     22  C   UNL     1       9.543   2.156  22.680  0.00  0.00    +0.327 C 
ATOM     23  OXT UNL     1      10.081   1.757  21.657  0.00  0.00    -0.249 OA
BRANCH  22  24
ATOM     24  O   UNL     1       9.389   3.484  22.925  0.00  0.00    -0.479 OA
ATOM     25  H   UNL     1       9.749   4.010  22.181  0.00  0.00    +0.295 HD
ENDBRANCH  22  24
ENDBRANCH   6  22
TORSDOF 5
ENDMDL
MODEL 9
REMARK VINA RESULT:      -6.5      2.731      7.373
REMARK  Name = 
REMARK  7 active torsions:
REMARK  status: ('A' for Active; 'I' for Inactive)
REMARK    1  A    between atoms: C_4  and  C_5
REMARK    2  A    between atoms: C_4  and  C_6
REMARK    3  A    between atoms: CA_7  and  C_24
REMARK    4  A    between atoms: CA_12  and  N_14
REMARK    5  A    between atoms: C_15  and  C_17
REMARK    6  A    between atoms: C_17  and  C_18
REMARK    7  A    between atoms: C_24  and  O_25
REMARK                            x       y       z     vdW  Elec       q    Type
REMARK                         _______ _______ _______ _____ _____    ______ ____
ROOT
ATOM      1  C   UNL     1       6.394  -3.996  26.014  0.00  0.00    +0.165 C 
ATOM      2  CA  UNL     1       7.686  -3.263  25.557  0.00  0.00    +0.190 C 
ATOM      3  C   UNL     1       7.774  -4.384  24.499  0.00  0.00    +0.240 C 
ATOM      4  O   UNL     1       8.353  -4.562  23.450  0.00  0.00    -0.273 OA
ATOM      5  N   UNL     1       6.733  -5.082  25.061  0.00  0.00    -0.271 N 
ATOM      6  CA  UNL     1       5.624  -5.568  24.213  0.00  0.00    +0.201 C 
ATOM      7  C   UNL     1       4.712  -4.354  23.912  0.00  0.00    +0.042 C 
ATOM      8  C   UNL     1       5.254  -3.489  22.754  0.00  0.00    +0.025 C 
ATOM      9  C   UNL     1       3.250  -4.671  23.582  0.00  0.00    +0.025 C 
ATOM     10  S   UNL     1       4.771  -3.336  25.443  0.00  0.00    -0.127 S 
ENDROOT
BRANCH   2  11
ATOM     11  N   UNL     1       7.529  -1.870  25.056  0.00  0.00    -0.301 N 
ATOM     12  H   UNL     1       7.169  -1.691  24.126  0.00  0.00    +0.150 HD
ATOM     13  C   UNL     1       7.841  -0.808  25.878  0.00  0.00    +0.218 C 
ATOM     14  O   UNL     1       8.351  -0.975  26.985  0.00  0.00    -0.275 OA
BRANCH  13  15
ATOM     15  C   UNL     1       7.505   0.560  25.323  0.00  0.00    +0.130 C 
BRANCH  15  16
ATOM     16  C   UNL     1       8.412   0.959  24.189  0.00  0.00    -0.039 A 
ATOM     17  C   UNL     1       9.721   1.390  24.448  0.00  0.00    +0.004 A 
ATOM     18  C   UNL     1      10.559   1.779  23.405  0.00  0.00    +0.000 A 
ATOM     19  C   UNL     1      10.096   1.747  22.093  0.00  0.00    +0.000 A 
ATOM     20  C   UNL     1       8.796   1.322  21.822  0.00  0.00    +0.000 A 
ATOM     21  C   UNL     1       7.955   0.930  22.866  0.00  0.00    +0.004 A 
ENDBRANCH  15  16
ENDBRANCH  13  15
ENDBRANCH   2  11
BRANCH   6  22
ATOM     22  C   UNL     1       4.944  -6.740  24.949  0.00  0.00    +0.327 C 
ATOM     23  OXT UNL     1       4.808  -6.820  26.161  0.00  0.00    -0.249 OA
BRANCH  22  24
ATOM     24  O   UNL     1       4.410  -7.670  24.115  0.00  0.00    -0.479 OA
ATOM     25  H   UNL     1       4.139  -7.254  23.271  0.00  0.00    +0.295 HD
ENDBRANCH  22  24
ENDBRANCH   6  22
TORSDOF 5
ENDMDL
