MODEL 1
REMARK VINA RESULT:      -7.5      0.000      0.000
REMARK  Name = 
REMARK  8 active torsions:
REMARK  status: ('A' for Active; 'I' for Inactive)
REMARK    1  A    between atoms: C_1  and  P_2
REMARK    2  A    between atoms: P_2  and  O_3
REMARK    3  A    between atoms: P_2  and  O_5
REMARK    4  A    between atoms: O_5  and  C_6
REMARK    5  A    between atoms: C_6  and  C_7
REMARK    6  A    between atoms: C_10  and  N_18
REMARK    7  A    between atoms: C_12  and  O_14
REMARK    8  A    between atoms: C_15  and  O_17
REMARK                            x       y       z     vdW  Elec       q    Type
REMARK                         _______ _______ _______ _____ _____    ______ ____
ROOT
ATOM      1  C   UNL     1       8.596  -4.246  26.420  0.00  0.00    +0.178 C 
ATOM      2  C   UNL     1       8.883  -5.281  25.335  0.00  0.00    +0.178 C 
ATOM      3  C   UNL     1       8.516  -4.597  24.020  0.00  0.00    +0.195 C 
ATOM      4  C   UNL     1       8.197  -3.145  24.403  0.00  0.00    +0.253 C 
ATOM      5  O   UNL     1       8.635  -2.963  25.766  0.00  0.00    -0.346 OA
ENDROOT
BRANCH   4   6
ATOM      6  N   UNL     1       8.787  -2.111  23.568  0.00  0.00    -0.286 N 
ATOM      7  C   UNL     1       8.216  -0.918  23.198  0.00  0.00    +0.167 A 
ATOM      8  N   UNL     1       6.945  -0.515  23.377  0.00  0.00    -0.216 NA
ATOM      9  C   UNL     1       6.754   0.719  22.857  0.00  0.00    +0.225 A 
ATOM     10  N   UNL     1       7.658   1.535  22.275  0.00  0.00    -0.219 NA
ATOM     11  C   UNL     1       8.935   1.107  22.167  0.00  0.00    +0.147 A 
ATOM     12  N   UNL     1       9.874   1.968  21.622  0.00  0.00    -0.341 N 
ATOM     13  H   UNL     1      10.715   1.516  21.282  0.00  0.00    +0.144 HD
ATOM     14  H   UNL     1       9.467   2.711  21.070  0.00  0.00    +0.144 HD
ATOM     15  C   UNL     1       9.242  -0.195  22.604  0.00  0.00    +0.147 A 
ATOM     16  N   UNL     1      10.406  -0.928  22.581  0.00  0.00    -0.231 NA
ATOM     17  C   UNL     1      10.101  -2.066  23.171  0.00  0.00    +0.203 A 
ENDBRANCH   4   6
BRANCH   2  18
ATOM     18  O   UNL     1      10.285  -5.603  25.323  0.00  0.00    -0.386 OA
ATOM     19  H   UNL     1      10.656  -5.357  24.457  0.00  0.00    +0.210 HD
ENDBRANCH   2  18
BRANCH   3  20
ATOM     20  O   UNL     1       7.370  -5.223  23.433  0.00  0.00    -0.385 OA
ATOM     21  H   UNL     1       7.078  -4.635  22.708  0.00  0.00    +0.210 HD
ENDBRANCH   3  20
BRANCH   1  22
ATOM     22  C   UNL     1       7.246  -4.471  27.117  0.00  0.00    +0.204 C 
BRANCH  22  23
ATOM     23  O   UNL     1       7.284  -5.676  27.873  0.00  0.00    -0.305 OA
BRANCH  23  25
ATOM     24  C   UNL     1       4.652  -5.140  27.838  0.00  0.00    +0.143 C 
ATOM     25  P   UNL     1       5.923  -6.122  28.607  0.00  0.00    +0.327 P 
ATOM     26  O   UNL     1       5.647  -7.588  28.636  0.00  0.00    -0.259 OA
BRANCH  25  27
ATOM     27  O   UNL     1       6.089  -5.463  30.064  0.00  0.00    -0.324 OA
ATOM     28  H   UNL     1       5.579  -4.648  30.227  0.00  0.00    +0.220 HD
ENDBRANCH  25  27
ENDBRANCH  23  25
ENDBRANCH  22  23
ENDBRANCH   1  22
TORSDOF 7
ENDMDL
MODEL 2
REMARK VINA RESULT:      -7.0      1.186      2.119
REMARK  Name = 
REMARK  8 active torsions:
REMARK  status: ('A' for Active; 'I' for Inactive)
REMARK    1  A    between atoms: C_1  and  P_2
REMARK    2  A    between atoms: P_2  and  O_3
REMARK    3  A    between atoms: P_2  and  O_5
REMARK    4  A    between atoms: O_5  and  C_6
REMARK    5  A    between atoms: C_6  and  C_7
REMARK    6  A    between atoms: C_10  and  N_18
REMARK    7  A    between atoms: C_12  and  O_14
REMARK    8  A    between atoms: C_15  and  O_17
REMARK                            x       y       z     vdW  Elec       q    Type
REMARK                         _______ _______ _______ _____ _____    ______ ____
ROOT
ATOM      1  C   UNL     1       8.355  -4.600  26.509  0.00  0.00    +0.178 C 
ATOM      2  C   UNL     1       8.602  -5.327  25.189  0.00  0.00    +0.178 C 
ATOM      3  C   UNL     1       7.798  -4.553  24.147  0.00  0.00    +0.195 C 
ATOM      4  C   UNL     1       7.265  -3.320  24.891  0.00  0.00    +0.253 C 
ATOM      5  O   UNL     1       7.958  -3.261  26.156  0.00  0.00    -0.346 OA
ENDROOT
BRANCH   4   6
ATOM      6  N   UNL     1       7.403  -2.044  24.208  0.00  0.00    -0.286 N 
ATOM      7  C   UNL     1       8.472  -1.614  23.461  0.00  0.00    +0.167 A 
ATOM      8  N   UNL     1       9.680  -2.191  23.333  0.00  0.00    -0.216 NA
ATOM      9  C   UNL     1      10.480  -1.458  22.525  0.00  0.00    +0.225 A 
ATOM     10  N   UNL     1      10.183  -0.328  21.850  0.00  0.00    -0.219 NA
ATOM     11  C   UNL     1       8.938   0.184  21.968  0.00  0.00    +0.147 A 
ATOM     12  N   UNL     1       8.616   1.311  21.229  0.00  0.00    -0.341 N 
ATOM     13  H   UNL     1       7.813   1.825  21.570  0.00  0.00    +0.144 HD
ATOM     14  H   UNL     1       9.425   1.830  20.914  0.00  0.00    +0.144 HD
ATOM     15  C   UNL     1       8.037  -0.449  22.843  0.00  0.00    +0.147 A 
ATOM     16  N   UNL     1       6.746  -0.151  23.218  0.00  0.00    -0.231 NA
ATOM     17  C   UNL     1       6.395  -1.128  24.028  0.00  0.00    +0.203 A 
ENDBRANCH   4   6
BRANCH   2  18
ATOM     18  O   UNL     1       9.998  -5.265  24.848  0.00  0.00    -0.386 OA
ATOM     19  H   UNL     1      10.523  -5.366  25.662  0.00  0.00    +0.210 HD
ENDBRANCH   2  18
BRANCH   3  20
ATOM     20  O   UNL     1       6.712  -5.351  23.660  0.00  0.00    -0.385 OA
ATOM     21  H   UNL     1       5.927  -5.093  24.184  0.00  0.00    +0.210 HD
ENDBRANCH   3  20
BRANCH   1  22
ATOM     22  C   UNL     1       7.289  -5.283  27.377  0.00  0.00    +0.204 C 
BRANCH  22  23
ATOM     23  O   UNL     1       6.531  -6.195  26.589  0.00  0.00    -0.305 OA
BRANCH  23  25
ATOM     24  C   UNL     1       4.462  -5.034  27.850  0.00  0.00    +0.143 C 
ATOM     25  P   UNL     1       5.044  -6.540  27.099  0.00  0.00    +0.327 P 
ATOM     26  O   UNL     1       4.124  -7.125  26.079  0.00  0.00    -0.259 OA
BRANCH  25  27
ATOM     27  O   UNL     1       5.328  -7.508  28.349  0.00  0.00    -0.324 OA
ATOM     28  H   UNL     1       5.852  -7.127  29.077  0.00  0.00    +0.220 HD
ENDBRANCH  25  27
ENDBRANCH  23  25
ENDBRANCH  22  23
ENDBRANCH   1  22
TORSDOF 7
ENDMDL
MODEL 3
REMARK VINA RESULT:      -7.0      2.166      3.215
REMARK  Name = 
REMARK  8 active torsions:
REMARK  status: ('A' for Active; 'I' for Inactive)
REMARK    1  A    between atoms: C_1  and  P_2
REMARK    2  A    between atoms: P_2  and  O_3
REMARK    3  A    between atoms: P_2  and  O_5
REMARK    4  A    between atoms: O_5  and  C_6
REMARK    5  A    between atoms: C_6  and  C_7
REMARK    6  A    between atoms: C_10  and  N_18
REMARK    7  A    between atoms: C_12  and  O_14
REMARK    8  A    between atoms: C_15  and  O_17
REMARK                            x       y       z     vdW  Elec       q    Type
REMARK                         _______ _______ _______ _____ _____    ______ ____
ROOT
ATOM      1  C   UNL     1       7.160  -4.368  22.748  0.00  0.00    +0.178 C 
ATOM      2  C   UNL     1       5.852  -3.664  22.391  0.00  0.00    +0.178 C 
ATOM      3  C   UNL     1       6.035  -2.219  22.850  0.00  0.00    +0.195 C 
ATOM      4  C   UNL     1       7.502  -2.126  23.293  0.00  0.00    +0.253 C 
ATOM      5  O   UNL     1       8.155  -3.332  22.842  0.00  0.00    -0.346 OA
ENDROOT
BRANCH   4   6
ATOM      6  N   UNL     1       8.249  -0.971  22.820  0.00  0.00    -0.286 N 
ATOM      7  C   UNL     1       8.402   0.235  23.458  0.00  0.00    +0.167 A 
ATOM      8  N   UNL     1       7.772   0.676  24.562  0.00  0.00    -0.216 NA
ATOM      9  C   UNL     1       8.174   1.928  24.878  0.00  0.00    +0.225 A 
ATOM     10  N   UNL     1       9.110   2.688  24.272  0.00  0.00    -0.219 NA
ATOM     11  C   UNL     1       9.755   2.180  23.198  0.00  0.00    +0.147 A 
ATOM     12  N   UNL     1      10.757   2.937  22.612  0.00  0.00    -0.341 N 
ATOM     13  H   UNL     1      10.987   2.670  21.663  0.00  0.00    +0.144 HD
ATOM     14  H   UNL     1      10.702   3.922  22.838  0.00  0.00    +0.144 HD
ATOM     15  C   UNL     1       9.368   0.912  22.726  0.00  0.00    +0.147 A 
ATOM     16  N   UNL     1       9.782   0.159  21.650  0.00  0.00    -0.231 NA
ATOM     17  C   UNL     1       9.098  -0.963  21.741  0.00  0.00    +0.203 A 
ENDBRANCH   4   6
BRANCH   2  18
ATOM     18  O   UNL     1       5.657  -3.685  20.966  0.00  0.00    -0.386 OA
ATOM     19  H   UNL     1       4.724  -3.891  20.781  0.00  0.00    +0.210 HD
ENDBRANCH   2  18
BRANCH   3  20
ATOM     20  O   UNL     1       5.162  -1.928  23.947  0.00  0.00    -0.385 OA
ATOM     21  H   UNL     1       5.574  -2.329  24.738  0.00  0.00    +0.210 HD
ENDBRANCH   3  20
BRANCH   1  22
ATOM     22  C   UNL     1       7.069  -5.170  24.055  0.00  0.00    +0.204 C 
BRANCH  22  23
ATOM     23  O   UNL     1       8.314  -5.123  24.742  0.00  0.00    -0.305 OA
BRANCH  23  25
ATOM     24  C   UNL     1       7.733  -3.268  26.597  0.00  0.00    +0.143 C 
ATOM     25  P   UNL     1       8.260  -4.950  26.341  0.00  0.00    +0.327 P 
ATOM     26  O   UNL     1       7.465  -5.973  27.082  0.00  0.00    -0.259 OA
BRANCH  25  27
ATOM     27  O   UNL     1       9.818  -4.928  26.735  0.00  0.00    -0.324 OA
ATOM     28  H   UNL     1      10.292  -5.776  26.657  0.00  0.00    +0.220 HD
ENDBRANCH  25  27
ENDBRANCH  23  25
ENDBRANCH  22  23
ENDBRANCH   1  22
TORSDOF 7
ENDMDL
MODEL 4
REMARK VINA RESULT:      -6.8      4.554      7.376
REMARK  Name = 
REMARK  8 active torsions:
REMARK  status: ('A' for Active; 'I' for Inactive)
REMARK    1  A    between atoms: C_1  and  P_2
REMARK    2  A    between atoms: P_2  and  O_3
REMARK    3  A    between atoms: P_2  and  O_5
REMARK    4  A    between atoms: O_5  and  C_6
REMARK    5  A    between atoms: C_6  and  C_7
REMARK    6  A    between atoms: C_10  and  N_18
REMARK    7  A    between atoms: C_12  and  O_14
REMARK    8  A    between atoms: C_15  and  O_17
REMARK                            x       y       z     vdW  Elec       q    Type
REMARK                         _______ _______ _______ _____ _____    ______ ____
ROOT
ATOM      1  C   UNL     1       8.443  -0.154  22.839  0.00  0.00    +0.178 C 
ATOM      2  C   UNL     1       9.556  -1.089  22.371  0.00  0.00    +0.178 C 
ATOM      3  C   UNL     1       9.173  -2.469  22.900  0.00  0.00    +0.195 C 
ATOM      4  C   UNL     1       7.771  -2.288  23.501  0.00  0.00    +0.253 C 
ATOM      5  O   UNL     1       7.296  -0.993  23.078  0.00  0.00    -0.346 OA
ENDROOT
BRANCH   4   6
ATOM      6  N   UNL     1       6.784  -3.298  23.153  0.00  0.00    -0.286 N 
ATOM      7  C   UNL     1       6.320  -4.313  23.953  0.00  0.00    +0.167 A 
ATOM      8  N   UNL     1       6.785  -4.702  25.154  0.00  0.00    -0.216 NA
ATOM      9  C   UNL     1       6.079  -5.756  25.624  0.00  0.00    +0.225 A 
ATOM     10  N   UNL     1       5.008  -6.364  25.072  0.00  0.00    -0.219 NA
ATOM     11  C   UNL     1       4.545  -5.902  23.890  0.00  0.00    +0.147 A 
ATOM     12  N   UNL     1       3.411  -6.490  23.352  0.00  0.00    -0.341 N 
ATOM     13  H   UNL     1       3.285  -6.335  22.359  0.00  0.00    +0.144 HD
ATOM     14  H   UNL     1       3.217  -7.409  23.728  0.00  0.00    +0.144 HD
ATOM     15  C   UNL     1       5.244  -4.856  23.262  0.00  0.00    +0.147 A 
ATOM     16  N   UNL     1       5.065  -4.214  22.058  0.00  0.00    -0.231 NA
ATOM     17  C   UNL     1       5.997  -3.284  22.028  0.00  0.00    +0.203 A 
ENDBRANCH   4   6
BRANCH   2  18
ATOM     18  O   UNL     1       9.591  -1.128  20.934  0.00  0.00    -0.386 OA
ATOM     19  H   UNL     1      10.509  -1.281  20.647  0.00  0.00    +0.210 HD
ENDBRANCH   2  18
BRANCH   3  20
ATOM     20  O   UNL     1      10.098  -2.893  23.907  0.00  0.00    -0.385 OA
ATOM     21  H   UNL     1      10.228  -3.854  23.771  0.00  0.00    +0.210 HD
ENDBRANCH   3  20
BRANCH   1  22
ATOM     22  C   UNL     1       8.820   0.640  24.098  0.00  0.00    +0.204 C 
BRANCH  22  23
ATOM     23  O   UNL     1      10.118   1.204  23.947  0.00  0.00    -0.305 OA
BRANCH  23  25
ATOM     24  C   UNL     1       8.639   3.421  23.609  0.00  0.00    +0.143 C 
ATOM     25  P   UNL     1      10.208   2.655  23.259  0.00  0.00    +0.327 P 
ATOM     26  O   UNL     1      11.399   3.478  23.624  0.00  0.00    -0.259 OA
BRANCH  25  27
ATOM     27  O   UNL     1      10.121   2.298  21.695  0.00  0.00    -0.324 OA
ATOM     28  H   UNL     1       9.678   1.459  21.470  0.00  0.00    +0.220 HD
ENDBRANCH  25  27
ENDBRANCH  23  25
ENDBRANCH  22  23
ENDBRANCH   1  22
TORSDOF 7
ENDMDL
MODEL 5
REMARK VINA RESULT:      -6.8      2.079      2.639
REMARK  Name = 
REMARK  8 active torsions:
REMARK  status: ('A' for Active; 'I' for Inactive)
REMARK    1  A    between atoms: C_1  and  P_2
REMARK    2  A    between atoms: P_2  and  O_3
REMARK    3  A    between atoms: P_2  and  O_5
REMARK    4  A    between atoms: O_5  and  C_6
REMARK    5  A    between atoms: C_6  and  C_7
REMARK    6  A    between atoms: C_10  and  N_18
REMARK    7  A    between atoms: C_12  and  O_14
REMARK    8  A    between atoms: C_15  and  O_17
REMARK                            x       y       z     vdW  Elec       q    Type
REMARK                         _______ _______ _______ _____ _____    ______ ____
ROOT
ATOM      1  C   UNL     1       7.861  -4.753  26.574  0.00  0.00    +0.178 C 
ATOM      2  C   UNL     1       8.659  -5.342  25.412  0.00  0.00    +0.178 C 
ATOM      3  C   UNL     1       8.670  -4.255  24.340  0.00  0.00    +0.195 C 
ATOM      4  C   UNL     1       8.024  -3.033  25.007  0.00  0.00    +0.253 C 
ATOM      5  O   UNL     1       7.931  -3.323  26.418  0.00  0.00    -0.346 OA
ENDROOT
BRANCH   4   6
ATOM      6  N   UNL     1       8.703  -1.761  24.823  0.00  0.00    -0.286 N 
ATOM      7  C   UNL     1       9.019  -1.154  23.632  0.00  0.00    +0.167 A 
ATOM      8  N   UNL     1       8.927  -1.665  22.391  0.00  0.00    -0.216 NA
ATOM      9  C   UNL     1       9.352  -0.770  21.470  0.00  0.00    +0.225 A 
ATOM     10  N   UNL     1       9.770   0.499  21.662  0.00  0.00    -0.219 NA
ATOM     11  C   UNL     1       9.792   0.985  22.923  0.00  0.00    +0.147 A 
ATOM     12  N   UNL     1      10.165   2.306  23.112  0.00  0.00    -0.341 N 
ATOM     13  H   UNL     1      10.462   2.531  24.054  0.00  0.00    +0.144 HD
ATOM     14  H   UNL     1      10.686   2.693  22.336  0.00  0.00    +0.144 HD
ATOM     15  C   UNL     1       9.445   0.121  23.977  0.00  0.00    +0.147 A 
ATOM     16  N   UNL     1       9.421   0.291  25.343  0.00  0.00    -0.231 NA
ATOM     17  C   UNL     1       8.965  -0.850  25.817  0.00  0.00    +0.203 A 
ENDBRANCH   4   6
BRANCH   2  18
ATOM     18  O   UNL     1      10.009  -5.607  25.830  0.00  0.00    -0.386 OA
ATOM     19  H   UNL     1      10.588  -5.588  25.047  0.00  0.00    +0.210 HD
ENDBRANCH   2  18
BRANCH   3  20
ATOM     20  O   UNL     1       7.906  -4.667  23.202  0.00  0.00    -0.385 OA
ATOM     21  H   UNL     1       6.966  -4.547  23.446  0.00  0.00    +0.210 HD
ENDBRANCH   3  20
BRANCH   1  22
ATOM     22  C   UNL     1       6.404  -5.238  26.604  0.00  0.00    +0.204 C 
BRANCH  22  23
ATOM     23  O   UNL     1       6.166  -6.131  25.522  0.00  0.00    -0.305 OA
BRANCH  23  25
ATOM     24  C   UNL     1       3.548  -5.657  25.900  0.00  0.00    +0.143 C 
ATOM     25  P   UNL     1       4.817  -5.908  24.674  0.00  0.00    +0.327 P 
ATOM     26  O   UNL     1       4.877  -4.858  23.615  0.00  0.00    -0.259 OA
BRANCH  25  27
ATOM     27  O   UNL     1       4.520  -7.383  24.111  0.00  0.00    -0.324 OA
ATOM     28  H   UNL     1       3.600  -7.565  23.846  0.00  0.00    +0.220 HD
ENDBRANCH  25  27
ENDBRANCH  23  25
ENDBRANCH  22  23
ENDBRANCH   1  22
TORSDOF 7
ENDMDL
MODEL 6
REMARK VINA RESULT:      -6.8      1.535      1.893
REMARK  Name = 
REMARK  8 active torsions:
REMARK  status: ('A' for Active; 'I' for Inactive)
REMARK    1  A    between atoms: C_1  and  P_2
REMARK    2  A    between atoms: P_2  and  O_3
REMARK    3  A    between atoms: P_2  and  O_5
REMARK    4  A    between atoms: O_5  and  C_6
REMARK    5  A    between atoms: C_6  and  C_7
REMARK    6  A    between atoms: C_10  and  N_18
REMARK    7  A    between atoms: C_12  and  O_14
REMARK    8  A    between atoms: C_15  and  O_17
REMARK                            x       y       z     vdW  Elec       q    Type
REMARK                         _______ _______ _______ _____ _____    ______ ____
ROOT
ATOM      1  C   UNL     1       7.396  -4.768  24.564  0.00  0.00    +0.178 C 
ATOM      2  C   UNL     1       6.916  -5.203  23.181  0.00  0.00    +0.178 C 
ATOM      3  C   UNL     1       6.681  -3.906  22.410  0.00  0.00    +0.195 C 
ATOM      4  C   UNL     1       7.200  -2.795  23.334  0.00  0.00    +0.253 C 
ATOM      5  O   UNL     1       7.930  -3.441  24.399  0.00  0.00    -0.346 OA
ENDROOT
BRANCH   4   6
ATOM      6  N   UNL     1       8.044  -1.783  22.719  0.00  0.00    -0.286 N 
ATOM      7  C   UNL     1       7.799  -0.434  22.643  0.00  0.00    +0.167 A 
ATOM      8  N   UNL     1       6.669   0.224  22.962  0.00  0.00    -0.216 NA
ATOM      9  C   UNL     1       6.804   1.550  22.731  0.00  0.00    +0.225 A 
ATOM     10  N   UNL     1       7.892   2.222  22.301  0.00  0.00    -0.219 NA
ATOM     11  C   UNL     1       9.021   1.523  22.046  0.00  0.00    +0.147 A 
ATOM     12  N   UNL     1      10.154   2.220  21.660  0.00  0.00    -0.341 N 
ATOM     13  H   UNL     1      10.857   1.660  21.193  0.00  0.00    +0.144 HD
ATOM     14  H   UNL     1       9.956   3.145  21.301  0.00  0.00    +0.144 HD
ATOM     15  C   UNL     1       8.982   0.123  22.175  0.00  0.00    +0.147 A 
ATOM     16  N   UNL     1       9.922  -0.855  21.942  0.00  0.00    -0.231 NA
ATOM     17  C   UNL     1       9.331  -1.981  22.284  0.00  0.00    +0.203 A 
ENDBRANCH   4   6
BRANCH   2  18
ATOM     18  O   UNL     1       7.944  -5.963  22.522  0.00  0.00    -0.386 OA
ATOM     19  H   UNL     1       7.849  -6.899  22.771  0.00  0.00    +0.210 HD
ENDBRANCH   2  18
BRANCH   3  20
ATOM     20  O   UNL     1       5.284  -3.726  22.148  0.00  0.00    -0.385 OA
ATOM     21  H   UNL     1       4.931  -4.612  21.929  0.00  0.00    +0.210 HD
ENDBRANCH   3  20
BRANCH   1  22
ATOM     22  C   UNL     1       6.279  -4.788  25.617  0.00  0.00    +0.204 C 
BRANCH  22  23
ATOM     23  O   UNL     1       6.314  -6.013  26.341  0.00  0.00    -0.305 OA
BRANCH  23  25
ATOM     24  C   UNL     1       4.257  -5.128  27.825  0.00  0.00    +0.143 C 
ATOM     25  P   UNL     1       4.925  -6.536  26.961  0.00  0.00    +0.327 P 
ATOM     26  O   UNL     1       3.984  -7.183  26.001  0.00  0.00    -0.259 OA
BRANCH  25  27
ATOM     27  O   UNL     1       5.422  -7.509  28.140  0.00  0.00    -0.324 OA
ATOM     28  H   UNL     1       4.954  -7.426  28.991  0.00  0.00    +0.220 HD
ENDBRANCH  25  27
ENDBRANCH  23  25
ENDBRANCH  22  23
ENDBRANCH   1  22
TORSDOF 7
ENDMDL
MODEL 7
REMARK VINA RESULT:      -6.7      4.976      7.717
REMARK  Name = 
REMARK  8 active torsions:
REMARK  status: ('A' for Active; 'I' for Inactive)
REMARK    1  A    between atoms: C_1  and  P_2
REMARK    2  A    between atoms: P_2  and  O_3
REMARK    3  A    between atoms: P_2  and  O_5
REMARK    4  A    between atoms: O_5  and  C_6
REMARK    5  A    between atoms: C_6  and  C_7
REMARK    6  A    between atoms: C_10  and  N_18
REMARK    7  A    between atoms: C_12  and  O_14
REMARK    8  A    between atoms: C_15  and  O_17
REMARK                            x       y       z     vdW  Elec       q    Type
REMARK                         _______ _______ _______ _____ _____    ______ ____
ROOT
ATOM      1  C   UNL     1       7.853   1.430  22.018  0.00  0.00    +0.178 C 
ATOM      2  C   UNL     1       9.107   2.093  22.586  0.00  0.00    +0.178 C 
ATOM      3  C   UNL     1       9.450   1.295  23.842  0.00  0.00    +0.195 C 
ATOM      4  C   UNL     1       8.474   0.109  23.838  0.00  0.00    +0.253 C 
ATOM      5  O   UNL     1       7.843   0.088  22.540  0.00  0.00    -0.346 OA
ENDROOT
BRANCH   4   6
ATOM      6  N   UNL     1       9.045  -1.199  24.116  0.00  0.00    -0.286 N 
ATOM      7  C   UNL     1       8.583  -2.131  25.012  0.00  0.00    +0.167 A 
ATOM      8  N   UNL     1       7.619  -1.985  25.939  0.00  0.00    -0.216 NA
ATOM      9  C   UNL     1       7.459  -3.125  26.650  0.00  0.00    +0.225 A 
ATOM     10  N   UNL     1       8.085  -4.310  26.490  0.00  0.00    -0.219 NA
ATOM     11  C   UNL     1       9.007  -4.423  25.508  0.00  0.00    +0.147 A 
ATOM     12  N   UNL     1       9.607  -5.656  25.307  0.00  0.00    -0.341 N 
ATOM     13  H   UNL     1      10.480  -5.623  24.796  0.00  0.00    +0.144 HD
ATOM     14  H   UNL     1       9.536  -6.274  26.106  0.00  0.00    +0.144 HD
ATOM     15  C   UNL     1       9.317  -3.280  24.749  0.00  0.00    +0.147 A 
ATOM     16  N   UNL     1      10.226  -3.058  23.740  0.00  0.00    -0.231 NA
ATOM     17  C   UNL     1      10.031  -1.806  23.379  0.00  0.00    +0.203 A 
ENDBRANCH   4   6
BRANCH   2  18
ATOM     18  O   UNL     1      10.189   1.980  21.646  0.00  0.00    -0.386 OA
ATOM     19  H   UNL     1       9.932   1.354  20.946  0.00  0.00    +0.210 HD
ENDBRANCH   2  18
BRANCH   3  20
ATOM     20  O   UNL     1       9.257   2.097  25.012  0.00  0.00    -0.385 OA
ATOM     21  H   UNL     1       9.987   2.749  25.020  0.00  0.00    +0.210 HD
ENDBRANCH   3  20
BRANCH   1  22
ATOM     22  C   UNL     1       6.564   2.178  22.387  0.00  0.00    +0.204 C 
BRANCH  22  23
ATOM     23  O   UNL     1       6.861   3.258  23.265  0.00  0.00    -0.305 OA
BRANCH  23  25
ATOM     24  C   UNL     1       5.923   5.533  24.342  0.00  0.00    +0.143 C 
ATOM     25  P   UNL     1       6.360   4.721  22.819  0.00  0.00    +0.327 P 
ATOM     26  O   UNL     1       7.293   5.492  21.946  0.00  0.00    -0.259 OA
BRANCH  25  27
ATOM     27  O   UNL     1       4.942   4.401  22.133  0.00  0.00    -0.324 OA
ATOM     28  H   UNL     1       4.295   5.130  22.127  0.00  0.00    +0.220 HD
ENDBRANCH  25  27
ENDBRANCH  23  25
ENDBRANCH  22  23
ENDBRANCH   1  22
TORSDOF 7
ENDMDL
MODEL 8
REMARK VINA RESULT:      -6.7      4.578      7.333
REMARK  Name = 
REMARK  8 active torsions:
REMARK  status: ('A' for Active; 'I' for Inactive)
REMARK    1  A    between atoms: C_1  and  P_2
REMARK    2  A    between atoms: P_2  and  O_3
REMARK    3  A    between atoms: P_2  and  O_5
REMARK    4  A    between atoms: O_5  and  C_6
REMARK    5  A    between atoms: C_6  and  C_7
REMARK    6  A    between atoms: C_10  and  N_18
REMARK    7  A    between atoms: C_12  and  O_14
REMARK    8  A    between atoms: C_15  and  O_17
REMARK                            x       y       z     vdW  Elec       q    Type
REMARK                         _______ _______ _______ _____ _____    ______ ____
ROOT
ATOM      1  C   UNL     1       8.715  -0.259  22.119  0.00  0.00    +0.178 C 
ATOM      2  C   UNL     1      10.116  -0.521  22.667  0.00  0.00    +0.178 C 
ATOM      3  C   UNL     1       9.923  -0.776  24.160  0.00  0.00    +0.195 C 
ATOM      4  C   UNL     1       8.401  -0.814  24.362  0.00  0.00    +0.253 C 
ATOM      5  O   UNL     1       7.804  -0.872  23.050  0.00  0.00    -0.346 OA
ENDROOT
BRANCH   4   6
ATOM      6  N   UNL     1       7.884  -1.905  25.173  0.00  0.00    -0.286 N 
ATOM      7  C   UNL     1       8.326  -3.205  25.192  0.00  0.00    +0.167 A 
ATOM      8  N   UNL     1       9.204  -3.796  24.361  0.00  0.00    -0.216 NA
ATOM      9  C   UNL     1       9.370  -5.099  24.685  0.00  0.00    +0.225 A 
ATOM     10  N   UNL     1       8.827  -5.786  25.711  0.00  0.00    -0.219 NA
ATOM     11  C   UNL     1       7.992  -5.134  26.552  0.00  0.00    +0.147 A 
ATOM     12  N   UNL     1       7.481  -5.825  27.639  0.00  0.00    -0.341 N 
ATOM     13  H   UNL     1       6.650  -5.415  28.047  0.00  0.00    +0.144 HD
ATOM     14  H   UNL     1       7.522  -6.830  27.533  0.00  0.00    +0.144 HD
ATOM     15  C   UNL     1       7.680  -3.791  26.273  0.00  0.00    +0.147 A 
ATOM     16  N   UNL     1       6.842  -2.889  26.889  0.00  0.00    -0.231 NA
ATOM     17  C   UNL     1       6.995  -1.770  26.210  0.00  0.00    +0.203 A 
ENDBRANCH   4   6
BRANCH   2  18
ATOM     18  O   UNL     1      10.670  -1.699  22.056  0.00  0.00    -0.386 OA
ATOM     19  H   UNL     1      11.442  -1.442  21.522  0.00  0.00    +0.210 HD
ENDBRANCH   2  18
BRANCH   3  20
ATOM     20  O   UNL     1      10.502   0.286  24.928  0.00  0.00    -0.385 OA
ATOM     21  H   UNL     1      11.451   0.066  25.024  0.00  0.00    +0.210 HD
ENDBRANCH   3  20
BRANCH   1  22
ATOM     22  C   UNL     1       8.411   1.237  21.949  0.00  0.00    +0.204 C 
BRANCH  22  23
ATOM     23  O   UNL     1       9.462   2.014  22.509  0.00  0.00    -0.305 OA
BRANCH  23  25
ATOM     24  C   UNL     1       7.627   3.962  22.739  0.00  0.00    +0.143 C 
ATOM     25  P   UNL     1       9.040   3.201  23.510  0.00  0.00    +0.327 P 
ATOM     26  O   UNL     1       8.837   2.811  24.937  0.00  0.00    -0.259 OA
BRANCH  25  27
ATOM     27  O   UNL     1      10.220   4.270  23.290  0.00  0.00    -0.324 OA
ATOM     28  H   UNL     1      10.076   5.154  23.675  0.00  0.00    +0.220 HD
ENDBRANCH  25  27
ENDBRANCH  23  25
ENDBRANCH  22  23
ENDBRANCH   1  22
TORSDOF 7
ENDMDL
MODEL 9
REMARK VINA RESULT:      -6.5      4.422      7.199
REMARK  Name = 
REMARK  8 active torsions:
REMARK  status: ('A' for Active; 'I' for Inactive)
REMARK    1  A    between atoms: C_1  and  P_2
REMARK    2  A    between atoms: P_2  and  O_3
REMARK    3  A    between atoms: P_2  and  O_5
REMARK    4  A    between atoms: O_5  and  C_6
REMARK    5  A    between atoms: C_6  and  C_7
REMARK    6  A    between atoms: C_10  and  N_18
REMARK    7  A    between atoms: C_12  and  O_14
REMARK    8  A    between atoms: C_15  and  O_17
REMARK                            x       y       z     vdW  Elec       q    Type
REMARK                         _______ _______ _______ _____ _____    ______ ____
ROOT
ATOM      1  C   UNL     1       8.946  -0.529  23.561  0.00  0.00    +0.178 C 
ATOM      2  C   UNL     1       9.634  -1.664  24.316  0.00  0.00    +0.178 C 
ATOM      3  C   UNL     1       8.511  -2.409  25.034  0.00  0.00    +0.195 C 
ATOM      4  C   UNL     1       7.216  -1.766  24.520  0.00  0.00    +0.253 C 
ATOM      5  O   UNL     1       7.575  -0.939  23.393  0.00  0.00    -0.346 OA
ENDROOT
BRANCH   4   6
ATOM      6  N   UNL     1       6.153  -2.677  24.126  0.00  0.00    -0.286 N 
ATOM      7  C   UNL     1       6.263  -3.771  23.304  0.00  0.00    +0.167 A 
ATOM      8  N   UNL     1       7.315  -4.144  22.554  0.00  0.00    -0.216 NA
ATOM      9  C   UNL     1       7.036  -5.271  21.859  0.00  0.00    +0.225 A 
ATOM     10  N   UNL     1       5.914  -6.021  21.891  0.00  0.00    -0.219 NA
ATOM     11  C   UNL     1       4.904  -5.635  22.701  0.00  0.00    +0.147 A 
ATOM     12  N   UNL     1       3.777  -6.437  22.777  0.00  0.00    -0.341 N 
ATOM     13  H   UNL     1       2.951  -5.973  23.135  0.00  0.00    +0.144 HD
ATOM     14  H   UNL     1       3.676  -7.066  21.990  0.00  0.00    +0.144 HD
ATOM     15  C   UNL     1       5.047  -4.433  23.418  0.00  0.00    +0.147 A 
ATOM     16  N   UNL     1       4.200  -3.755  24.265  0.00  0.00    -0.231 NA
ATOM     17  C   UNL     1       4.896  -2.714  24.676  0.00  0.00    +0.203 A 
ENDBRANCH   4   6
BRANCH   2  18
ATOM     18  O   UNL     1      10.271  -2.557  23.385  0.00  0.00    -0.386 OA
ATOM     19  H   UNL     1      10.743  -2.028  22.717  0.00  0.00    +0.210 HD
ENDBRANCH   2  18
BRANCH   3  20
ATOM     20  O   UNL     1       8.626  -2.238  26.452  0.00  0.00    -0.385 OA
ATOM     21  H   UNL     1       7.769  -2.521  26.831  0.00  0.00    +0.210 HD
ENDBRANCH   3  20
BRANCH   1  22
ATOM     22  C   UNL     1       9.036   0.817  24.294  0.00  0.00    +0.204 C 
BRANCH  22  23
ATOM     23  O   UNL     1      10.307   1.414  24.062  0.00  0.00    -0.305 OA
BRANCH  23  25
ATOM     24  C   UNL     1       8.744   3.533  23.529  0.00  0.00    +0.143 C 
ATOM     25  P   UNL     1      10.327   2.782  23.215  0.00  0.00    +0.327 P 
ATOM     26  O   UNL     1      11.500   3.676  23.447  0.00  0.00    -0.259 OA
BRANCH  25  27
ATOM     27  O   UNL     1      10.206   2.249  21.703  0.00  0.00    -0.324 OA
ATOM     28  H   UNL     1      11.020   2.284  21.169  0.00  0.00    +0.220 HD
ENDBRANCH  25  27
ENDBRANCH  23  25
ENDBRANCH  22  23
ENDBRANCH   1  22
TORSDOF 7
ENDMDL
