MODEL 1
REMARK VINA RESULT:      -7.4      0.000      0.000
REMARK  Name = 
REMARK  17 active torsions:
REMARK  status: ('A' for Active; 'I' for Inactive)
REMARK    1  A    between atoms: N_1  and  C_2
REMARK    2  A    between atoms: C_2  and  C_3
REMARK    3  A    between atoms: C_3  and  C_4
REMARK    4  A    between atoms: C_4  and  N_5
REMARK    5  A    between atoms: N_8  and  C_9
REMARK    6  A    between atoms: C_9  and  C_10
REMARK    7  A    between atoms: C_10  and  C_11
REMARK    8  A    between atoms: C_11  and  N_12
REMARK    9  A    between atoms: C_13  and  C_15
REMARK   10  A    between atoms: C_17  and  O_18
REMARK   11  A    between atoms: O_18  and  C_19
REMARK   12  A    between atoms: C_22  and  C_24
REMARK   13  A    between atoms: C_24  and  O_25
REMARK   14  A    between atoms: C_26  and  O_28
REMARK   15  A    between atoms: C_29  and  O_31
REMARK   16  A    between atoms: C_32  and  O_34
REMARK   17  A    between atoms: C_36  and  N_38
REMARK                            x       y       z     vdW  Elec       q    Type
REMARK                         _______ _______ _______ _____ _____    ______ ____
ROOT
ATOM      1  C   UNL     1       6.537  -1.004  23.996  0.00  0.00    +0.047 A 
ATOM      2  C   UNL     1       7.677  -0.621  23.285  0.00  0.00    +0.097 A 
ATOM      3  C   UNL     1       8.494  -1.619  22.731  0.00  0.00    +0.277 A 
ATOM      4  C   UNL     1       8.167  -2.975  22.869  0.00  0.00    +0.130 A 
ATOM      5  C   UNL     1       7.015  -3.341  23.567  0.00  0.00    +0.131 A 
ATOM      6  C   UNL     1       6.218  -2.358  24.148  0.00  0.00    +0.059 A 
ENDROOT
BRANCH   1   9
ATOM      7  N   UNL     1       5.618   1.239  24.125  0.00  0.00    -0.311 N 
ATOM      8  H   UNL     1       6.088   1.444  23.249  0.00  0.00    +0.149 HD
ATOM      9  C   UNL     1       5.655  -0.019  24.664  0.00  0.00    +0.244 C 
ATOM     10  O   UNL     1       4.984  -0.376  25.630  0.00  0.00    -0.270 OA
BRANCH   7  11
ATOM     11  C   UNL     1       4.769   2.275  24.671  0.00  0.00    +0.106 C 
BRANCH  11  12
ATOM     12  C   UNL     1       4.971   3.606  23.951  0.00  0.00    +0.034 C 
BRANCH  12  13
ATOM     13  C   UNL     1       5.945   4.545  24.674  0.00  0.00    +0.086 C 
BRANCH  13  17
ATOM     14  N   UNL     1       9.643   5.153  24.619  0.00  0.00    -0.300 NA
ATOM     15  C   UNL     1       8.938   4.086  23.868  0.00  0.00    +0.100 C 
ATOM     16  C   UNL     1       7.732   4.573  23.022  0.00  0.00    +0.100 C 
ATOM     17  N   UNL     1       6.744   5.388  23.767  0.00  0.00    -0.300 NA
ATOM     18  C   UNL     1       7.473   6.460  24.482  0.00  0.00    +0.100 C 
ATOM     19  C   UNL     1       8.637   5.946  25.359  0.00  0.00    +0.100 C 
BRANCH  14  20
ATOM     20  C   UNL     1      10.465   5.974  23.711  0.00  0.00    +0.086 C 
BRANCH  20  21
ATOM     21  C   UNL     1      11.966   5.897  24.023  0.00  0.00    +0.030 C 
BRANCH  21  22
ATOM     22  C   UNL     1      12.677   4.942  23.067  0.00  0.00    +0.079 C 
BRANCH  22  23
ATOM     23  N   UNL     1      14.114   5.192  23.093  0.00  0.00    -0.330 NA
ATOM     24  H   UNL     1      14.333   5.999  22.509  0.00  0.00    +0.118 HD
ATOM     25  H   UNL     1      14.403   5.433  24.039  0.00  0.00    +0.118 HD
ENDBRANCH  22  23
ENDBRANCH  21  22
ENDBRANCH  20  21
ENDBRANCH  14  20
ENDBRANCH  13  17
ENDBRANCH  12  13
ENDBRANCH  11  12
ENDBRANCH   7  11
ENDBRANCH   1   9
BRANCH   3  26
ATOM     26  N   UNL     1       9.713  -1.237  22.007  0.00  0.00    +0.080 N 
ATOM     27  O   UNL     1      10.759  -1.838  22.294  0.00  0.00    +0.041 OA
ATOM     28  O   UNL     1       9.627  -0.339  21.159  0.00  0.00    -0.576 OA
ENDBRANCH   3  26
BRANCH   5  29
ATOM     29  O   UNL     1       6.783  -4.683  23.670  0.00  0.00    -0.461 OA
BRANCH  29  30
ATOM     30  C   UNL     1       5.622  -5.075  24.421  0.00  0.00    +0.339 C 
ATOM     31  C   UNL     1       4.986  -6.272  23.683  0.00  0.00    +0.214 C 
ATOM     32  C   UNL     1       3.825  -6.831  24.517  0.00  0.00    +0.180 C 
ATOM     33  C   UNL     1       4.268  -7.126  25.953  0.00  0.00    +0.177 C 
ATOM     34  C   UNL     1       4.897  -5.868  26.560  0.00  0.00    +0.179 C 
ATOM     35  O   UNL     1       6.001  -5.422  25.757  0.00  0.00    -0.331 OA
BRANCH  33  36
ATOM     36  O   UNL     1       3.135  -7.595  26.693  0.00  0.00    -0.386 OA
ATOM     37  H   UNL     1       2.833  -8.443  26.320  0.00  0.00    +0.210 HD
ENDBRANCH  33  36
BRANCH  32  38
ATOM     38  O   UNL     1       3.302  -8.018  23.911  0.00  0.00    -0.386 OA
ATOM     39  H   UNL     1       2.550  -7.735  23.349  0.00  0.00    +0.210 HD
ENDBRANCH  32  38
BRANCH  31  40
ATOM     40  O   UNL     1       4.536  -5.845  22.384  0.00  0.00    -0.383 OA
ATOM     41  H   UNL     1       5.036  -6.330  21.705  0.00  0.00    +0.210 HD
ENDBRANCH  31  40
BRANCH  34  42
ATOM     42  C   UNL     1       5.423  -6.138  27.974  0.00  0.00    +0.190 C 
BRANCH  42  43
ATOM     43  O   UNL     1       5.389  -7.539  28.238  0.00  0.00    -0.392 OA
ATOM     44  H   UNL     1       5.782  -7.663  29.124  0.00  0.00    +0.210 HD
ENDBRANCH  42  43
ENDBRANCH  34  42
ENDBRANCH  29  30
ENDBRANCH   5  29
TORSDOF 17
ENDMDL
MODEL 2
REMARK VINA RESULT:      -7.2      1.361      2.517
REMARK  Name = 
REMARK  17 active torsions:
REMARK  status: ('A' for Active; 'I' for Inactive)
REMARK    1  A    between atoms: N_1  and  C_2
REMARK    2  A    between atoms: C_2  and  C_3
REMARK    3  A    between atoms: C_3  and  C_4
REMARK    4  A    between atoms: C_4  and  N_5
REMARK    5  A    between atoms: N_8  and  C_9
REMARK    6  A    between atoms: C_9  and  C_10
REMARK    7  A    between atoms: C_10  and  C_11
REMARK    8  A    between atoms: C_11  and  N_12
REMARK    9  A    between atoms: C_13  and  C_15
REMARK   10  A    between atoms: C_17  and  O_18
REMARK   11  A    between atoms: O_18  and  C_19
REMARK   12  A    between atoms: C_22  and  C_24
REMARK   13  A    between atoms: C_24  and  O_25
REMARK   14  A    between atoms: C_26  and  O_28
REMARK   15  A    between atoms: C_29  and  O_31
REMARK   16  A    between atoms: C_32  and  O_34
REMARK   17  A    between atoms: C_36  and  N_38
REMARK                            x       y       z     vdW  Elec       q    Type
REMARK                         _______ _______ _______ _____ _____    ______ ____
ROOT
ATOM      1  C   UNL     1       6.957  -0.113  23.332  0.00  0.00    +0.047 A 
ATOM      2  C   UNL     1       8.227  -0.623  23.053  0.00  0.00    +0.097 A 
ATOM      3  C   UNL     1       8.604  -1.848  23.624  0.00  0.00    +0.277 A 
ATOM      4  C   UNL     1       7.720  -2.560  24.447  0.00  0.00    +0.130 A 
ATOM      5  C   UNL     1       6.448  -2.047  24.703  0.00  0.00    +0.131 A 
ATOM      6  C   UNL     1       6.079  -0.816  24.166  0.00  0.00    +0.059 A 
ENDROOT
BRANCH   1   9
ATOM      7  N   UNL     1       5.438   1.776  23.462  0.00  0.00    -0.311 N 
ATOM      8  H   UNL     1       5.058   1.367  24.310  0.00  0.00    +0.149 HD
ATOM      9  C   UNL     1       6.503   1.201  22.821  0.00  0.00    +0.244 C 
ATOM     10  O   UNL     1       7.111   1.721  21.887  0.00  0.00    -0.270 OA
BRANCH   7  11
ATOM     11  C   UNL     1       4.928   3.073  23.073  0.00  0.00    +0.106 C 
BRANCH  11  12
ATOM     12  C   UNL     1       4.807   4.012  24.271  0.00  0.00    +0.034 C 
BRANCH  12  13
ATOM     13  C   UNL     1       6.058   4.869  24.498  0.00  0.00    +0.086 C 
BRANCH  13  17
ATOM     14  N   UNL     1       9.468   6.407  24.268  0.00  0.00    -0.300 NA
ATOM     15  C   UNL     1       9.118   5.215  25.077  0.00  0.00    +0.100 C 
ATOM     16  C   UNL     1       8.360   4.103  24.305  0.00  0.00    +0.100 C 
ATOM     17  N   UNL     1       7.162   4.569  23.568  0.00  0.00    -0.300 NA
ATOM     18  C   UNL     1       7.549   5.741  22.749  0.00  0.00    +0.100 C 
ATOM     19  C   UNL     1       8.255   6.858  23.550  0.00  0.00    +0.100 C 
BRANCH  14  20
ATOM     20  C   UNL     1      10.593   6.111  23.362  0.00  0.00    +0.086 C 
BRANCH  20  21
ATOM     21  C   UNL     1      11.906   5.827  24.106  0.00  0.00    +0.030 C 
BRANCH  21  22
ATOM     22  C   UNL     1      12.706   4.730  23.407  0.00  0.00    +0.079 C 
BRANCH  22  23
ATOM     23  N   UNL     1      14.041   5.219  23.082  0.00  0.00    -0.330 NA
ATOM     24  H   UNL     1      14.097   5.426  22.085  0.00  0.00    +0.118 HD
ATOM     25  H   UNL     1      14.213   6.096  23.569  0.00  0.00    +0.118 HD
ENDBRANCH  22  23
ENDBRANCH  21  22
ENDBRANCH  20  21
ENDBRANCH  14  20
ENDBRANCH  13  17
ENDBRANCH  12  13
ENDBRANCH  11  12
ENDBRANCH   7  11
ENDBRANCH   1   9
BRANCH   3  26
ATOM     26  N   UNL     1       9.946  -2.385  23.367  0.00  0.00    +0.080 N 
ATOM     27  O   UNL     1      10.618  -1.840  22.478  0.00  0.00    +0.041 OA
ATOM     28  O   UNL     1      10.326  -3.348  24.046  0.00  0.00    -0.576 OA
ENDBRANCH   3  26
BRANCH   5  29
ATOM     29  O   UNL     1       5.659  -2.796  25.529  0.00  0.00    -0.461 OA
BRANCH  29  30
ATOM     30  C   UNL     1       5.500  -4.180  25.177  0.00  0.00    +0.339 C 
ATOM     31  C   UNL     1       5.553  -4.992  26.489  0.00  0.00    +0.214 C 
ATOM     32  C   UNL     1       5.240  -6.466  26.194  0.00  0.00    +0.180 C 
ATOM     33  C   UNL     1       3.934  -6.606  25.406  0.00  0.00    +0.177 C 
ATOM     34  C   UNL     1       4.004  -5.739  24.145  0.00  0.00    +0.179 C 
ATOM     35  O   UNL     1       4.257  -4.369  24.492  0.00  0.00    -0.331 OA
BRANCH  33  36
ATOM     36  O   UNL     1       3.722  -7.993  25.118  0.00  0.00    -0.386 OA
ATOM     37  H   UNL     1       3.185  -8.393  25.826  0.00  0.00    +0.210 HD
ENDBRANCH  33  36
BRANCH  32  38
ATOM     38  O   UNL     1       5.161  -7.212  27.413  0.00  0.00    -0.386 OA
ATOM     39  H   UNL     1       4.683  -6.647  28.054  0.00  0.00    +0.210 HD
ENDBRANCH  32  38
BRANCH  31  40
ATOM     40  O   UNL     1       6.854  -4.846  27.086  0.00  0.00    -0.383 OA
ATOM     41  H   UNL     1       6.903  -3.976  27.519  0.00  0.00    +0.210 HD
ENDBRANCH  31  40
BRANCH  34  42
ATOM     42  C   UNL     1       2.688  -5.792  23.362  0.00  0.00    +0.190 C 
BRANCH  42  43
ATOM     43  O   UNL     1       2.598  -7.030  22.660  0.00  0.00    -0.392 OA
ATOM     44  H   UNL     1       2.293  -7.694  23.309  0.00  0.00    +0.210 HD
ENDBRANCH  42  43
ENDBRANCH  34  42
ENDBRANCH  29  30
ENDBRANCH   5  29
TORSDOF 17
ENDMDL
MODEL 3
REMARK VINA RESULT:      -7.0      4.816      9.664
REMARK  Name = 
REMARK  17 active torsions:
REMARK  status: ('A' for Active; 'I' for Inactive)
REMARK    1  A    between atoms: N_1  and  C_2
REMARK    2  A    between atoms: C_2  and  C_3
REMARK    3  A    between atoms: C_3  and  C_4
REMARK    4  A    between atoms: C_4  and  N_5
REMARK    5  A    between atoms: N_8  and  C_9
REMARK    6  A    between atoms: C_9  and  C_10
REMARK    7  A    between atoms: C_10  and  C_11
REMARK    8  A    between atoms: C_11  and  N_12
REMARK    9  A    between atoms: C_13  and  C_15
REMARK   10  A    between atoms: C_17  and  O_18
REMARK   11  A    between atoms: O_18  and  C_19
REMARK   12  A    between atoms: C_22  and  C_24
REMARK   13  A    between atoms: C_24  and  O_25
REMARK   14  A    between atoms: C_26  and  O_28
REMARK   15  A    between atoms: C_29  and  O_31
REMARK   16  A    between atoms: C_32  and  O_34
REMARK   17  A    between atoms: C_36  and  N_38
REMARK                            x       y       z     vdW  Elec       q    Type
REMARK                         _______ _______ _______ _____ _____    ______ ____
ROOT
ATOM      1  C   UNL     1       6.972  -5.198  25.557  0.00  0.00    +0.047 A 
ATOM      2  C   UNL     1       6.092  -5.427  24.497  0.00  0.00    +0.097 A 
ATOM      3  C   UNL     1       6.406  -4.904  23.233  0.00  0.00    +0.277 A 
ATOM      4  C   UNL     1       7.588  -4.179  23.028  0.00  0.00    +0.130 A 
ATOM      5  C   UNL     1       8.466  -3.973  24.093  0.00  0.00    +0.131 A 
ATOM      6  C   UNL     1       8.145  -4.461  25.357  0.00  0.00    +0.059 A 
ENDROOT
BRANCH   1   9
ATOM      7  N   UNL     1       5.557  -6.414  27.109  0.00  0.00    -0.311 N 
ATOM      8  H   UNL     1       5.010  -6.725  26.312  0.00  0.00    +0.149 HD
ATOM      9  C   UNL     1       6.687  -5.662  26.934  0.00  0.00    +0.244 C 
ATOM     10  O   UNL     1       7.479  -5.386  27.834  0.00  0.00    -0.270 OA
BRANCH   7  11
ATOM     11  C   UNL     1       5.193  -6.951  28.403  0.00  0.00    +0.106 C 
BRANCH  11  12
ATOM     12  C   UNL     1       3.830  -6.437  28.861  0.00  0.00    +0.034 C 
BRANCH  12  13
ATOM     13  C   UNL     1       3.402  -5.144  28.156  0.00  0.00    +0.086 C 
BRANCH  13  17
ATOM     14  N   UNL     1       2.099  -5.452  24.655  0.00  0.00    -0.300 NA
ATOM     15  C   UNL     1       2.354  -6.584  25.578  0.00  0.00    +0.100 C 
ATOM     16  C   UNL     1       1.709  -6.439  26.981  0.00  0.00    +0.100 C 
ATOM     17  N   UNL     1       2.010  -5.163  27.671  0.00  0.00    -0.300 NA
ATOM     18  C   UNL     1       1.719  -4.051  26.736  0.00  0.00    +0.100 C 
ATOM     19  C   UNL     1       2.414  -4.191  25.363  0.00  0.00    +0.100 C 
BRANCH  14  20
ATOM     20  C   UNL     1       0.715  -5.493  24.149  0.00  0.00    +0.086 C 
BRANCH  20  21
ATOM     21  C   UNL     1       0.636  -5.686  22.628  0.00  0.00    +0.030 C 
BRANCH  21  22
ATOM     22  C   UNL     1       0.634  -7.168  22.262  0.00  0.00    +0.079 C 
BRANCH  22  23
ATOM     23  N   UNL     1       2.001  -7.675  22.239  0.00  0.00    -0.330 NA
ATOM     24  H   UNL     1       2.651  -6.904  22.088  0.00  0.00    +0.118 HD
ATOM     25  H   UNL     1       2.234  -8.076  23.146  0.00  0.00    +0.118 HD
ENDBRANCH  22  23
ENDBRANCH  21  22
ENDBRANCH  20  21
ENDBRANCH  14  20
ENDBRANCH  13  17
ENDBRANCH  12  13
ENDBRANCH  11  12
ENDBRANCH   7  11
ENDBRANCH   1   9
BRANCH   3  26
ATOM     26  N   UNL     1       5.478  -5.109  22.114  0.00  0.00    +0.080 N 
ATOM     27  O   UNL     1       4.446  -5.757  22.339  0.00  0.00    +0.041 OA
ATOM     28  O   UNL     1       5.781  -4.628  21.014  0.00  0.00    -0.576 OA
ENDBRANCH   3  26
BRANCH   5  29
ATOM     29  O   UNL     1       9.583  -3.240  23.810  0.00  0.00    -0.461 OA
BRANCH  29  30
ATOM     30  C   UNL     1       9.432  -1.811  23.834  0.00  0.00    +0.339 C 
ATOM     31  C   UNL     1       9.493  -1.322  22.371  0.00  0.00    +0.214 C 
ATOM     32  C   UNL     1       9.188   0.181  22.319  0.00  0.00    +0.180 C 
ATOM     33  C   UNL     1       7.881   0.506  23.048  0.00  0.00    +0.177 C 
ATOM     34  C   UNL     1       7.943  -0.049  24.475  0.00  0.00    +0.179 C 
ATOM     35  O   UNL     1       8.188  -1.464  24.453  0.00  0.00    -0.331 OA
BRANCH  33  36
ATOM     36  O   UNL     1       7.677   1.923  23.009  0.00  0.00    -0.386 OA
ATOM     37  H   UNL     1       8.234   2.312  22.311  0.00  0.00    +0.210 HD
ENDBRANCH  33  36
BRANCH  32  38
ATOM     38  O   UNL     1       9.117   0.628  20.960  0.00  0.00    -0.386 OA
ATOM     39  H   UNL     1       9.416   1.561  20.958  0.00  0.00    +0.210 HD
ENDBRANCH  32  38
BRANCH  31  40
ATOM     40  O   UNL     1      10.794  -1.610  21.827  0.00  0.00    -0.383 OA
ATOM     41  H   UNL     1      10.692  -2.220  21.078  0.00  0.00    +0.210 HD
ENDBRANCH  31  40
BRANCH  34  42
ATOM     42  C   UNL     1       6.626   0.190  25.220  0.00  0.00    +0.190 C 
BRANCH  42  43
ATOM     43  O   UNL     1       5.555   0.276  24.283  0.00  0.00    -0.392 OA
ATOM     44  H   UNL     1       5.436   1.225  24.086  0.00  0.00    +0.210 HD
ENDBRANCH  42  43
ENDBRANCH  34  42
ENDBRANCH  29  30
ENDBRANCH   5  29
TORSDOF 17
ENDMDL
MODEL 4
REMARK VINA RESULT:      -6.9      2.707      5.258
REMARK  Name = 
REMARK  17 active torsions:
REMARK  status: ('A' for Active; 'I' for Inactive)
REMARK    1  A    between atoms: N_1  and  C_2
REMARK    2  A    between atoms: C_2  and  C_3
REMARK    3  A    between atoms: C_3  and  C_4
REMARK    4  A    between atoms: C_4  and  N_5
REMARK    5  A    between atoms: N_8  and  C_9
REMARK    6  A    between atoms: C_9  and  C_10
REMARK    7  A    between atoms: C_10  and  C_11
REMARK    8  A    between atoms: C_11  and  N_12
REMARK    9  A    between atoms: C_13  and  C_15
REMARK   10  A    between atoms: C_17  and  O_18
REMARK   11  A    between atoms: O_18  and  C_19
REMARK   12  A    between atoms: C_22  and  C_24
REMARK   13  A    between atoms: C_24  and  O_25
REMARK   14  A    between atoms: C_26  and  O_28
REMARK   15  A    between atoms: C_29  and  O_31
REMARK   16  A    between atoms: C_32  and  O_34
REMARK   17  A    between atoms: C_36  and  N_38
REMARK                            x       y       z     vdW  Elec       q    Type
REMARK                         _______ _______ _______ _____ _____    ______ ____
ROOT
ATOM      1  C   UNL     1       8.684  -2.451  23.683  0.00  0.00    +0.047 A 
ATOM      2  C   UNL     1       8.145  -3.268  22.686  0.00  0.00    +0.097 A 
ATOM      3  C   UNL     1       7.131  -4.175  23.031  0.00  0.00    +0.277 A 
ATOM      4  C   UNL     1       6.653  -4.253  24.347  0.00  0.00    +0.130 A 
ATOM      5  C   UNL     1       7.190  -3.418  25.328  0.00  0.00    +0.131 A 
ATOM      6  C   UNL     1       8.218  -2.539  24.999  0.00  0.00    +0.059 A 
ENDROOT
BRANCH   1   9
ATOM      7  N   UNL     1       9.960  -0.482  24.306  0.00  0.00    -0.311 N 
ATOM      8  H   UNL     1       9.410  -0.439  25.158  0.00  0.00    +0.149 HD
ATOM      9  C   UNL     1       9.797  -1.511  23.417  0.00  0.00    +0.244 C 
ATOM     10  O   UNL     1      10.532  -1.712  22.451  0.00  0.00    -0.270 OA
BRANCH   7  11
ATOM     11  C   UNL     1      11.033   0.478  24.168  0.00  0.00    +0.106 C 
BRANCH  11  12
ATOM     12  C   UNL     1      10.497   1.892  23.950  0.00  0.00    +0.034 C 
BRANCH  12  13
ATOM     13  C   UNL     1       9.305   1.946  22.988  0.00  0.00    +0.086 C 
BRANCH  13  17
ATOM     14  N   UNL     1       6.454   0.815  25.143  0.00  0.00    -0.300 NA
ATOM     15  C   UNL     1       7.734   1.378  25.639  0.00  0.00    +0.100 C 
ATOM     16  C   UNL     1       8.151   2.721  24.985  0.00  0.00    +0.100 C 
ATOM     17  N   UNL     1       8.156   2.713  23.504  0.00  0.00    -0.300 NA
ATOM     18  C   UNL     1       6.858   2.174  23.039  0.00  0.00    +0.100 C 
ATOM     19  C   UNL     1       6.488   0.810  23.663  0.00  0.00    +0.100 C 
BRANCH  14  20
ATOM     20  C   UNL     1       5.309   1.567  25.687  0.00  0.00    +0.086 C 
BRANCH  20  21
ATOM     21  C   UNL     1       4.412   0.720  26.601  0.00  0.00    +0.030 C 
BRANCH  21  22
ATOM     22  C   UNL     1       4.964  -0.696  26.752  0.00  0.00    +0.079 C 
BRANCH  22  23
ATOM     23  N   UNL     1       4.112  -1.640  26.040  0.00  0.00    -0.330 NA
ATOM     24  H   UNL     1       3.328  -1.145  25.618  0.00  0.00    +0.118 HD
ATOM     25  H   UNL     1       4.633  -2.063  25.274  0.00  0.00    +0.118 HD
ENDBRANCH  22  23
ENDBRANCH  21  22
ENDBRANCH  20  21
ENDBRANCH  14  20
ENDBRANCH  13  17
ENDBRANCH  12  13
ENDBRANCH  11  12
ENDBRANCH   7  11
ENDBRANCH   1   9
BRANCH   3  26
ATOM     26  N   UNL     1       6.573  -5.063  22.004  0.00  0.00    +0.080 N 
ATOM     27  O   UNL     1       5.373  -4.927  21.722  0.00  0.00    +0.041 OA
ATOM     28  O   UNL     1       7.328  -5.895  21.484  0.00  0.00    -0.576 OA
ENDBRANCH   3  26
BRANCH   5  29
ATOM     29  O   UNL     1       6.679  -3.573  26.585  0.00  0.00    -0.461 OA
BRANCH  29  30
ATOM     30  C   UNL     1       5.931  -4.777  26.826  0.00  0.00    +0.339 C 
ATOM     31  C   UNL     1       6.670  -5.557  27.935  0.00  0.00    +0.214 C 
ATOM     32  C   UNL     1       5.839  -6.782  28.342  0.00  0.00    +0.180 C 
ATOM     33  C   UNL     1       4.401  -6.384  28.688  0.00  0.00    +0.177 C 
ATOM     34  C   UNL     1       3.793  -5.603  27.518  0.00  0.00    +0.179 C 
ATOM     35  O   UNL     1       4.593  -4.449  27.216  0.00  0.00    -0.331 OA
BRANCH  33  36
ATOM     36  O   UNL     1       3.664  -7.569  29.009  0.00  0.00    -0.386 OA
ATOM     37  H   UNL     1       3.626  -7.676  29.977  0.00  0.00    +0.210 HD
ENDBRANCH  33  36
BRANCH  32  38
ATOM     38  O   UNL     1       6.446  -7.448  29.454  0.00  0.00    -0.386 OA
ATOM     39  H   UNL     1       7.165  -6.863  29.770  0.00  0.00    +0.210 HD
ENDBRANCH  32  38
BRANCH  31  40
ATOM     40  O   UNL     1       7.971  -5.945  27.457  0.00  0.00    -0.383 OA
ATOM     41  H   UNL     1       8.452  -5.148  27.178  0.00  0.00    +0.210 HD
ENDBRANCH  31  40
BRANCH  34  42
ATOM     42  C   UNL     1       2.377  -5.120  27.850  0.00  0.00    +0.190 C 
BRANCH  42  43
ATOM     43  O   UNL     1       2.035  -4.024  27.005  0.00  0.00    -0.392 OA
ATOM     44  H   UNL     1       1.205  -3.650  27.361  0.00  0.00    +0.210 HD
ENDBRANCH  42  43
ENDBRANCH  34  42
ENDBRANCH  29  30
ENDBRANCH   5  29
TORSDOF 17
ENDMDL
MODEL 5
REMARK VINA RESULT:      -6.8      1.984      3.097
REMARK  Name = 
REMARK  17 active torsions:
REMARK  status: ('A' for Active; 'I' for Inactive)
REMARK    1  A    between atoms: N_1  and  C_2
REMARK    2  A    between atoms: C_2  and  C_3
REMARK    3  A    between atoms: C_3  and  C_4
REMARK    4  A    between atoms: C_4  and  N_5
REMARK    5  A    between atoms: N_8  and  C_9
REMARK    6  A    between atoms: C_9  and  C_10
REMARK    7  A    between atoms: C_10  and  C_11
REMARK    8  A    between atoms: C_11  and  N_12
REMARK    9  A    between atoms: C_13  and  C_15
REMARK   10  A    between atoms: C_17  and  O_18
REMARK   11  A    between atoms: O_18  and  C_19
REMARK   12  A    between atoms: C_22  and  C_24
REMARK   13  A    between atoms: C_24  and  O_25
REMARK   14  A    between atoms: C_26  and  O_28
REMARK   15  A    between atoms: C_29  and  O_31
REMARK   16  A    between atoms: C_32  and  O_34
REMARK   17  A    between atoms: C_36  and  N_38
REMARK                            x       y       z     vdW  Elec       q    Type
REMARK                         _______ _______ _______ _____ _____    ______ ____
ROOT
ATOM      1  C   UNL     1       8.239  -0.241  25.200  0.00  0.00    +0.047 A 
ATOM      2  C   UNL     1       8.486   0.473  24.025  0.00  0.00    +0.097 A 
ATOM      3  C   UNL     1       9.216  -0.146  23.000  0.00  0.00    +0.277 A 
ATOM      4  C   UNL     1       9.678  -1.462  23.138  0.00  0.00    +0.130 A 
ATOM      5  C   UNL     1       9.408  -2.169  24.311  0.00  0.00    +0.131 A 
ATOM      6  C   UNL     1       8.712  -1.549  25.346  0.00  0.00    +0.059 A 
ENDROOT
BRANCH   1   9
ATOM      7  N   UNL     1       6.651   1.372  26.079  0.00  0.00    -0.311 N 
ATOM      8  H   UNL     1       6.424   1.617  25.120  0.00  0.00    +0.149 HD
ATOM      9  C   UNL     1       7.530   0.358  26.354  0.00  0.00    +0.244 C 
ATOM     10  O   UNL     1       7.730  -0.095  27.480  0.00  0.00    -0.270 OA
BRANCH   7  11
ATOM     11  C   UNL     1       5.877   2.011  27.121  0.00  0.00    +0.106 C 
BRANCH  11  12
ATOM     12  C   UNL     1       5.175   3.266  26.609  0.00  0.00    +0.034 C 
BRANCH  12  13
ATOM     13  C   UNL     1       5.386   3.510  25.110  0.00  0.00    +0.086 C 
BRANCH  13  17
ATOM     14  N   UNL     1       8.770   4.412  23.775  0.00  0.00    -0.300 NA
ATOM     15  C   UNL     1       7.569   4.136  22.951  0.00  0.00    +0.100 C 
ATOM     16  C   UNL     1       6.302   4.931  23.359  0.00  0.00    +0.100 C 
ATOM     17  N   UNL     1       5.948   4.836  24.795  0.00  0.00    -0.300 NA
ATOM     18  C   UNL     1       7.158   5.144  25.591  0.00  0.00    +0.100 C 
ATOM     19  C   UNL     1       8.394   4.302  25.202  0.00  0.00    +0.100 C 
BRANCH  14  20
ATOM     20  C   UNL     1       9.346   5.725  23.434  0.00  0.00    +0.086 C 
BRANCH  20  21
ATOM     21  C   UNL     1      10.665   6.013  24.165  0.00  0.00    +0.030 C 
BRANCH  21  22
ATOM     22  C   UNL     1      11.860   5.502  23.362  0.00  0.00    +0.079 C 
BRANCH  22  23
ATOM     23  N   UNL     1      11.647   4.110  22.984  0.00  0.00    -0.330 NA
ATOM     24  H   UNL     1      10.811   3.753  23.447  0.00  0.00    +0.118 HD
ATOM     25  H   UNL     1      11.470   4.050  21.983  0.00  0.00    +0.118 HD
ENDBRANCH  22  23
ENDBRANCH  21  22
ENDBRANCH  20  21
ENDBRANCH  14  20
ENDBRANCH  13  17
ENDBRANCH  12  13
ENDBRANCH  11  12
ENDBRANCH   7  11
ENDBRANCH   1   9
BRANCH   3  26
ATOM     26  N   UNL     1       9.512   0.600  21.770  0.00  0.00    +0.080 N 
ATOM     27  O   UNL     1       9.068   0.144  20.705  0.00  0.00    +0.041 OA
ATOM     28  O   UNL     1      10.187   1.633  21.865  0.00  0.00    -0.576 OA
ENDBRANCH   3  26
BRANCH   5  29
ATOM     29  O   UNL     1       9.911  -3.437  24.370  0.00  0.00    -0.461 OA
BRANCH  29  30
ATOM     30  C   UNL     1       8.956  -4.494  24.566  0.00  0.00    +0.339 C 
ATOM     31  C   UNL     1       8.633  -4.540  26.075  0.00  0.00    +0.214 C 
ATOM     32  C   UNL     1       7.506  -5.551  26.328  0.00  0.00    +0.180 C 
ATOM     33  C   UNL     1       6.302  -5.274  25.424  0.00  0.00    +0.177 C 
ATOM     34  C   UNL     1       6.761  -5.235  23.963  0.00  0.00    +0.179 C 
ATOM     35  O   UNL     1       7.783  -4.241  23.785  0.00  0.00    -0.331 OA
BRANCH  33  36
ATOM     36  O   UNL     1       5.308  -6.276  25.669  0.00  0.00    -0.386 OA
ATOM     37  H   UNL     1       5.703  -7.009  26.175  0.00  0.00    +0.210 HD
ENDBRANCH  33  36
BRANCH  32  38
ATOM     38  O   UNL     1       7.107  -5.518  27.703  0.00  0.00    -0.386 OA
ATOM     39  H   UNL     1       6.309  -4.952  27.747  0.00  0.00    +0.210 HD
ENDBRANCH  32  38
BRANCH  31  40
ATOM     40  O   UNL     1       9.823  -4.892  26.805  0.00  0.00    -0.383 OA
ATOM     41  H   UNL     1      10.595  -4.528  26.339  0.00  0.00    +0.210 HD
ENDBRANCH  31  40
BRANCH  34  42
ATOM     42  C   UNL     1       5.599  -4.887  23.027  0.00  0.00    +0.190 C 
BRANCH  42  43
ATOM     43  O   UNL     1       4.944  -6.084  22.612  0.00  0.00    -0.392 OA
ATOM     44  H   UNL     1       5.470  -6.444  21.872  0.00  0.00    +0.210 HD
ENDBRANCH  42  43
ENDBRANCH  34  42
ENDBRANCH  29  30
ENDBRANCH   5  29
TORSDOF 17
ENDMDL
MODEL 6
REMARK VINA RESULT:      -6.7      4.457      9.270
REMARK  Name = 
REMARK  17 active torsions:
REMARK  status: ('A' for Active; 'I' for Inactive)
REMARK    1  A    between atoms: N_1  and  C_2
REMARK    2  A    between atoms: C_2  and  C_3
REMARK    3  A    between atoms: C_3  and  C_4
REMARK    4  A    between atoms: C_4  and  N_5
REMARK    5  A    between atoms: N_8  and  C_9
REMARK    6  A    between atoms: C_9  and  C_10
REMARK    7  A    between atoms: C_10  and  C_11
REMARK    8  A    between atoms: C_11  and  N_12
REMARK    9  A    between atoms: C_13  and  C_15
REMARK   10  A    between atoms: C_17  and  O_18
REMARK   11  A    between atoms: O_18  and  C_19
REMARK   12  A    between atoms: C_22  and  C_24
REMARK   13  A    between atoms: C_24  and  O_25
REMARK   14  A    between atoms: C_26  and  O_28
REMARK   15  A    between atoms: C_29  and  O_31
REMARK   16  A    between atoms: C_32  and  O_34
REMARK   17  A    between atoms: C_36  and  N_38
REMARK                            x       y       z     vdW  Elec       q    Type
REMARK                         _______ _______ _______ _____ _____    ______ ____
ROOT
ATOM      1  C   UNL     1       5.307  -2.293  26.741  0.00  0.00    +0.047 A 
ATOM      2  C   UNL     1       5.989  -3.506  26.860  0.00  0.00    +0.097 A 
ATOM      3  C   UNL     1       7.391  -3.503  26.790  0.00  0.00    +0.277 A 
ATOM      4  C   UNL     1       8.100  -2.305  26.621  0.00  0.00    +0.130 A 
ATOM      5  C   UNL     1       7.406  -1.099  26.521  0.00  0.00    +0.131 A 
ATOM      6  C   UNL     1       6.013  -1.099  26.557  0.00  0.00    +0.059 A 
ENDROOT
BRANCH   1   9
ATOM      7  N   UNL     1       3.153  -3.336  27.144  0.00  0.00    -0.311 N 
ATOM      8  H   UNL     1       3.651  -4.135  27.524  0.00  0.00    +0.149 HD
ATOM      9  C   UNL     1       3.828  -2.214  26.742  0.00  0.00    +0.244 C 
ATOM     10  O   UNL     1       3.285  -1.158  26.423  0.00  0.00    -0.270 OA
BRANCH   7  11
ATOM     11  C   UNL     1       1.709  -3.367  27.218  0.00  0.00    +0.106 C 
BRANCH  11  12
ATOM     12  C   UNL     1       1.135  -4.579  26.487  0.00  0.00    +0.034 C 
BRANCH  12  13
ATOM     13  C   UNL     1       2.157  -5.704  26.283  0.00  0.00    +0.086 C 
BRANCH  13  17
ATOM     14  N   UNL     1       4.919  -5.374  23.771  0.00  0.00    -0.300 NA
ATOM     15  C   UNL     1       4.760  -6.496  24.728  0.00  0.00    +0.100 C 
ATOM     16  C   UNL     1       3.354  -7.151  24.735  0.00  0.00    +0.100 C 
ATOM     17  N   UNL     1       2.229  -6.200  24.897  0.00  0.00    -0.300 NA
ATOM     18  C   UNL     1       2.400  -5.108  23.911  0.00  0.00    +0.100 C 
ATOM     19  C   UNL     1       3.791  -4.435  23.958  0.00  0.00    +0.100 C 
BRANCH  14  20
ATOM     20  C   UNL     1       5.022  -5.878  22.389  0.00  0.00    +0.086 C 
BRANCH  20  21
ATOM     21  C   UNL     1       6.456  -6.255  21.991  0.00  0.00    +0.030 C 
BRANCH  21  22
ATOM     22  C   UNL     1       7.389  -5.051  22.096  0.00  0.00    +0.079 C 
BRANCH  22  23
ATOM     23  N   UNL     1       7.904  -4.939  23.455  0.00  0.00    -0.330 NA
ATOM     24  H   UNL     1       7.263  -4.384  24.021  0.00  0.00    +0.118 HD
ATOM     25  H   UNL     1       7.943  -5.862  23.885  0.00  0.00    +0.118 HD
ENDBRANCH  22  23
ENDBRANCH  21  22
ENDBRANCH  20  21
ENDBRANCH  14  20
ENDBRANCH  13  17
ENDBRANCH  12  13
ENDBRANCH  11  12
ENDBRANCH   7  11
ENDBRANCH   1   9
BRANCH   3  26
ATOM     26  N   UNL     1       8.123  -4.772  26.883  0.00  0.00    +0.080 N 
ATOM     27  O   UNL     1       7.607  -5.682  27.548  0.00  0.00    +0.041 OA
ATOM     28  O   UNL     1       9.211  -4.858  26.298  0.00  0.00    -0.576 OA
ENDBRANCH   3  26
BRANCH   5  29
ATOM     29  O   UNL     1       8.173   0.016  26.339  0.00  0.00    -0.461 OA
BRANCH  29  30
ATOM     30  C   UNL     1       8.211   0.554  25.007  0.00  0.00    +0.339 C 
ATOM     31  C   UNL     1       8.840   1.961  25.103  0.00  0.00    +0.214 C 
ATOM     32  C   UNL     1       9.045   2.529  23.691  0.00  0.00    +0.180 C 
ATOM     33  C   UNL     1       9.813   1.544  22.805  0.00  0.00    +0.177 C 
ATOM     34  C   UNL     1       9.098   0.188  22.813  0.00  0.00    +0.179 C 
ATOM     35  O   UNL     1       8.976  -0.307  24.156  0.00  0.00    -0.331 OA
BRANCH  33  36
ATOM     36  O   UNL     1       9.928   2.105  21.493  0.00  0.00    -0.386 OA
ATOM     37  H   UNL     1      10.860   2.080  21.210  0.00  0.00    +0.210 HD
ENDBRANCH  33  36
BRANCH  32  38
ATOM     38  O   UNL     1       9.741   3.779  23.754  0.00  0.00    -0.386 OA
ATOM     39  H   UNL     1       9.357   4.345  23.053  0.00  0.00    +0.210 HD
ENDBRANCH  32  38
BRANCH  31  40
ATOM     40  O   UNL     1       7.985   2.812  25.888  0.00  0.00    -0.383 OA
ATOM     41  H   UNL     1       8.525   3.267  26.556  0.00  0.00    +0.210 HD
ENDBRANCH  31  40
BRANCH  34  42
ATOM     42  C   UNL     1       9.872  -0.851  21.996  0.00  0.00    +0.190 C 
BRANCH  42  43
ATOM     43  O   UNL     1       9.456  -0.797  20.634  0.00  0.00    -0.392 OA
ATOM     44  H   UNL     1       8.479  -0.768  20.645  0.00  0.00    +0.210 HD
ENDBRANCH  42  43
ENDBRANCH  34  42
ENDBRANCH  29  30
ENDBRANCH   5  29
TORSDOF 17
ENDMDL
MODEL 7
REMARK VINA RESULT:      -6.6      2.652      4.898
REMARK  Name = 
REMARK  17 active torsions:
REMARK  status: ('A' for Active; 'I' for Inactive)
REMARK    1  A    between atoms: N_1  and  C_2
REMARK    2  A    between atoms: C_2  and  C_3
REMARK    3  A    between atoms: C_3  and  C_4
REMARK    4  A    between atoms: C_4  and  N_5
REMARK    5  A    between atoms: N_8  and  C_9
REMARK    6  A    between atoms: C_9  and  C_10
REMARK    7  A    between atoms: C_10  and  C_11
REMARK    8  A    between atoms: C_11  and  N_12
REMARK    9  A    between atoms: C_13  and  C_15
REMARK   10  A    between atoms: C_17  and  O_18
REMARK   11  A    between atoms: O_18  and  C_19
REMARK   12  A    between atoms: C_22  and  C_24
REMARK   13  A    between atoms: C_24  and  O_25
REMARK   14  A    between atoms: C_26  and  O_28
REMARK   15  A    between atoms: C_29  and  O_31
REMARK   16  A    between atoms: C_32  and  O_34
REMARK   17  A    between atoms: C_36  and  N_38
REMARK                            x       y       z     vdW  Elec       q    Type
REMARK                         _______ _______ _______ _____ _____    ______ ____
ROOT
ATOM      1  C   UNL     1       8.068  -2.848  23.178  0.00  0.00    +0.047 A 
ATOM      2  C   UNL     1       7.319  -3.627  22.293  0.00  0.00    +0.097 A 
ATOM      3  C   UNL     1       6.297  -4.439  22.807  0.00  0.00    +0.277 A 
ATOM      4  C   UNL     1       6.015  -4.459  24.180  0.00  0.00    +0.130 A 
ATOM      5  C   UNL     1       6.761  -3.661  25.050  0.00  0.00    +0.131 A 
ATOM      6  C   UNL     1       7.799  -2.879  24.551  0.00  0.00    +0.059 A 
ENDROOT
BRANCH   1   9
ATOM      7  N   UNL     1       8.891  -0.826  22.117  0.00  0.00    -0.311 N 
ATOM      8  H   UNL     1       7.931  -0.497  22.080  0.00  0.00    +0.149 HD
ATOM      9  C   UNL     1       9.204  -2.011  22.727  0.00  0.00    +0.244 C 
ATOM     10  O   UNL     1      10.352  -2.393  22.947  0.00  0.00    -0.270 OA
BRANCH   7  11
ATOM     11  C   UNL     1       9.916   0.090  21.665  0.00  0.00    +0.106 C 
BRANCH  11  12
ATOM     12  C   UNL     1       9.636   1.519  22.124  0.00  0.00    +0.034 C 
BRANCH  12  13
ATOM     13  C   UNL     1       9.399   1.634  23.634  0.00  0.00    +0.086 C 
BRANCH  13  17
ATOM     14  N   UNL     1       6.881   4.200  24.698  0.00  0.00    -0.300 NA
ATOM     15  C   UNL     1       7.101   3.740  23.305  0.00  0.00    +0.100 C 
ATOM     16  C   UNL     1       7.089   2.200  23.119  0.00  0.00    +0.100 C 
ATOM     17  N   UNL     1       7.990   1.459  24.032  0.00  0.00    -0.300 NA
ATOM     18  C   UNL     1       7.728   1.919  25.415  0.00  0.00    +0.100 C 
ATOM     19  C   UNL     1       7.798   3.453  25.587  0.00  0.00    +0.100 C 
BRANCH  14  20
ATOM     20  C   UNL     1       5.465   4.051  25.079  0.00  0.00    +0.086 C 
BRANCH  20  21
ATOM     21  C   UNL     1       4.514   4.868  24.192  0.00  0.00    +0.030 C 
BRANCH  21  22
ATOM     22  C   UNL     1       3.247   4.078  23.874  0.00  0.00    +0.079 C 
BRANCH  22  23
ATOM     23  N   UNL     1       3.581   2.682  23.622  0.00  0.00    -0.330 NA
ATOM     24  H   UNL     1       2.816   2.084  23.933  0.00  0.00    +0.118 HD
ATOM     25  H   UNL     1       3.679   2.528  22.620  0.00  0.00    +0.118 HD
ENDBRANCH  22  23
ENDBRANCH  21  22
ENDBRANCH  20  21
ENDBRANCH  14  20
ENDBRANCH  13  17
ENDBRANCH  12  13
ENDBRANCH  11  12
ENDBRANCH   7  11
ENDBRANCH   1   9
BRANCH   3  26
ATOM     26  N   UNL     1       5.519  -5.288  21.896  0.00  0.00    +0.080 N 
ATOM     27  O   UNL     1       5.970  -5.464  20.754  0.00  0.00    +0.041 OA
ATOM     28  O   UNL     1       4.460  -5.773  22.316  0.00  0.00    -0.576 OA
ENDBRANCH   3  26
BRANCH   5  29
ATOM     29  O   UNL     1       6.433  -3.757  26.372  0.00  0.00    -0.461 OA
BRANCH  29  30
ATOM     30  C   UNL     1       5.740  -4.951  26.773  0.00  0.00    +0.339 C 
ATOM     31  C   UNL     1       6.587  -5.620  27.877  0.00  0.00    +0.214 C 
ATOM     32  C   UNL     1       5.825  -6.822  28.451  0.00  0.00    +0.180 C 
ATOM     33  C   UNL     1       4.411  -6.425  28.884  0.00  0.00    +0.177 C 
ATOM     34  C   UNL     1       3.688  -5.757  27.709  0.00  0.00    +0.179 C 
ATOM     35  O   UNL     1       4.430  -4.617  27.247  0.00  0.00    -0.331 OA
BRANCH  33  36
ATOM     36  O   UNL     1       3.735  -7.593  29.362  0.00  0.00    -0.386 OA
ATOM     37  H   UNL     1       3.737  -8.276  28.668  0.00  0.00    +0.210 HD
ENDBRANCH  33  36
BRANCH  32  38
ATOM     38  O   UNL     1       6.539  -7.381  29.560  0.00  0.00    -0.386 OA
ATOM     39  H   UNL     1       7.354  -6.847  29.662  0.00  0.00    +0.210 HD
ENDBRANCH  32  38
BRANCH  31  40
ATOM     40  O   UNL     1       7.854  -6.021  27.324  0.00  0.00    -0.383 OA
ATOM     41  H   UNL     1       8.164  -5.328  26.717  0.00  0.00    +0.210 HD
ENDBRANCH  31  40
BRANCH  34  42
ATOM     42  C   UNL     1       2.292  -5.276  28.118  0.00  0.00    +0.190 C 
BRANCH  42  43
ATOM     43  O   UNL     1       1.378  -6.369  28.078  0.00  0.00    -0.392 OA
ATOM     44  H   UNL     1       1.036  -6.478  28.986  0.00  0.00    +0.210 HD
ENDBRANCH  42  43
ENDBRANCH  34  42
ENDBRANCH  29  30
ENDBRANCH   5  29
TORSDOF 17
ENDMDL
MODEL 8
REMARK VINA RESULT:      -6.5      2.469      3.819
REMARK  Name = 
REMARK  17 active torsions:
REMARK  status: ('A' for Active; 'I' for Inactive)
REMARK    1  A    between atoms: N_1  and  C_2
REMARK    2  A    between atoms: C_2  and  C_3
REMARK    3  A    between atoms: C_3  and  C_4
REMARK    4  A    between atoms: C_4  and  N_5
REMARK    5  A    between atoms: N_8  and  C_9
REMARK    6  A    between atoms: C_9  and  C_10
REMARK    7  A    between atoms: C_10  and  C_11
REMARK    8  A    between atoms: C_11  and  N_12
REMARK    9  A    between atoms: C_13  and  C_15
REMARK   10  A    between atoms: C_17  and  O_18
REMARK   11  A    between atoms: O_18  and  C_19
REMARK   12  A    between atoms: C_22  and  C_24
REMARK   13  A    between atoms: C_24  and  O_25
REMARK   14  A    between atoms: C_26  and  O_28
REMARK   15  A    between atoms: C_29  and  O_31
REMARK   16  A    between atoms: C_32  and  O_34
REMARK   17  A    between atoms: C_36  and  N_38
REMARK                            x       y       z     vdW  Elec       q    Type
REMARK                         _______ _______ _______ _____ _____    ______ ____
ROOT
ATOM      1  C   UNL     1       8.025  -0.954  26.201  0.00  0.00    +0.047 A 
ATOM      2  C   UNL     1       8.680  -0.218  25.210  0.00  0.00    +0.097 A 
ATOM      3  C   UNL     1       9.521  -0.894  24.313  0.00  0.00    +0.277 A 
ATOM      4  C   UNL     1       9.692  -2.283  24.393  0.00  0.00    +0.130 A 
ATOM      5  C   UNL     1       9.017  -3.006  25.378  0.00  0.00    +0.131 A 
ATOM      6  C   UNL     1       8.207  -2.338  26.292  0.00  0.00    +0.059 A 
ENDROOT
BRANCH   1   9
ATOM      7  N   UNL     1       7.712   0.743  27.908  0.00  0.00    -0.311 N 
ATOM      8  H   UNL     1       8.614   1.126  27.642  0.00  0.00    +0.149 HD
ATOM      9  C   UNL     1       7.169  -0.312  27.225  0.00  0.00    +0.244 C 
ATOM     10  O   UNL     1       6.021  -0.723  27.388  0.00  0.00    -0.270 OA
BRANCH   7  11
ATOM     11  C   UNL     1       6.960   1.469  28.908  0.00  0.00    +0.106 C 
BRANCH  11  12
ATOM     12  C   UNL     1       7.054   2.979  28.695  0.00  0.00    +0.034 C 
BRANCH  12  13
ATOM     13  C   UNL     1       6.480   3.438  27.349  0.00  0.00    +0.086 C 
BRANCH  13  17
ATOM     14  N   UNL     1       6.452   4.743  23.836  0.00  0.00    -0.300 NA
ATOM     15  C   UNL     1       7.323   5.240  24.928  0.00  0.00    +0.100 C 
ATOM     16  C   UNL     1       8.111   4.138  25.685  0.00  0.00    +0.100 C 
ATOM     17  N   UNL     1       7.281   3.018  26.185  0.00  0.00    -0.300 NA
ATOM     18  C   UNL     1       6.445   2.526  25.068  0.00  0.00    +0.100 C 
ATOM     19  C   UNL     1       5.628   3.632  24.363  0.00  0.00    +0.100 C 
BRANCH  14  20
ATOM     20  C   UNL     1       7.256   4.354  22.663  0.00  0.00    +0.086 C 
BRANCH  20  21
ATOM     21  C   UNL     1       6.657   3.173  21.887  0.00  0.00    +0.030 C 
BRANCH  21  22
ATOM     22  C   UNL     1       7.693   2.071  21.678  0.00  0.00    +0.079 C 
BRANCH  22  23
ATOM     23  N   UNL     1       9.037   2.618  21.825  0.00  0.00    -0.330 NA
ATOM     24  H   UNL     1       8.985   3.553  22.229  0.00  0.00    +0.118 HD
ATOM     25  H   UNL     1       9.569   2.049  22.481  0.00  0.00    +0.118 HD
ENDBRANCH  22  23
ENDBRANCH  21  22
ENDBRANCH  20  21
ENDBRANCH  14  20
ENDBRANCH  13  17
ENDBRANCH  12  13
ENDBRANCH  11  12
ENDBRANCH   7  11
ENDBRANCH   1   9
BRANCH   3  26
ATOM     26  N   UNL     1      10.241  -0.133  23.284  0.00  0.00    +0.080 N 
ATOM     27  O   UNL     1      10.118  -0.506  22.107  0.00  0.00    +0.041 OA
ATOM     28  O   UNL     1      10.931   0.828  23.648  0.00  0.00    -0.576 OA
ENDBRANCH   3  26
BRANCH   5  29
ATOM     29  O   UNL     1       9.255  -4.351  25.395  0.00  0.00    -0.461 OA
BRANCH  29  30
ATOM     30  C   UNL     1       8.179  -5.196  24.956  0.00  0.00    +0.339 C 
ATOM     31  C   UNL     1       7.173  -5.296  26.123  0.00  0.00    +0.214 C 
ATOM     32  C   UNL     1       5.927  -6.065  25.662  0.00  0.00    +0.180 C 
ATOM     33  C   UNL     1       5.355  -5.469  24.373  0.00  0.00    +0.177 C 
ATOM     34  C   UNL     1       6.455  -5.408  23.309  0.00  0.00    +0.179 C 
ATOM     35  O   UNL     1       7.571  -4.641  23.784  0.00  0.00    -0.331 OA
BRANCH  33  36
ATOM     36  O   UNL     1       4.229  -6.256  23.968  0.00  0.00    -0.386 OA
ATOM     37  H   UNL     1       4.433  -6.705  23.127  0.00  0.00    +0.210 HD
ENDBRANCH  33  36
BRANCH  32  38
ATOM     38  O   UNL     1       4.931  -6.060  26.691  0.00  0.00    -0.386 OA
ATOM     39  H   UNL     1       4.532  -6.955  26.695  0.00  0.00    +0.210 HD
ENDBRANCH  32  38
BRANCH  31  40
ATOM     40  O   UNL     1       7.805  -5.947  27.240  0.00  0.00    -0.383 OA
ATOM     41  H   UNL     1       8.232  -5.272  27.795  0.00  0.00    +0.210 HD
ENDBRANCH  31  40
BRANCH  34  42
ATOM     42  C   UNL     1       5.945  -4.750  22.022  0.00  0.00    +0.190 C 
BRANCH  42  43
ATOM     43  O   UNL     1       4.827  -3.917  22.321  0.00  0.00    -0.392 OA
ATOM     44  H   UNL     1       5.158  -2.998  22.313  0.00  0.00    +0.210 HD
ENDBRANCH  42  43
ENDBRANCH  34  42
ENDBRANCH  29  30
ENDBRANCH   5  29
TORSDOF 17
ENDMDL
MODEL 9
REMARK VINA RESULT:      -6.4      3.101      6.622
REMARK  Name = 
REMARK  17 active torsions:
REMARK  status: ('A' for Active; 'I' for Inactive)
REMARK    1  A    between atoms: N_1  and  C_2
REMARK    2  A    between atoms: C_2  and  C_3
REMARK    3  A    between atoms: C_3  and  C_4
REMARK    4  A    between atoms: C_4  and  N_5
REMARK    5  A    between atoms: N_8  and  C_9
REMARK    6  A    between atoms: C_9  and  C_10
REMARK    7  A    between atoms: C_10  and  C_11
REMARK    8  A    between atoms: C_11  and  N_12
REMARK    9  A    between atoms: C_13  and  C_15
REMARK   10  A    between atoms: C_17  and  O_18
REMARK   11  A    between atoms: O_18  and  C_19
REMARK   12  A    between atoms: C_22  and  C_24
REMARK   13  A    between atoms: C_24  and  O_25
REMARK   14  A    between atoms: C_26  and  O_28
REMARK   15  A    between atoms: C_29  and  O_31
REMARK   16  A    between atoms: C_32  and  O_34
REMARK   17  A    between atoms: C_36  and  N_38
REMARK                            x       y       z     vdW  Elec       q    Type
REMARK                         _______ _______ _______ _____ _____    ______ ____
ROOT
ATOM      1  C   UNL     1       6.774   1.536  26.379  0.00  0.00    +0.047 A 
ATOM      2  C   UNL     1       6.430   1.722  27.720  0.00  0.00    +0.097 A 
ATOM      3  C   UNL     1       5.452   0.891  28.288  0.00  0.00    +0.277 A 
ATOM      4  C   UNL     1       4.841  -0.120  27.533  0.00  0.00    +0.130 A 
ATOM      5  C   UNL     1       5.209  -0.306  26.199  0.00  0.00    +0.131 A 
ATOM      6  C   UNL     1       6.154   0.537  25.620  0.00  0.00    +0.059 A 
ENDROOT
BRANCH   1   9
ATOM      7  N   UNL     1       8.753   1.783  24.995  0.00  0.00    -0.311 N 
ATOM      8  H   UNL     1       8.754   0.774  24.879  0.00  0.00    +0.149 HD
ATOM      9  C   UNL     1       7.750   2.409  25.686  0.00  0.00    +0.244 C 
ATOM     10  O   UNL     1       7.599   3.628  25.731  0.00  0.00    -0.270 OA
BRANCH   7  11
ATOM     11  C   UNL     1       9.744   2.530  24.252  0.00  0.00    +0.106 C 
BRANCH  11  12
ATOM     12  C   UNL     1      10.568   1.620  23.343  0.00  0.00    +0.034 C 
BRANCH  12  13
ATOM     13  C   UNL     1      10.591   0.159  23.807  0.00  0.00    +0.086 C 
BRANCH  13  17
ATOM     14  N   UNL     1       7.665  -2.129  23.305  0.00  0.00    -0.300 NA
ATOM     15  C   UNL     1       7.782  -0.754  22.762  0.00  0.00    +0.100 C 
ATOM     16  C   UNL     1       9.097  -0.467  21.991  0.00  0.00    +0.100 C 
ATOM     17  N   UNL     1      10.334  -0.813  22.730  0.00  0.00    -0.300 NA
ATOM     18  C   UNL     1      10.200  -2.199  23.234  0.00  0.00    +0.100 C 
ATOM     19  C   UNL     1       8.907  -2.447  24.044  0.00  0.00    +0.100 C 
BRANCH  14  20
ATOM     20  C   UNL     1       7.377  -3.092  22.226  0.00  0.00    +0.086 C 
BRANCH  20  21
ATOM     21  C   UNL     1       5.999  -3.755  22.364  0.00  0.00    +0.030 C 
BRANCH  21  22
ATOM     22  C   UNL     1       6.098  -5.269  22.186  0.00  0.00    +0.079 C 
BRANCH  22  23
ATOM     23  N   UNL     1       4.769  -5.864  22.239  0.00  0.00    -0.330 NA
ATOM     24  H   UNL     1       4.081  -5.148  22.476  0.00  0.00    +0.118 HD
ATOM     25  H   UNL     1       4.513  -6.216  21.318  0.00  0.00    +0.118 HD
ENDBRANCH  22  23
ENDBRANCH  21  22
ENDBRANCH  20  21
ENDBRANCH  14  20
ENDBRANCH  13  17
ENDBRANCH  12  13
ENDBRANCH  11  12
ENDBRANCH   7  11
ENDBRANCH   1   9
BRANCH   3  26
ATOM     26  N   UNL     1       5.055   1.091  29.687  0.00  0.00    +0.080 N 
ATOM     27  O   UNL     1       3.874   0.859  29.984  0.00  0.00    +0.041 OA
ATOM     28  O   UNL     1       5.918   1.482  30.485  0.00  0.00    -0.576 OA
ENDBRANCH   3  26
BRANCH   5  29
ATOM     29  O   UNL     1       4.550  -1.300  25.534  0.00  0.00    -0.461 OA
BRANCH  29  30
ATOM     30  C   UNL     1       4.613  -2.611  26.121  0.00  0.00    +0.339 C 
ATOM     31  C   UNL     1       3.757  -3.546  25.240  0.00  0.00    +0.214 C 
ATOM     32  C   UNL     1       3.905  -4.992  25.732  0.00  0.00    +0.180 C 
ATOM     33  C   UNL     1       5.379  -5.390  25.843  0.00  0.00    +0.177 C 
ATOM     34  C   UNL     1       6.115  -4.375  26.724  0.00  0.00    +0.179 C 
ATOM     35  O   UNL     1       5.974  -3.050  26.187  0.00  0.00    -0.331 OA
BRANCH  33  36
ATOM     36  O   UNL     1       5.454  -6.726  26.353  0.00  0.00    -0.386 OA
ATOM     37  H   UNL     1       5.428  -6.705  27.326  0.00  0.00    +0.210 HD
ENDBRANCH  33  36
BRANCH  32  38
ATOM     38  O   UNL     1       3.219  -5.890  24.851  0.00  0.00    -0.386 OA
ATOM     39  H   UNL     1       2.321  -6.012  25.224  0.00  0.00    +0.210 HD
ENDBRANCH  32  38
BRANCH  31  40
ATOM     40  O   UNL     1       2.384  -3.117  25.286  0.00  0.00    -0.383 OA
ATOM     41  H   UNL     1       1.816  -3.858  25.013  0.00  0.00    +0.210 HD
ENDBRANCH  31  40
BRANCH  34  42
ATOM     42  C   UNL     1       7.612  -4.693  26.804  0.00  0.00    +0.190 C 
BRANCH  42  43
ATOM     43  O   UNL     1       7.810  -5.869  27.586  0.00  0.00    -0.392 OA
ATOM     44  H   UNL     1       7.547  -6.623  27.023  0.00  0.00    +0.210 HD
ENDBRANCH  42  43
ENDBRANCH  34  42
ENDBRANCH  29  30
ENDBRANCH   5  29
TORSDOF 17
ENDMDL
