MODEL 1
REMARK VINA RESULT:      -5.1      0.000      0.000
REMARK  Name = 
REMARK  2 active torsions:
REMARK  status: ('A' for Active; 'I' for Inactive)
REMARK    1  A    between atoms: O_1  and  C_2
REMARK    2  A    between atoms: C_11  and  O_12
REMARK                            x       y       z     vdW  Elec       q    Type
REMARK                         _______ _______ _______ _____ _____    ______ ____
ROOT
ATOM      1  C   UNL     1       9.654  -2.067  24.109  0.00  0.00    +0.159 A 
ATOM      2  C   UNL     1       9.963  -1.208  23.047  0.00  0.00    +0.166 A 
ATOM      3  C   UNL     1       9.816   0.198  23.175  0.00  0.00    +0.027 A 
ATOM      4  C   UNL     1       9.349   0.701  24.418  0.00  0.00    -0.014 A 
ATOM      5  C   UNL     1       9.200   2.085  24.604  0.00  0.00    +0.008 A 
ATOM      6  C   UNL     1       9.506   2.986  23.585  0.00  0.00    +0.001 A 
ATOM      7  C   UNL     1       9.953   2.512  22.360  0.00  0.00    +0.001 A 
ATOM      8  C   UNL     1       9.033  -0.183  25.462  0.00  0.00    +0.012 A 
ATOM      9  C   UNL     1      10.101   1.138  22.154  0.00  0.00    +0.012 A 
ATOM     10  C   UNL     1       9.185  -1.560  25.313  0.00  0.00    +0.050 A 
ENDROOT
BRANCH   1  11
ATOM     11  O   UNL     1       9.830  -3.415  23.956  0.00  0.00    -0.503 OA
ATOM     12  H   UNL     1      10.458  -3.573  23.235  0.00  0.00    +0.292 HD
ENDBRANCH   1  11
BRANCH   2  13
ATOM     13  O   UNL     1      10.416  -1.800  21.892  0.00  0.00    -0.503 OA
ATOM     14  H   UNL     1       9.993  -1.390  21.128  0.00  0.00    +0.292 HD
ENDBRANCH   2  13
TORSDOF 2
ENDMDL
MODEL 2
REMARK VINA RESULT:      -5.1      2.094      3.968
REMARK  Name = 
REMARK  2 active torsions:
REMARK  status: ('A' for Active; 'I' for Inactive)
REMARK    1  A    between atoms: O_1  and  C_2
REMARK    2  A    between atoms: C_11  and  O_12
REMARK                            x       y       z     vdW  Elec       q    Type
REMARK                         _______ _______ _______ _____ _____    ______ ____
ROOT
ATOM      1  C   UNL     1      10.179   1.474  22.612  0.00  0.00    +0.159 A 
ATOM      2  C   UNL     1       9.447   0.437  22.019  0.00  0.00    +0.166 A 
ATOM      3  C   UNL     1       9.154  -0.754  22.734  0.00  0.00    +0.027 A 
ATOM      4  C   UNL     1       9.628  -0.855  24.069  0.00  0.00    -0.014 A 
ATOM      5  C   UNL     1       9.353  -2.005  24.826  0.00  0.00    +0.008 A 
ATOM      6  C   UNL     1       8.618  -3.062  24.291  0.00  0.00    +0.001 A 
ATOM      7  C   UNL     1       8.157  -2.986  22.984  0.00  0.00    +0.001 A 
ATOM      8  C   UNL     1      10.371   0.194  24.634  0.00  0.00    +0.012 A 
ATOM      9  C   UNL     1       8.426  -1.852  22.213  0.00  0.00    +0.012 A 
ATOM     10  C   UNL     1      10.646   1.354  23.913  0.00  0.00    +0.050 A 
ENDROOT
BRANCH   1  11
ATOM     11  O   UNL     1      10.421   2.617  21.900  0.00  0.00    -0.503 OA
ATOM     12  H   UNL     1      10.169   2.474  20.975  0.00  0.00    +0.292 HD
ENDBRANCH   1  11
BRANCH   2  13
ATOM     13  O   UNL     1       9.030   0.643  20.726  0.00  0.00    -0.503 OA
ATOM     14  H   UNL     1       9.611   0.170  20.117  0.00  0.00    +0.292 HD
ENDBRANCH   2  13
TORSDOF 2
ENDMDL
MODEL 3
REMARK VINA RESULT:      -5.1      2.256      3.990
REMARK  Name = 
REMARK  2 active torsions:
REMARK  status: ('A' for Active; 'I' for Inactive)
REMARK    1  A    between atoms: O_1  and  C_2
REMARK    2  A    between atoms: C_11  and  O_12
REMARK                            x       y       z     vdW  Elec       q    Type
REMARK                         _______ _______ _______ _____ _____    ______ ____
ROOT
ATOM      1  C   UNL     1       9.224   2.929  23.512  0.00  0.00    +0.159 A 
ATOM      2  C   UNL     1       9.747   1.920  22.694  0.00  0.00    +0.166 A 
ATOM      3  C   UNL     1       9.737   0.562  23.108  0.00  0.00    +0.027 A 
ATOM      4  C   UNL     1       9.177   0.264  24.378  0.00  0.00    -0.014 A 
ATOM      5  C   UNL     1       9.127  -1.064  24.830  0.00  0.00    +0.008 A 
ATOM      6  C   UNL     1       9.621  -2.109  24.050  0.00  0.00    +0.001 A 
ATOM      7  C   UNL     1      10.183  -1.836  22.811  0.00  0.00    +0.001 A 
ATOM      8  C   UNL     1       8.671   1.297  25.185  0.00  0.00    +0.012 A 
ATOM      9  C   UNL     1      10.247  -0.520  22.347  0.00  0.00    +0.012 A 
ATOM     10  C   UNL     1       8.692   2.623  24.757  0.00  0.00    +0.050 A 
ENDROOT
BRANCH   1  11
ATOM     11  O   UNL     1       9.230   4.223  23.070  0.00  0.00    -0.503 OA
ATOM     12  H   UNL     1      10.079   4.408  22.640  0.00  0.00    +0.292 HD
ENDBRANCH   1  11
BRANCH   2  13
ATOM     13  O   UNL     1      10.257   2.318  21.481  0.00  0.00    -0.503 OA
ATOM     14  H   UNL     1       9.578   2.788  20.981  0.00  0.00    +0.292 HD
ENDBRANCH   2  13
TORSDOF 2
ENDMDL
MODEL 4
REMARK VINA RESULT:      -5.1      3.826      5.290
REMARK  Name = 
REMARK  2 active torsions:
REMARK  status: ('A' for Active; 'I' for Inactive)
REMARK    1  A    between atoms: O_1  and  C_2
REMARK    2  A    between atoms: C_11  and  O_12
REMARK                            x       y       z     vdW  Elec       q    Type
REMARK                         _______ _______ _______ _____ _____    ______ ____
ROOT
ATOM      1  C   UNL     1       7.423  -5.463  26.670  0.00  0.00    +0.159 A 
ATOM      2  C   UNL     1       8.510  -4.705  26.219  0.00  0.00    +0.166 A 
ATOM      3  C   UNL     1       8.442  -3.978  25.002  0.00  0.00    +0.027 A 
ATOM      4  C   UNL     1       7.234  -4.045  24.261  0.00  0.00    -0.014 A 
ATOM      5  C   UNL     1       7.107  -3.333  23.057  0.00  0.00    +0.008 A 
ATOM      6  C   UNL     1       8.153  -2.552  22.569  0.00  0.00    +0.001 A 
ATOM      7  C   UNL     1       9.347  -2.483  23.274  0.00  0.00    +0.001 A 
ATOM      8  C   UNL     1       6.163  -4.824  24.728  0.00  0.00    +0.012 A 
ATOM      9  C   UNL     1       9.493  -3.190  24.470  0.00  0.00    +0.012 A 
ATOM     10  C   UNL     1       6.252  -5.529  25.927  0.00  0.00    +0.050 A 
ENDROOT
BRANCH   1  11
ATOM     11  O   UNL     1       7.517  -6.132  27.860  0.00  0.00    -0.503 OA
ATOM     12  H   UNL     1       6.850  -6.835  27.882  0.00  0.00    +0.292 HD
ENDBRANCH   1  11
BRANCH   2  13
ATOM     13  O   UNL     1       9.628  -4.702  27.019  0.00  0.00    -0.503 OA
ATOM     14  H   UNL     1      10.250  -5.373  26.712  0.00  0.00    +0.292 HD
ENDBRANCH   2  13
TORSDOF 2
ENDMDL
MODEL 5
REMARK VINA RESULT:      -5.0      5.809      6.322
REMARK  Name = 
REMARK  2 active torsions:
REMARK  status: ('A' for Active; 'I' for Inactive)
REMARK    1  A    between atoms: O_1  and  C_2
REMARK    2  A    between atoms: C_11  and  O_12
REMARK                            x       y       z     vdW  Elec       q    Type
REMARK                         _______ _______ _______ _____ _____    ______ ____
ROOT
ATOM      1  C   UNL     1       8.370  -4.831  26.302  0.00  0.00    +0.159 A 
ATOM      2  C   UNL     1       8.558  -5.221  24.970  0.00  0.00    +0.166 A 
ATOM      3  C   UNL     1       7.468  -5.277  24.062  0.00  0.00    +0.027 A 
ATOM      4  C   UNL     1       6.184  -4.923  24.552  0.00  0.00    -0.014 A 
ATOM      5  C   UNL     1       5.073  -4.946  23.693  0.00  0.00    +0.008 A 
ATOM      6  C   UNL     1       5.206  -5.314  22.355  0.00  0.00    +0.001 A 
ATOM      7  C   UNL     1       6.452  -5.675  21.861  0.00  0.00    +0.001 A 
ATOM      8  C   UNL     1       6.020  -4.548  25.896  0.00  0.00    +0.012 A 
ATOM      9  C   UNL     1       7.567  -5.663  22.703  0.00  0.00    +0.012 A 
ATOM     10  C   UNL     1       7.105  -4.500  26.769  0.00  0.00    +0.050 A 
ENDROOT
BRANCH   1  11
ATOM     11  O   UNL     1       9.448  -4.765  27.142  0.00  0.00    -0.503 OA
ATOM     12  H   UNL     1       9.772  -3.852  27.173  0.00  0.00    +0.292 HD
ENDBRANCH   1  11
BRANCH   2  13
ATOM     13  O   UNL     1       9.844  -5.534  24.599  0.00  0.00    -0.503 OA
ATOM     14  H   UNL     1       9.831  -6.251  23.953  0.00  0.00    +0.292 HD
ENDBRANCH   2  13
TORSDOF 2
ENDMDL
MODEL 6
REMARK VINA RESULT:      -5.0      2.266      4.290
REMARK  Name = 
REMARK  2 active torsions:
REMARK  status: ('A' for Active; 'I' for Inactive)
REMARK    1  A    between atoms: O_1  and  C_2
REMARK    2  A    between atoms: C_11  and  O_12
REMARK                            x       y       z     vdW  Elec       q    Type
REMARK                         _______ _______ _______ _____ _____    ______ ____
ROOT
ATOM      1  C   UNL     1       9.771   1.074  22.163  0.00  0.00    +0.159 A 
ATOM      2  C   UNL     1       9.643   1.035  23.557  0.00  0.00    +0.166 A 
ATOM      3  C   UNL     1       9.252  -0.156  24.223  0.00  0.00    +0.027 A 
ATOM      4  C   UNL     1       8.998  -1.304  23.427  0.00  0.00    -0.014 A 
ATOM      5  C   UNL     1       8.623  -2.513  24.036  0.00  0.00    +0.008 A 
ATOM      6  C   UNL     1       8.493  -2.612  25.420  0.00  0.00    +0.001 A 
ATOM      7  C   UNL     1       8.726  -1.497  26.214  0.00  0.00    +0.001 A 
ATOM      8  C   UNL     1       9.121  -1.234  22.030  0.00  0.00    +0.012 A 
ATOM      9  C   UNL     1       9.094  -0.285  25.625  0.00  0.00    +0.012 A 
ATOM     10  C   UNL     1       9.507  -0.053  21.397  0.00  0.00    +0.050 A 
ENDROOT
BRANCH   1  11
ATOM     11  O   UNL     1      10.173   2.233  21.558  0.00  0.00    -0.503 OA
ATOM     12  H   UNL     1       9.394   2.778  21.365  0.00  0.00    +0.292 HD
ENDBRANCH   1  11
BRANCH   2  13
ATOM     13  O   UNL     1       9.921   2.200  24.231  0.00  0.00    -0.503 OA
ATOM     14  H   UNL     1       9.240   2.363  24.895  0.00  0.00    +0.292 HD
ENDBRANCH   2  13
TORSDOF 2
ENDMDL
MODEL 7
REMARK VINA RESULT:      -4.9      1.688      2.547
REMARK  Name = 
REMARK  2 active torsions:
REMARK  status: ('A' for Active; 'I' for Inactive)
REMARK    1  A    between atoms: O_1  and  C_2
REMARK    2  A    between atoms: C_11  and  O_12
REMARK                            x       y       z     vdW  Elec       q    Type
REMARK                         _______ _______ _______ _____ _____    ______ ____
ROOT
ATOM      1  C   UNL     1       8.991  -2.100  25.048  0.00  0.00    +0.159 A 
ATOM      2  C   UNL     1       9.312  -0.764  25.318  0.00  0.00    +0.166 A 
ATOM      3  C   UNL     1       9.603   0.146  24.268  0.00  0.00    +0.027 A 
ATOM      4  C   UNL     1       9.554  -0.346  22.938  0.00  0.00    -0.014 A 
ATOM      5  C   UNL     1       9.818   0.516  21.860  0.00  0.00    +0.008 A 
ATOM      6  C   UNL     1      10.130   1.858  22.071  0.00  0.00    +0.001 A 
ATOM      7  C   UNL     1      10.193   2.354  23.366  0.00  0.00    +0.001 A 
ATOM      8  C   UNL     1       9.242  -1.693  22.695  0.00  0.00    +0.012 A 
ATOM      9  C   UNL     1       9.940   1.510  24.450  0.00  0.00    +0.012 A 
ATOM     10  C   UNL     1       8.960  -2.569  23.742  0.00  0.00    +0.050 A 
ENDROOT
BRANCH   1  11
ATOM     11  O   UNL     1       8.693  -2.943  26.084  0.00  0.00    -0.503 OA
ATOM     12  H   UNL     1       8.120  -2.480  26.715  0.00  0.00    +0.292 HD
ENDBRANCH   1  11
BRANCH   2  13
ATOM     13  O   UNL     1       9.321  -0.392  26.641  0.00  0.00    -0.503 OA
ATOM     14  H   UNL     1       9.984   0.296  26.782  0.00  0.00    +0.292 HD
ENDBRANCH   2  13
TORSDOF 2
ENDMDL
MODEL 8
REMARK VINA RESULT:      -4.9      5.291      7.281
REMARK  Name = 
REMARK  2 active torsions:
REMARK  status: ('A' for Active; 'I' for Inactive)
REMARK    1  A    between atoms: O_1  and  C_2
REMARK    2  A    between atoms: C_11  and  O_12
REMARK                            x       y       z     vdW  Elec       q    Type
REMARK                         _______ _______ _______ _____ _____    ______ ____
ROOT
ATOM      1  C   UNL     1       8.723  -4.862  26.135  0.00  0.00    +0.159 A 
ATOM      2  C   UNL     1       7.544  -5.505  26.533  0.00  0.00    +0.166 A 
ATOM      3  C   UNL     1       6.463  -5.677  25.629  0.00  0.00    +0.027 A 
ATOM      4  C   UNL     1       6.621  -5.177  24.310  0.00  0.00    -0.014 A 
ATOM      5  C   UNL     1       5.589  -5.334  23.370  0.00  0.00    +0.008 A 
ATOM      6  C   UNL     1       4.400  -5.978  23.708  0.00  0.00    +0.001 A 
ATOM      7  C   UNL     1       4.222  -6.463  24.997  0.00  0.00    +0.001 A 
ATOM      8  C   UNL     1       7.809  -4.524  23.941  0.00  0.00    +0.012 A 
ATOM      9  C   UNL     1       5.236  -6.310  25.947  0.00  0.00    +0.012 A 
ATOM     10  C   UNL     1       8.857  -4.367  24.846  0.00  0.00    +0.050 A 
ENDROOT
BRANCH   1  11
ATOM     11  O   UNL     1       9.752  -4.735  27.028  0.00  0.00    -0.503 OA
ATOM     12  H   UNL     1      10.143  -3.852  26.938  0.00  0.00    +0.292 HD
ENDBRANCH   1  11
BRANCH   2  13
ATOM     13  O   UNL     1       7.500  -5.958  27.830  0.00  0.00    -0.503 OA
ATOM     14  H   UNL     1       8.348  -6.356  28.065  0.00  0.00    +0.292 HD
ENDBRANCH   2  13
TORSDOF 2
ENDMDL
MODEL 9
REMARK VINA RESULT:      -4.9      6.287      7.561
REMARK  Name = 
REMARK  2 active torsions:
REMARK  status: ('A' for Active; 'I' for Inactive)
REMARK    1  A    between atoms: O_1  and  C_2
REMARK    2  A    between atoms: C_11  and  O_12
REMARK                            x       y       z     vdW  Elec       q    Type
REMARK                         _______ _______ _______ _____ _____    ______ ____
ROOT
ATOM      1  C   UNL     1       4.585  -6.832  25.771  0.00  0.00    +0.159 A 
ATOM      2  C   UNL     1       4.537  -6.835  24.372  0.00  0.00    +0.166 A 
ATOM      3  C   UNL     1       5.442  -6.054  23.606  0.00  0.00    +0.027 A 
ATOM      4  C   UNL     1       6.396  -5.273  24.309  0.00  0.00    -0.014 A 
ATOM      5  C   UNL     1       7.325  -4.493  23.601  0.00  0.00    +0.008 A 
ATOM      6  C   UNL     1       7.331  -4.470  22.207  0.00  0.00    +0.001 A 
ATOM      7  C   UNL     1       6.398  -5.219  21.503  0.00  0.00    +0.001 A 
ATOM      8  C   UNL     1       6.414  -5.277  25.713  0.00  0.00    +0.012 A 
ATOM      9  C   UNL     1       5.462  -5.995  22.190  0.00  0.00    +0.012 A 
ATOM     10  C   UNL     1       5.515  -6.052  26.444  0.00  0.00    +0.050 A 
ENDROOT
BRANCH   1  11
ATOM     11  O   UNL     1       3.712  -7.616  26.475  0.00  0.00    -0.503 OA
ATOM     12  H   UNL     1       3.116  -8.064  25.855  0.00  0.00    +0.292 HD
ENDBRANCH   1  11
BRANCH   2  13
ATOM     13  O   UNL     1       3.580  -7.634  23.794  0.00  0.00    -0.503 OA
ATOM     14  H   UNL     1       3.958  -8.498  23.586  0.00  0.00    +0.292 HD
ENDBRANCH   2  13
TORSDOF 2
ENDMDL
