MODEL 1
REMARK VINA RESULT:      -7.0      0.000      0.000
REMARK  Name = 
REMARK  16 active torsions:
REMARK  status: ('A' for Active; 'I' for Inactive)
REMARK    1  A    between atoms: C_1  and  C_2
REMARK    2  A    between atoms: C_2  and  C_3
REMARK    3  A    between atoms: C_3  and  C_4
REMARK    4  A    between atoms: C_4  and  C_5
REMARK    5  A    between atoms: C_5  and  C_6
REMARK    6  A    between atoms: C_9  and  C_12
REMARK    7  A    between atoms: N_14  and  C_15
REMARK    8  A    between atoms: N_14  and  C_33
REMARK    9  A    between atoms: C_15  and  C_16
REMARK   10  A    between atoms: C_19  and  C_22
REMARK   11  A    between atoms: C_25  and  C_26
REMARK   12  A    between atoms: C_26  and  C_27
REMARK   13  A    between atoms: C_27  and  O_29
REMARK   14  A    between atoms: O_29  and  C_30
REMARK   15  A    between atoms: N_36  and  C_37
REMARK   16  A    between atoms: C_37  and  C_38
REMARK                            x       y       z     vdW  Elec       q    Type
REMARK                         _______ _______ _______ _____ _____    ______ ____
ROOT
ATOM      1  C   UNL     1       9.704  -1.243  22.901  0.00  0.00    +0.247 C 
ATOM      2  N   UNL     1       9.442  -1.728  24.222  0.00  0.00    -0.290 N 
ATOM      3  O   UNL     1       9.782  -1.941  21.894  0.00  0.00    -0.270 OA
ENDROOT
BRANCH   1   7
ATOM      4  C   UNL     1       9.627   2.729  23.565  0.00  0.00    -0.047 A 
ATOM      5  C   UNL     1      10.727   2.021  24.093  0.00  0.00    +0.004 A 
ATOM      6  C   UNL     1      10.961   0.715  23.679  0.00  0.00    +0.013 A 
ATOM      7  C   UNL     1      10.106   0.177  22.721  0.00  0.00    +0.037 A 
ATOM      8  C   UNL     1       9.387   1.025  21.886  0.00  0.00    +0.013 A 
ATOM      9  C   UNL     1       9.105   2.312  22.342  0.00  0.00    +0.004 A 
BRANCH   4  10
ATOM     10  C   UNL     1       8.953   3.729  24.482  0.00  0.00    +0.035 C 
BRANCH  10  11
ATOM     11  C   UNL     1       9.307   5.228  24.519  0.00  0.00    +0.005 C 
BRANCH  11  12
ATOM     12  C   UNL     1      10.380   5.887  23.622  0.00  0.00    +0.000 C 
BRANCH  12  14
ATOM     13  C   UNL     1      12.729   5.074  23.155  0.00  0.00    +0.004 C 
ATOM     14  C   UNL     1      11.843   5.924  24.083  0.00  0.00    -0.003 C 
ENDBRANCH  12  14
ENDBRANCH  11  12
ENDBRANCH  10  11
ENDBRANCH   4  10
ENDBRANCH   1   7
BRANCH   2  15
ATOM     15  C   UNL     1       9.325  -3.214  24.466  0.00  0.00    +0.079 C 
ATOM     16  C   UNL     1       8.171  -3.886  23.681  0.00  0.00    +0.038 C 
ATOM     17  C   UNL     1       6.804  -3.471  24.228  0.00  0.00    +0.086 C 
ATOM     18  N   UNL     1       6.589  -3.850  25.631  0.00  0.00    -0.295 NA
ATOM     19  C   UNL     1       7.710  -3.339  26.454  0.00  0.00    +0.086 C 
ATOM     20  C   UNL     1       9.105  -3.699  25.920  0.00  0.00    +0.038 C 
BRANCH  18  21
ATOM     21  C   UNL     1       6.416  -5.306  25.814  0.00  0.00    +0.158 C 
BRANCH  21  22
ATOM     22  C   UNL     1       6.092  -5.706  27.223  0.00  0.00    +0.121 A 
ATOM     23  N   UNL     1       4.816  -5.657  27.728  0.00  0.00    -0.347 N 
ATOM     24  H   UNL     1       3.996  -5.386  27.204  0.00  0.00    +0.167 HD
ATOM     25  C   UNL     1       4.869  -6.057  29.035  0.00  0.00    +0.104 A 
ATOM     26  C   UNL     1       6.189  -6.360  29.263  0.00  0.00    +0.130 A 
ATOM     27  N   UNL     1       6.937  -6.149  28.135  0.00  0.00    -0.239 NA
ENDBRANCH  21  22
ENDBRANCH  18  21
ENDBRANCH   2  15
BRANCH   2  28
ATOM     28  C   UNL     1       9.141  -0.829  25.389  0.00  0.00    +0.143 C 
BRANCH  28  29
ATOM     29  C   UNL     1       7.834  -0.057  25.300  0.00  0.00    -0.030 A 
ATOM     30  C   UNL     1       7.435   0.845  26.282  0.00  0.00    +0.006 A 
ATOM     31  C   UNL     1       6.388   1.749  26.034  0.00  0.00    +0.009 A 
ATOM     32  C   UNL     1       5.735   1.815  24.785  0.00  0.00    -0.018 A 
ATOM     33  C   UNL     1       5.976   0.730  23.925  0.00  0.00    +0.009 A 
ATOM     34  C   UNL     1       6.991  -0.204  24.192  0.00  0.00    +0.006 A 
BRANCH  32  35
ATOM     35  C   UNL     1       4.993   3.049  24.342  0.00  0.00    -0.018 A 
ATOM     36  C   UNL     1       5.462   3.874  23.301  0.00  0.00    +0.009 A 
ATOM     37  C   UNL     1       4.669   4.875  22.712  0.00  0.00    +0.005 A 
ATOM     38  C   UNL     1       3.366   5.101  23.150  0.00  0.00    -0.037 A 
ATOM     39  C   UNL     1       2.901   4.359  24.235  0.00  0.00    +0.005 A 
ATOM     40  C   UNL     1       3.699   3.355  24.814  0.00  0.00    +0.009 A 
BRANCH  38  41
ATOM     41  C   UNL     1       2.481   6.107  22.470  0.00  0.00    +0.155 C 
BRANCH  41  42
ATOM     42  C   UNL     1       2.142   5.741  21.034  0.00  0.00    +0.311 C 
ATOM     43  O   UNL     1       2.329   6.493  20.086  0.00  0.00    -0.250 OA
BRANCH  42  44
ATOM     44  O   UNL     1       1.603   4.492  20.978  0.00  0.00    -0.468 OA
ATOM     45  C   UNL     1       1.966   3.779  19.796  0.00  0.00    +0.280 C 
ENDBRANCH  42  44
ENDBRANCH  41  42
ENDBRANCH  38  41
ENDBRANCH  32  35
ENDBRANCH  28  29
ENDBRANCH   2  28
TORSDOF 14
ENDMDL
MODEL 2
REMARK VINA RESULT:      -6.9      1.496      2.040
REMARK  Name = 
REMARK  16 active torsions:
REMARK  status: ('A' for Active; 'I' for Inactive)
REMARK    1  A    between atoms: C_1  and  C_2
REMARK    2  A    between atoms: C_2  and  C_3
REMARK    3  A    between atoms: C_3  and  C_4
REMARK    4  A    between atoms: C_4  and  C_5
REMARK    5  A    between atoms: C_5  and  C_6
REMARK    6  A    between atoms: C_9  and  C_12
REMARK    7  A    between atoms: N_14  and  C_15
REMARK    8  A    between atoms: N_14  and  C_33
REMARK    9  A    between atoms: C_15  and  C_16
REMARK   10  A    between atoms: C_19  and  C_22
REMARK   11  A    between atoms: C_25  and  C_26
REMARK   12  A    between atoms: C_26  and  C_27
REMARK   13  A    between atoms: C_27  and  O_29
REMARK   14  A    between atoms: O_29  and  C_30
REMARK   15  A    between atoms: N_36  and  C_37
REMARK   16  A    between atoms: C_37  and  C_38
REMARK                            x       y       z     vdW  Elec       q    Type
REMARK                         _______ _______ _______ _____ _____    ______ ____
ROOT
ATOM      1  C   UNL     1       9.730  -1.854  23.187  0.00  0.00    +0.247 C 
ATOM      2  N   UNL     1       9.420  -2.230  24.533  0.00  0.00    -0.290 N 
ATOM      3  O   UNL     1       9.815  -2.628  22.239  0.00  0.00    -0.270 OA
ENDROOT
BRANCH   1   7
ATOM      4  C   UNL     1       9.694   2.163  23.488  0.00  0.00    -0.047 A 
ATOM      5  C   UNL     1      10.736   1.488  24.157  0.00  0.00    +0.004 A 
ATOM      6  C   UNL     1      10.970   0.147  23.880  0.00  0.00    +0.013 A 
ATOM      7  C   UNL     1      10.176  -0.462  22.912  0.00  0.00    +0.037 A 
ATOM      8  C   UNL     1       9.539   0.318  21.953  0.00  0.00    +0.013 A 
ATOM      9  C   UNL     1       9.254   1.646  22.271  0.00  0.00    +0.004 A 
BRANCH   4  10
ATOM     10  C   UNL     1       8.978   3.252  24.259  0.00  0.00    +0.035 C 
BRANCH  10  11
ATOM     11  C   UNL     1       8.360   4.500  23.600  0.00  0.00    +0.005 C 
BRANCH  11  12
ATOM     12  C   UNL     1       7.425   5.491  24.332  0.00  0.00    +0.000 C 
BRANCH  12  14
ATOM     13  C   UNL     1       7.057   6.509  22.047  0.00  0.00    +0.004 C 
ATOM     14  C   UNL     1       6.640   6.537  23.527  0.00  0.00    -0.003 C 
ENDBRANCH  12  14
ENDBRANCH  11  12
ENDBRANCH  10  11
ENDBRANCH   4  10
ENDBRANCH   1   7
BRANCH   2  15
ATOM     15  C   UNL     1       9.254  -3.690  24.884  0.00  0.00    +0.079 C 
ATOM     16  C   UNL     1       8.269  -4.447  23.960  0.00  0.00    +0.038 C 
ATOM     17  C   UNL     1       6.824  -4.004  24.199  0.00  0.00    +0.086 C 
ATOM     18  N   UNL     1       6.346  -4.258  25.564  0.00  0.00    -0.295 NA
ATOM     19  C   UNL     1       7.291  -3.659  26.534  0.00  0.00    +0.086 C 
ATOM     20  C   UNL     1       8.762  -4.045  26.309  0.00  0.00    +0.038 C 
BRANCH  18  21
ATOM     21  C   UNL     1       6.138  -5.694  25.843  0.00  0.00    +0.158 C 
BRANCH  21  22
ATOM     22  C   UNL     1       4.811  -6.218  25.378  0.00  0.00    +0.121 A 
ATOM     23  N   UNL     1       3.620  -5.773  25.898  0.00  0.00    -0.347 N 
ATOM     24  H   UNL     1       3.528  -5.050  26.599  0.00  0.00    +0.167 HD
ATOM     25  C   UNL     1       2.613  -6.464  25.284  0.00  0.00    +0.104 A 
ATOM     26  C   UNL     1       3.242  -7.292  24.386  0.00  0.00    +0.130 A 
ATOM     27  N   UNL     1       4.601  -7.126  24.444  0.00  0.00    -0.239 NA
ENDBRANCH  21  22
ENDBRANCH  18  21
ENDBRANCH   2  15
BRANCH   2  28
ATOM     28  C   UNL     1       9.113  -1.236  25.619  0.00  0.00    +0.143 C 
BRANCH  28  29
ATOM     29  C   UNL     1       7.839  -0.428  25.426  0.00  0.00    -0.030 A 
ATOM     30  C   UNL     1       7.469   0.595  26.294  0.00  0.00    +0.006 A 
ATOM     31  C   UNL     1       6.462   1.506  25.931  0.00  0.00    +0.009 A 
ATOM     32  C   UNL     1       5.823   1.456  24.675  0.00  0.00    -0.018 A 
ATOM     33  C   UNL     1       6.027   0.271  23.947  0.00  0.00    +0.009 A 
ATOM     34  C   UNL     1       7.000  -0.666  24.331  0.00  0.00    +0.006 A 
BRANCH  32  35
ATOM     35  C   UNL     1       5.137   2.659  24.085  0.00  0.00    -0.018 A 
ATOM     36  C   UNL     1       5.167   2.940  22.704  0.00  0.00    +0.009 A 
ATOM     37  C   UNL     1       4.336   3.905  22.108  0.00  0.00    +0.005 A 
ATOM     38  C   UNL     1       3.438   4.643  22.876  0.00  0.00    -0.037 A 
ATOM     39  C   UNL     1       3.443   4.449  24.257  0.00  0.00    +0.005 A 
ATOM     40  C   UNL     1       4.274   3.477  24.845  0.00  0.00    +0.009 A 
BRANCH  38  41
ATOM     41  C   UNL     1       2.485   5.614  22.239  0.00  0.00    +0.155 C 
BRANCH  41  42
ATOM     42  C   UNL     1       1.490   4.953  21.298  0.00  0.00    +0.311 C 
ATOM     43  O   UNL     1       0.554   4.263  21.685  0.00  0.00    -0.250 OA
BRANCH  42  44
ATOM     44  O   UNL     1       1.805   5.230  20.004  0.00  0.00    -0.468 OA
ATOM     45  C   UNL     1       1.836   4.070  19.174  0.00  0.00    +0.280 C 
ENDBRANCH  42  44
ENDBRANCH  41  42
ENDBRANCH  38  41
ENDBRANCH  32  35
ENDBRANCH  28  29
ENDBRANCH   2  28
TORSDOF 14
ENDMDL
MODEL 3
REMARK VINA RESULT:      -6.8      4.253      9.847
REMARK  Name = 
REMARK  16 active torsions:
REMARK  status: ('A' for Active; 'I' for Inactive)
REMARK    1  A    between atoms: C_1  and  C_2
REMARK    2  A    between atoms: C_2  and  C_3
REMARK    3  A    between atoms: C_3  and  C_4
REMARK    4  A    between atoms: C_4  and  C_5
REMARK    5  A    between atoms: C_5  and  C_6
REMARK    6  A    between atoms: C_9  and  C_12
REMARK    7  A    between atoms: N_14  and  C_15
REMARK    8  A    between atoms: N_14  and  C_33
REMARK    9  A    between atoms: C_15  and  C_16
REMARK   10  A    between atoms: C_19  and  C_22
REMARK   11  A    between atoms: C_25  and  C_26
REMARK   12  A    between atoms: C_26  and  C_27
REMARK   13  A    between atoms: C_27  and  O_29
REMARK   14  A    between atoms: O_29  and  C_30
REMARK   15  A    between atoms: N_36  and  C_37
REMARK   16  A    between atoms: C_37  and  C_38
REMARK                            x       y       z     vdW  Elec       q    Type
REMARK                         _______ _______ _______ _____ _____    ______ ____
ROOT
ATOM      1  C   UNL     1       9.019  -2.826  23.991  0.00  0.00    +0.247 C 
ATOM      2  N   UNL     1       8.582  -1.506  24.331  0.00  0.00    -0.290 N 
ATOM      3  O   UNL     1      10.166  -3.245  24.115  0.00  0.00    -0.270 OA
ENDROOT
BRANCH   1   7
ATOM      4  C   UNL     1       5.471  -4.432  22.964  0.00  0.00    -0.047 A 
ATOM      5  C   UNL     1       6.053  -3.542  22.038  0.00  0.00    +0.004 A 
ATOM      6  C   UNL     1       7.381  -3.165  22.195  0.00  0.00    +0.013 A 
ATOM      7  C   UNL     1       8.092  -3.725  23.253  0.00  0.00    +0.037 A 
ATOM      8  C   UNL     1       7.667  -4.927  23.809  0.00  0.00    +0.013 A 
ATOM      9  C   UNL     1       6.317  -5.261  23.698  0.00  0.00    +0.004 A 
BRANCH   4  10
ATOM     10  C   UNL     1       3.997  -4.248  23.257  0.00  0.00    +0.035 C 
BRANCH  10  11
ATOM     11  C   UNL     1       3.007  -5.415  23.433  0.00  0.00    +0.005 C 
BRANCH  11  12
ATOM     12  C   UNL     1       1.469  -5.252  23.444  0.00  0.00    +0.000 C 
BRANCH  12  14
ATOM     13  C   UNL     1       0.831  -3.397  25.039  0.00  0.00    +0.004 C 
ATOM     14  C   UNL     1       0.746  -4.906  24.753  0.00  0.00    -0.003 C 
ENDBRANCH  12  14
ENDBRANCH  11  12
ENDBRANCH  10  11
ENDBRANCH   4  10
ENDBRANCH   1   7
BRANCH   2  15
ATOM     15  C   UNL     1       9.586  -0.483  24.807  0.00  0.00    +0.079 C 
ATOM     16  C   UNL     1       8.942   0.791  25.408  0.00  0.00    +0.038 C 
ATOM     17  C   UNL     1       8.268   1.640  24.328  0.00  0.00    +0.086 C 
ATOM     18  N   UNL     1       9.192   2.124  23.294  0.00  0.00    -0.295 NA
ATOM     19  C   UNL     1       9.941   0.978  22.730  0.00  0.00    +0.086 C 
ATOM     20  C   UNL     1      10.604   0.073  23.781  0.00  0.00    +0.038 C 
BRANCH  18  21
ATOM     21  C   UNL     1      10.113   3.168  23.788  0.00  0.00    +0.158 C 
BRANCH  21  22
ATOM     22  C   UNL     1       9.465   4.507  23.986  0.00  0.00    +0.121 A 
ATOM     23  N   UNL     1       9.160   5.340  22.938  0.00  0.00    -0.347 N 
ATOM     24  H   UNL     1       9.309   5.122  21.963  0.00  0.00    +0.167 HD
ATOM     25  C   UNL     1       8.609   6.478  23.457  0.00  0.00    +0.104 A 
ATOM     26  C   UNL     1       8.580   6.275  24.816  0.00  0.00    +0.130 A 
ATOM     27  N   UNL     1       9.102   5.049  25.133  0.00  0.00    -0.239 NA
ENDBRANCH  21  22
ENDBRANCH  18  21
ENDBRANCH   2  15
BRANCH   2  28
ATOM     28  C   UNL     1       7.135  -1.098  24.368  0.00  0.00    +0.143 C 
BRANCH  28  29
ATOM     29  C   UNL     1       6.287  -1.792  25.423  0.00  0.00    -0.030 A 
ATOM     30  C   UNL     1       4.919  -1.562  25.547  0.00  0.00    +0.006 A 
ATOM     31  C   UNL     1       4.121  -2.423  26.318  0.00  0.00    +0.009 A 
ATOM     32  C   UNL     1       4.648  -3.566  26.954  0.00  0.00    -0.018 A 
ATOM     33  C   UNL     1       6.051  -3.616  27.028  0.00  0.00    +0.009 A 
ATOM     34  C   UNL     1       6.855  -2.727  26.296  0.00  0.00    +0.006 A 
BRANCH  32  35
ATOM     35  C   UNL     1       3.776  -4.729  27.347  0.00  0.00    -0.018 A 
ATOM     36  C   UNL     1       2.628  -4.571  28.147  0.00  0.00    +0.009 A 
ATOM     37  C   UNL     1       1.674  -5.591  28.316  0.00  0.00    +0.005 A 
ATOM     38  C   UNL     1       1.836  -6.826  27.693  0.00  0.00    -0.037 A 
ATOM     39  C   UNL     1       3.004  -7.044  26.963  0.00  0.00    +0.005 A 
ATOM     40  C   UNL     1       3.950  -6.016  26.794  0.00  0.00    +0.009 A 
BRANCH  38  41
ATOM     41  C   UNL     1       0.782  -7.892  27.795  0.00  0.00    +0.155 C 
BRANCH  41  42
ATOM     42  C   UNL     1       0.753  -8.828  26.597  0.00  0.00    +0.311 C 
ATOM     43  O   UNL     1       0.989 -10.028  26.675  0.00  0.00    -0.250 OA
BRANCH  42  44
ATOM     44  O   UNL     1       0.447  -8.139  25.465  0.00  0.00    -0.468 OA
ATOM     45  C   UNL     1       0.658  -8.897  24.273  0.00  0.00    +0.280 C 
ENDBRANCH  42  44
ENDBRANCH  41  42
ENDBRANCH  38  41
ENDBRANCH  32  35
ENDBRANCH  28  29
ENDBRANCH   2  28
TORSDOF 14
ENDMDL
MODEL 4
REMARK VINA RESULT:      -6.6      3.330      4.363
REMARK  Name = 
REMARK  16 active torsions:
REMARK  status: ('A' for Active; 'I' for Inactive)
REMARK    1  A    between atoms: C_1  and  C_2
REMARK    2  A    between atoms: C_2  and  C_3
REMARK    3  A    between atoms: C_3  and  C_4
REMARK    4  A    between atoms: C_4  and  C_5
REMARK    5  A    between atoms: C_5  and  C_6
REMARK    6  A    between atoms: C_9  and  C_12
REMARK    7  A    between atoms: N_14  and  C_15
REMARK    8  A    between atoms: N_14  and  C_33
REMARK    9  A    between atoms: C_15  and  C_16
REMARK   10  A    between atoms: C_19  and  C_22
REMARK   11  A    between atoms: C_25  and  C_26
REMARK   12  A    between atoms: C_26  and  C_27
REMARK   13  A    between atoms: C_27  and  O_29
REMARK   14  A    between atoms: O_29  and  C_30
REMARK   15  A    between atoms: N_36  and  C_37
REMARK   16  A    between atoms: C_37  and  C_38
REMARK                            x       y       z     vdW  Elec       q    Type
REMARK                         _______ _______ _______ _____ _____    ______ ____
ROOT
ATOM      1  C   UNL     1       9.619  -1.970  23.477  0.00  0.00    +0.247 C 
ATOM      2  N   UNL     1       8.239  -2.058  23.845  0.00  0.00    -0.290 N 
ATOM      3  O   UNL     1      10.455  -2.851  23.652  0.00  0.00    -0.270 OA
ENDROOT
BRANCH   1   7
ATOM      4  C   UNL     1       9.640   2.014  22.882  0.00  0.00    -0.047 A 
ATOM      5  C   UNL     1      10.471   1.524  23.910  0.00  0.00    +0.004 A 
ATOM      6  C   UNL     1      10.722   0.160  23.995  0.00  0.00    +0.013 A 
ATOM      7  C   UNL     1      10.162  -0.662  23.022  0.00  0.00    +0.037 A 
ATOM      8  C   UNL     1       9.795  -0.124  21.792  0.00  0.00    +0.013 A 
ATOM      9  C   UNL     1       9.485   1.234  21.737  0.00  0.00    +0.004 A 
BRANCH   4  10
ATOM     10  C   UNL     1       8.795   3.229  23.204  0.00  0.00    +0.035 C 
BRANCH  10  11
ATOM     11  C   UNL     1       8.796   3.932  24.575  0.00  0.00    +0.005 C 
BRANCH  11  12
ATOM     12  C   UNL     1       9.368   5.347  24.821  0.00  0.00    +0.000 C 
BRANCH  12  14
ATOM     13  C   UNL     1      11.571   5.713  23.633  0.00  0.00    +0.004 C 
ATOM     14  C   UNL     1      10.081   6.092  23.683  0.00  0.00    -0.003 C 
ENDBRANCH  12  14
ENDBRANCH  11  12
ENDBRANCH  10  11
ENDBRANCH   4  10
ENDBRANCH   1   7
BRANCH   2  15
ATOM     15  C   UNL     1       7.736  -3.276  24.584  0.00  0.00    +0.079 C 
ATOM     16  C   UNL     1       7.891  -4.596  23.789  0.00  0.00    +0.038 C 
ATOM     17  C   UNL     1       6.927  -4.652  22.602  0.00  0.00    +0.086 C 
ATOM     18  N   UNL     1       5.511  -4.597  22.987  0.00  0.00    -0.295 NA
ATOM     19  C   UNL     1       5.283  -3.414  23.848  0.00  0.00    +0.086 C 
ATOM     20  C   UNL     1       6.254  -3.295  25.034  0.00  0.00    +0.038 C 
BRANCH  18  21
ATOM     21  C   UNL     1       5.046  -5.833  23.649  0.00  0.00    +0.158 C 
BRANCH  21  22
ATOM     22  C   UNL     1       3.599  -6.147  23.403  0.00  0.00    +0.121 A 
ATOM     23  N   UNL     1       3.056  -7.378  23.674  0.00  0.00    -0.347 N 
ATOM     24  H   UNL     1       3.557  -8.155  24.082  0.00  0.00    +0.167 HD
ATOM     25  C   UNL     1       1.738  -7.341  23.314  0.00  0.00    +0.104 A 
ATOM     26  C   UNL     1       1.527  -6.063  22.857  0.00  0.00    +0.130 A 
ATOM     27  N   UNL     1       2.681  -5.328  22.925  0.00  0.00    -0.239 NA
ENDBRANCH  21  22
ENDBRANCH  18  21
ENDBRANCH   2  15
BRANCH   2  28
ATOM     28  C   UNL     1       7.204  -1.051  23.422  0.00  0.00    +0.143 C 
BRANCH  28  29
ATOM     29  C   UNL     1       6.961   0.088  24.400  0.00  0.00    -0.030 A 
ATOM     30  C   UNL     1       6.073   1.124  24.128  0.00  0.00    +0.006 A 
ATOM     31  C   UNL     1       5.651   1.987  25.155  0.00  0.00    +0.009 A 
ATOM     32  C   UNL     1       6.064   1.818  26.493  0.00  0.00    -0.018 A 
ATOM     33  C   UNL     1       7.150   0.945  26.679  0.00  0.00    +0.009 A 
ATOM     34  C   UNL     1       7.607   0.114  25.643  0.00  0.00    +0.006 A 
BRANCH  32  35
ATOM     35  C   UNL     1       5.275   2.383  27.644  0.00  0.00    -0.018 A 
ATOM     36  C   UNL     1       5.686   3.535  28.343  0.00  0.00    +0.009 A 
ATOM     37  C   UNL     1       4.847   4.213  29.246  0.00  0.00    +0.005 A 
ATOM     38  C   UNL     1       3.554   3.759  29.496  0.00  0.00    -0.037 A 
ATOM     39  C   UNL     1       3.147   2.573  28.884  0.00  0.00    +0.005 A 
ATOM     40  C   UNL     1       3.990   1.904  27.978  0.00  0.00    +0.009 A 
BRANCH  38  41
ATOM     41  C   UNL     1       2.620   4.524  30.390  0.00  0.00    +0.155 C 
BRANCH  41  42
ATOM     42  C   UNL     1       2.232   5.885  29.834  0.00  0.00    +0.311 C 
ATOM     43  O   UNL     1       2.376   6.931  30.454  0.00  0.00    -0.250 OA
BRANCH  42  44
ATOM     44  O   UNL     1       1.706   5.755  28.586  0.00  0.00    -0.468 OA
ATOM     45  C   UNL     1       2.164   6.756  27.677  0.00  0.00    +0.280 C 
ENDBRANCH  42  44
ENDBRANCH  41  42
ENDBRANCH  38  41
ENDBRANCH  32  35
ENDBRANCH  28  29
ENDBRANCH   2  28
TORSDOF 14
ENDMDL
MODEL 5
REMARK VINA RESULT:      -6.5      2.153      3.120
REMARK  Name = 
REMARK  16 active torsions:
REMARK  status: ('A' for Active; 'I' for Inactive)
REMARK    1  A    between atoms: C_1  and  C_2
REMARK    2  A    between atoms: C_2  and  C_3
REMARK    3  A    between atoms: C_3  and  C_4
REMARK    4  A    between atoms: C_4  and  C_5
REMARK    5  A    between atoms: C_5  and  C_6
REMARK    6  A    between atoms: C_9  and  C_12
REMARK    7  A    between atoms: N_14  and  C_15
REMARK    8  A    between atoms: N_14  and  C_33
REMARK    9  A    between atoms: C_15  and  C_16
REMARK   10  A    between atoms: C_19  and  C_22
REMARK   11  A    between atoms: C_25  and  C_26
REMARK   12  A    between atoms: C_26  and  C_27
REMARK   13  A    between atoms: C_27  and  O_29
REMARK   14  A    between atoms: O_29  and  C_30
REMARK   15  A    between atoms: N_36  and  C_37
REMARK   16  A    between atoms: C_37  and  C_38
REMARK                            x       y       z     vdW  Elec       q    Type
REMARK                         _______ _______ _______ _____ _____    ______ ____
ROOT
ATOM      1  C   UNL     1       8.257  -3.034  22.985  0.00  0.00    +0.247 C 
ATOM      2  N   UNL     1       8.513  -3.496  24.315  0.00  0.00    -0.290 N 
ATOM      3  O   UNL     1       7.685  -3.678  22.111  0.00  0.00    -0.270 OA
ENDROOT
BRANCH   1   7
ATOM      4  C   UNL     1       9.504   0.784  23.292  0.00  0.00    -0.047 A 
ATOM      5  C   UNL     1      10.502  -0.212  23.328  0.00  0.00    +0.004 A 
ATOM      6  C   UNL     1      10.183  -1.513  22.960  0.00  0.00    +0.013 A 
ATOM      7  C   UNL     1       8.883  -1.764  22.531  0.00  0.00    +0.037 A 
ATOM      8  C   UNL     1       8.106  -0.719  22.040  0.00  0.00    +0.013 A 
ATOM      9  C   UNL     1       8.399   0.575  22.468  0.00  0.00    +0.004 A 
BRANCH   4  10
ATOM     10  C   UNL     1       9.596   1.883  24.330  0.00  0.00    +0.035 C 
BRANCH  10  11
ATOM     11  C   UNL     1       9.461   3.382  24.001  0.00  0.00    +0.005 C 
BRANCH  11  12
ATOM     12  C   UNL     1       8.114   4.092  23.731  0.00  0.00    +0.000 C 
BRANCH  12  14
ATOM     13  C   UNL     1       6.171   3.280  22.331  0.00  0.00    +0.004 C 
ATOM     14  C   UNL     1       7.500   4.055  22.325  0.00  0.00    -0.003 C 
ENDBRANCH  12  14
ENDBRANCH  11  12
ENDBRANCH  10  11
ENDBRANCH   4  10
ENDBRANCH   1   7
BRANCH   2  15
ATOM     15  C   UNL     1       8.143  -4.909  24.702  0.00  0.00    +0.079 C 
ATOM     16  C   UNL     1       6.693  -5.300  24.324  0.00  0.00    +0.038 C 
ATOM     17  C   UNL     1       5.670  -4.565  25.193  0.00  0.00    +0.086 C 
ATOM     18  N   UNL     1       5.789  -4.862  26.626  0.00  0.00    -0.295 NA
ATOM     19  C   UNL     1       7.183  -4.619  27.063  0.00  0.00    +0.086 C 
ATOM     20  C   UNL     1       8.249  -5.307  26.195  0.00  0.00    +0.038 C 
BRANCH  18  21
ATOM     21  C   UNL     1       5.357  -6.233  26.968  0.00  0.00    +0.158 C 
BRANCH  21  22
ATOM     22  C   UNL     1       3.962  -6.560  26.521  0.00  0.00    +0.121 A 
ATOM     23  N   UNL     1       3.691  -7.581  25.644  0.00  0.00    -0.347 N 
ATOM     24  H   UNL     1       4.380  -8.209  25.254  0.00  0.00    +0.167 HD
ATOM     25  C   UNL     1       2.341  -7.594  25.424  0.00  0.00    +0.104 A 
ATOM     26  C   UNL     1       1.841  -6.583  26.208  0.00  0.00    +0.130 A 
ATOM     27  N   UNL     1       2.849  -5.955  26.890  0.00  0.00    -0.239 NA
ENDBRANCH  21  22
ENDBRANCH  18  21
ENDBRANCH   2  15
BRANCH   2  28
ATOM     28  C   UNL     1       9.020  -2.607  25.417  0.00  0.00    +0.143 C 
BRANCH  28  29
ATOM     29  C   UNL     1       8.032  -1.568  25.925  0.00  0.00    -0.030 A 
ATOM     30  C   UNL     1       8.279  -0.801  27.060  0.00  0.00    +0.006 A 
ATOM     31  C   UNL     1       7.502   0.339  27.330  0.00  0.00    +0.009 A 
ATOM     32  C   UNL     1       6.486   0.778  26.457  0.00  0.00    -0.018 A 
ATOM     33  C   UNL     1       6.093  -0.153  25.479  0.00  0.00    +0.009 A 
ATOM     34  C   UNL     1       6.839  -1.318  25.236  0.00  0.00    +0.006 A 
BRANCH  32  35
ATOM     35  C   UNL     1       6.000   2.203  26.457  0.00  0.00    -0.018 A 
ATOM     36  C   UNL     1       6.750   3.253  27.024  0.00  0.00    +0.009 A 
ATOM     37  C   UNL     1       6.435   4.607  26.816  0.00  0.00    +0.005 A 
ATOM     38  C   UNL     1       5.343   4.973  26.033  0.00  0.00    -0.037 A 
ATOM     39  C   UNL     1       4.531   3.958  25.527  0.00  0.00    +0.005 A 
ATOM     40  C   UNL     1       4.856   2.605  25.734  0.00  0.00    +0.009 A 
BRANCH  38  41
ATOM     41  C   UNL     1       5.049   6.415  25.732  0.00  0.00    +0.155 C 
BRANCH  41  42
ATOM     42  C   UNL     1       5.152   6.756  24.254  0.00  0.00    +0.311 C 
ATOM     43  O   UNL     1       6.218   6.916  23.672  0.00  0.00    -0.250 OA
BRANCH  42  44
ATOM     44  O   UNL     1       3.911   6.866  23.705  0.00  0.00    -0.468 OA
ATOM     45  C   UNL     1       3.745   6.071  22.531  0.00  0.00    +0.280 C 
ENDBRANCH  42  44
ENDBRANCH  41  42
ENDBRANCH  38  41
ENDBRANCH  32  35
ENDBRANCH  28  29
ENDBRANCH   2  28
TORSDOF 14
ENDMDL
MODEL 6
REMARK VINA RESULT:      -6.3      4.267      9.535
REMARK  Name = 
REMARK  16 active torsions:
REMARK  status: ('A' for Active; 'I' for Inactive)
REMARK    1  A    between atoms: C_1  and  C_2
REMARK    2  A    between atoms: C_2  and  C_3
REMARK    3  A    between atoms: C_3  and  C_4
REMARK    4  A    between atoms: C_4  and  C_5
REMARK    5  A    between atoms: C_5  and  C_6
REMARK    6  A    between atoms: C_9  and  C_12
REMARK    7  A    between atoms: N_14  and  C_15
REMARK    8  A    between atoms: N_14  and  C_33
REMARK    9  A    between atoms: C_15  and  C_16
REMARK   10  A    between atoms: C_19  and  C_22
REMARK   11  A    between atoms: C_25  and  C_26
REMARK   12  A    between atoms: C_26  and  C_27
REMARK   13  A    between atoms: C_27  and  O_29
REMARK   14  A    between atoms: O_29  and  C_30
REMARK   15  A    between atoms: N_36  and  C_37
REMARK   16  A    between atoms: C_37  and  C_38
REMARK                            x       y       z     vdW  Elec       q    Type
REMARK                         _______ _______ _______ _____ _____    ______ ____
ROOT
ATOM      1  C   UNL     1       9.184  -2.384  23.201  0.00  0.00    +0.247 C 
ATOM      2  N   UNL     1       8.872  -0.987  23.197  0.00  0.00    -0.290 N 
ATOM      3  O   UNL     1      10.316  -2.855  23.248  0.00  0.00    -0.270 OA
ENDROOT
BRANCH   1   7
ATOM      4  C   UNL     1       5.513  -4.007  23.535  0.00  0.00    -0.047 A 
ATOM      5  C   UNL     1       5.797  -3.329  22.331  0.00  0.00    +0.004 A 
ATOM      6  C   UNL     1       7.110  -2.985  22.035  0.00  0.00    +0.013 A 
ATOM      7  C   UNL     1       8.098  -3.366  22.938  0.00  0.00    +0.037 A 
ATOM      8  C   UNL     1       7.864  -4.425  23.809  0.00  0.00    +0.013 A 
ATOM      9  C   UNL     1       6.543  -4.718  24.146  0.00  0.00    +0.004 A 
BRANCH   4  10
ATOM     10  C   UNL     1       4.179  -3.710  24.189  0.00  0.00    +0.035 C 
BRANCH  10  11
ATOM     11  C   UNL     1       3.028  -4.730  24.284  0.00  0.00    +0.005 C 
BRANCH  11  12
ATOM     12  C   UNL     1       2.869  -5.751  25.434  0.00  0.00    +0.000 C 
BRANCH  12  14
ATOM     13  C   UNL     1       4.913  -6.746  26.541  0.00  0.00    +0.004 C 
ATOM     14  C   UNL     1       3.798  -6.971  25.506  0.00  0.00    -0.003 C 
ENDBRANCH  12  14
ENDBRANCH  11  12
ENDBRANCH  10  11
ENDBRANCH   4  10
ENDBRANCH   1   7
BRANCH   2  15
ATOM     15  C   UNL     1       9.988   0.030  23.164  0.00  0.00    +0.079 C 
ATOM     16  C   UNL     1      10.144   0.828  24.482  0.00  0.00    +0.038 C 
ATOM     17  C   UNL     1       8.978   1.797  24.691  0.00  0.00    +0.086 C 
ATOM     18  N   UNL     1       8.855   2.812  23.638  0.00  0.00    -0.295 NA
ATOM     19  C   UNL     1       8.808   2.143  22.317  0.00  0.00    +0.086 C 
ATOM     20  C   UNL     1       9.939   1.131  22.076  0.00  0.00    +0.038 C 
BRANCH  18  21
ATOM     21  C   UNL     1       9.932   3.822  23.683  0.00  0.00    +0.158 C 
BRANCH  21  22
ATOM     22  C   UNL     1       9.545   5.092  24.382  0.00  0.00    +0.121 A 
ATOM     23  N   UNL     1       8.419   5.189  25.163  0.00  0.00    -0.347 N 
ATOM     24  H   UNL     1       7.783   4.428  25.359  0.00  0.00    +0.167 HD
ATOM     25  C   UNL     1       8.342   6.473  25.626  0.00  0.00    +0.104 A 
ATOM     26  C   UNL     1       9.453   7.103  25.121  0.00  0.00    +0.130 A 
ATOM     27  N   UNL     1      10.196   6.239  24.360  0.00  0.00    -0.239 NA
ENDBRANCH  21  22
ENDBRANCH  18  21
ENDBRANCH   2  15
BRANCH   2  28
ATOM     28  C   UNL     1       7.476  -0.451  23.356  0.00  0.00    +0.143 C 
BRANCH  28  29
ATOM     29  C   UNL     1       6.826  -0.708  24.707  0.00  0.00    -0.030 A 
ATOM     30  C   UNL     1       5.568  -0.212  25.033  0.00  0.00    +0.006 A 
ATOM     31  C   UNL     1       4.877  -0.706  26.153  0.00  0.00    +0.009 A 
ATOM     32  C   UNL     1       5.397  -1.740  26.958  0.00  0.00    -0.018 A 
ATOM     33  C   UNL     1       6.760  -2.024  26.762  0.00  0.00    +0.009 A 
ATOM     34  C   UNL     1       7.468  -1.496  25.671  0.00  0.00    +0.006 A 
BRANCH  32  35
ATOM     35  C   UNL     1       4.508  -2.599  27.819  0.00  0.00    -0.018 A 
ATOM     36  C   UNL     1       3.106  -2.605  27.680  0.00  0.00    +0.009 A 
ATOM     37  C   UNL     1       2.288  -3.570  28.294  0.00  0.00    +0.005 A 
ATOM     38  C   UNL     1       2.842  -4.573  29.086  0.00  0.00    -0.037 A 
ATOM     39  C   UNL     1       4.218  -4.545  29.312  0.00  0.00    +0.005 A 
ATOM     40  C   UNL     1       5.030  -3.579  28.690  0.00  0.00    +0.009 A 
BRANCH  38  41
ATOM     41  C   UNL     1       1.987  -5.660  29.675  0.00  0.00    +0.155 C 
BRANCH  41  42
ATOM     42  C   UNL     1       2.374  -7.053  29.204  0.00  0.00    +0.311 C 
ATOM     43  O   UNL     1       3.284  -7.703  29.704  0.00  0.00    -0.250 OA
BRANCH  42  44
ATOM     44  O   UNL     1       1.584  -7.439  28.166  0.00  0.00    -0.468 OA
ATOM     45  C   UNL     1       0.816  -8.608  28.450  0.00  0.00    +0.280 C 
ENDBRANCH  42  44
ENDBRANCH  41  42
ENDBRANCH  38  41
ENDBRANCH  32  35
ENDBRANCH  28  29
ENDBRANCH   2  28
TORSDOF 14
ENDMDL
MODEL 7
REMARK VINA RESULT:      -6.3      1.773      2.367
REMARK  Name = 
REMARK  16 active torsions:
REMARK  status: ('A' for Active; 'I' for Inactive)
REMARK    1  A    between atoms: C_1  and  C_2
REMARK    2  A    between atoms: C_2  and  C_3
REMARK    3  A    between atoms: C_3  and  C_4
REMARK    4  A    between atoms: C_4  and  C_5
REMARK    5  A    between atoms: C_5  and  C_6
REMARK    6  A    between atoms: C_9  and  C_12
REMARK    7  A    between atoms: N_14  and  C_15
REMARK    8  A    between atoms: N_14  and  C_33
REMARK    9  A    between atoms: C_15  and  C_16
REMARK   10  A    between atoms: C_19  and  C_22
REMARK   11  A    between atoms: C_25  and  C_26
REMARK   12  A    between atoms: C_26  and  C_27
REMARK   13  A    between atoms: C_27  and  O_29
REMARK   14  A    between atoms: O_29  and  C_30
REMARK   15  A    between atoms: N_36  and  C_37
REMARK   16  A    between atoms: C_37  and  C_38
REMARK                            x       y       z     vdW  Elec       q    Type
REMARK                         _______ _______ _______ _____ _____    ______ ____
ROOT
ATOM      1  C   UNL     1       8.119  -3.295  23.222  0.00  0.00    +0.247 C 
ATOM      2  N   UNL     1       8.247  -3.618  24.610  0.00  0.00    -0.290 N 
ATOM      3  O   UNL     1       7.664  -4.042  22.361  0.00  0.00    -0.270 OA
ENDROOT
BRANCH   1   7
ATOM      4  C   UNL     1       9.628   0.433  23.432  0.00  0.00    -0.047 A 
ATOM      5  C   UNL     1      10.559  -0.618  23.301  0.00  0.00    +0.004 A 
ATOM      6  C   UNL     1      10.111  -1.887  22.953  0.00  0.00    +0.013 A 
ATOM      7  C   UNL     1       8.750  -2.049  22.711  0.00  0.00    +0.037 A 
ATOM      8  C   UNL     1       7.977  -0.947  22.361  0.00  0.00    +0.013 A 
ATOM      9  C   UNL     1       8.406   0.314  22.772  0.00  0.00    +0.004 A 
BRANCH   4  10
ATOM     10  C   UNL     1       9.935   1.493  24.470  0.00  0.00    +0.035 C 
BRANCH  10  11
ATOM     11  C   UNL     1       9.330   2.910  24.450  0.00  0.00    +0.005 C 
BRANCH  11  12
ATOM     12  C   UNL     1       9.905   4.085  23.625  0.00  0.00    +0.000 C 
BRANCH  12  14
ATOM     13  C   UNL     1      11.973   5.538  23.695  0.00  0.00    +0.004 C 
ATOM     14  C   UNL     1      11.411   4.151  23.337  0.00  0.00    -0.003 C 
ENDBRANCH  12  14
ENDBRANCH  11  12
ENDBRANCH  10  11
ENDBRANCH   4  10
ENDBRANCH   1   7
BRANCH   2  15
ATOM     15  C   UNL     1       7.881  -5.002  25.095  0.00  0.00    +0.079 C 
ATOM     16  C   UNL     1       6.491  -5.485  24.612  0.00  0.00    +0.038 C 
ATOM     17  C   UNL     1       5.361  -4.713  25.297  0.00  0.00    +0.086 C 
ATOM     18  N   UNL     1       5.338  -4.868  26.757  0.00  0.00    -0.295 NA
ATOM     19  C   UNL     1       6.671  -4.529  27.306  0.00  0.00    +0.086 C 
ATOM     20  C   UNL     1       7.843  -5.252  26.623  0.00  0.00    +0.038 C 
BRANCH  18  21
ATOM     21  C   UNL     1       4.915  -6.217  27.186  0.00  0.00    +0.158 C 
BRANCH  21  22
ATOM     22  C   UNL     1       3.585  -6.640  26.636  0.00  0.00    +0.121 A 
ATOM     23  N   UNL     1       3.441  -7.732  25.816  0.00  0.00    -0.347 N 
ATOM     24  H   UNL     1       4.190  -8.353  25.542  0.00  0.00    +0.167 HD
ATOM     25  C   UNL     1       2.121  -7.825  25.473  0.00  0.00    +0.104 A 
ATOM     26  C   UNL     1       1.506  -6.785  26.128  0.00  0.00    +0.130 A 
ATOM     27  N   UNL     1       2.418  -6.063  26.852  0.00  0.00    -0.239 NA
ENDBRANCH  21  22
ENDBRANCH  18  21
ENDBRANCH   2  15
BRANCH   2  28
ATOM     28  C   UNL     1       8.606  -2.608  25.665  0.00  0.00    +0.143 C 
BRANCH  28  29
ATOM     29  C   UNL     1       7.595  -1.491  25.872  0.00  0.00    -0.030 A 
ATOM     30  C   UNL     1       7.892  -0.347  26.607  0.00  0.00    +0.006 A 
ATOM     31  C   UNL     1       7.058   0.782  26.533  0.00  0.00    +0.009 A 
ATOM     32  C   UNL     1       5.928   0.825  25.690  0.00  0.00    -0.018 A 
ATOM     33  C   UNL     1       5.515  -0.417  25.178  0.00  0.00    +0.009 A 
ATOM     34  C   UNL     1       6.323  -1.560  25.291  0.00  0.00    +0.006 A 
BRANCH  32  35
ATOM     35  C   UNL     1       5.334   2.129  25.226  0.00  0.00    -0.018 A 
ATOM     36  C   UNL     1       5.715   2.739  24.015  0.00  0.00    +0.009 A 
ATOM     37  C   UNL     1       5.002   3.812  23.449  0.00  0.00    +0.005 A 
ATOM     38  C   UNL     1       3.874   4.329  24.082  0.00  0.00    -0.037 A 
ATOM     39  C   UNL     1       3.520   3.803  25.324  0.00  0.00    +0.005 A 
ATOM     40  C   UNL     1       4.235   2.726  25.880  0.00  0.00    +0.009 A 
BRANCH  38  41
ATOM     41  C   UNL     1       3.054   5.415  23.445  0.00  0.00    +0.155 C 
BRANCH  41  42
ATOM     42  C   UNL     1       2.358   4.975  22.167  0.00  0.00    +0.311 C 
ATOM     43  O   UNL     1       2.337   5.651  21.145  0.00  0.00    -0.250 OA
BRANCH  42  44
ATOM     44  O   UNL     1       1.772   3.760  22.341  0.00  0.00    -0.468 OA
ATOM     45  C   UNL     1       1.864   2.923  21.188  0.00  0.00    +0.280 C 
ENDBRANCH  42  44
ENDBRANCH  41  42
ENDBRANCH  38  41
ENDBRANCH  32  35
ENDBRANCH  28  29
ENDBRANCH   2  28
TORSDOF 14
ENDMDL
MODEL 8
REMARK VINA RESULT:      -6.0      3.406      5.831
REMARK  Name = 
REMARK  16 active torsions:
REMARK  status: ('A' for Active; 'I' for Inactive)
REMARK    1  A    between atoms: C_1  and  C_2
REMARK    2  A    between atoms: C_2  and  C_3
REMARK    3  A    between atoms: C_3  and  C_4
REMARK    4  A    between atoms: C_4  and  C_5
REMARK    5  A    between atoms: C_5  and  C_6
REMARK    6  A    between atoms: C_9  and  C_12
REMARK    7  A    between atoms: N_14  and  C_15
REMARK    8  A    between atoms: N_14  and  C_33
REMARK    9  A    between atoms: C_15  and  C_16
REMARK   10  A    between atoms: C_19  and  C_22
REMARK   11  A    between atoms: C_25  and  C_26
REMARK   12  A    between atoms: C_26  and  C_27
REMARK   13  A    between atoms: C_27  and  O_29
REMARK   14  A    between atoms: O_29  and  C_30
REMARK   15  A    between atoms: N_36  and  C_37
REMARK   16  A    between atoms: C_37  and  C_38
REMARK                            x       y       z     vdW  Elec       q    Type
REMARK                         _______ _______ _______ _____ _____    ______ ____
ROOT
ATOM      1  C   UNL     1       9.209   0.378  22.055  0.00  0.00    +0.247 C 
ATOM      2  N   UNL     1       9.472  -0.425  23.211  0.00  0.00    -0.290 N 
ATOM      3  O   UNL     1       9.058  -0.052  20.916  0.00  0.00    -0.270 OA
ENDROOT
BRANCH   1   7
ATOM      4  C   UNL     1       8.890   3.974  23.840  0.00  0.00    -0.047 A 
ATOM      5  C   UNL     1      10.192   3.454  23.695  0.00  0.00    +0.004 A 
ATOM      6  C   UNL     1      10.403   2.365  22.859  0.00  0.00    +0.013 A 
ATOM      7  C   UNL     1       9.307   1.857  22.168  0.00  0.00    +0.037 A 
ATOM      8  C   UNL     1       8.199   2.668  21.944  0.00  0.00    +0.013 A 
ATOM      9  C   UNL     1       7.965   3.720  22.829  0.00  0.00    +0.004 A 
BRANCH   4  10
ATOM     10  C   UNL     1       8.533   4.560  25.191  0.00  0.00    +0.035 C 
BRANCH  10  11
ATOM     11  C   UNL     1       7.574   3.885  26.190  0.00  0.00    +0.005 C 
BRANCH  11  12
ATOM     12  C   UNL     1       6.053   3.732  25.960  0.00  0.00    +0.000 C 
BRANCH  12  14
ATOM     13  C   UNL     1       5.931   3.204  28.430  0.00  0.00    +0.004 C 
ATOM     14  C   UNL     1       5.120   3.495  27.156  0.00  0.00    -0.003 C 
ENDBRANCH  12  14
ENDBRANCH  11  12
ENDBRANCH  10  11
ENDBRANCH   4  10
ENDBRANCH   1   7
BRANCH   2  15
ATOM     15  C   UNL     1       9.670  -1.915  23.059  0.00  0.00    +0.079 C 
ATOM     16  C   UNL     1       8.547  -2.616  22.257  0.00  0.00    +0.038 C 
ATOM     17  C   UNL     1       7.236  -2.653  23.045  0.00  0.00    +0.086 C 
ATOM     18  N   UNL     1       7.327  -3.394  24.310  0.00  0.00    -0.295 NA
ATOM     19  C   UNL     1       8.454  -2.862  25.109  0.00  0.00    +0.086 C 
ATOM     20  C   UNL     1       9.786  -2.769  24.346  0.00  0.00    +0.038 C 
BRANCH  18  21
ATOM     21  C   UNL     1       7.456  -4.853  24.115  0.00  0.00    +0.158 C 
BRANCH  21  22
ATOM     22  C   UNL     1       6.267  -5.637  24.588  0.00  0.00    +0.121 A 
ATOM     23  N   UNL     1       6.036  -5.893  25.917  0.00  0.00    -0.347 N 
ATOM     24  H   UNL     1       6.609  -5.560  26.680  0.00  0.00    +0.167 HD
ATOM     25  C   UNL     1       4.897  -6.646  26.005  0.00  0.00    +0.104 A 
ATOM     26  C   UNL     1       4.467  -6.795  24.709  0.00  0.00    +0.130 A 
ATOM     27  N   UNL     1       5.314  -6.160  23.840  0.00  0.00    -0.239 NA
ENDBRANCH  21  22
ENDBRANCH  18  21
ENDBRANCH   2  15
BRANCH   2  28
ATOM     28  C   UNL     1       9.436   0.110  24.616  0.00  0.00    +0.143 C 
BRANCH  28  29
ATOM     29  C   UNL     1       8.051   0.248  25.228  0.00  0.00    -0.030 A 
ATOM     30  C   UNL     1       6.909   0.420  24.452  0.00  0.00    +0.006 A 
ATOM     31  C   UNL     1       5.633   0.247  25.016  0.00  0.00    +0.009 A 
ATOM     32  C   UNL     1       5.454  -0.148  26.358  0.00  0.00    -0.018 A 
ATOM     33  C   UNL     1       6.599  -0.052  27.168  0.00  0.00    +0.009 A 
ATOM     34  C   UNL     1       7.871   0.168  26.615  0.00  0.00    +0.006 A 
BRANCH  32  35
ATOM     35  C   UNL     1       4.183  -0.802  26.831  0.00  0.00    -0.018 A 
ATOM     36  C   UNL     1       3.753  -2.051  26.341  0.00  0.00    +0.009 A 
ATOM     37  C   UNL     1       2.715  -2.785  26.942  0.00  0.00    +0.005 A 
ATOM     38  C   UNL     1       2.051  -2.291  28.062  0.00  0.00    -0.037 A 
ATOM     39  C   UNL     1       2.395  -1.020  28.521  0.00  0.00    +0.005 A 
ATOM     40  C   UNL     1       3.439  -0.295  27.917  0.00  0.00    +0.009 A 
BRANCH  38  41
ATOM     41  C   UNL     1       1.001  -3.105  28.765  0.00  0.00    +0.155 C 
BRANCH  41  42
ATOM     42  C   UNL     1       1.469  -4.503  29.136  0.00  0.00    +0.311 C 
ATOM     43  O   UNL     1       0.963  -5.524  28.684  0.00  0.00    -0.250 OA
BRANCH  42  44
ATOM     44  O   UNL     1       2.494  -4.439  30.029  0.00  0.00    -0.468 OA
ATOM     45  C   UNL     1       3.544  -5.363  29.743  0.00  0.00    +0.280 C 
ENDBRANCH  42  44
ENDBRANCH  41  42
ENDBRANCH  38  41
ENDBRANCH  32  35
ENDBRANCH  28  29
ENDBRANCH   2  28
TORSDOF 14
ENDMDL
MODEL 9
REMARK VINA RESULT:      -6.0      3.783      6.714
REMARK  Name = 
REMARK  16 active torsions:
REMARK  status: ('A' for Active; 'I' for Inactive)
REMARK    1  A    between atoms: C_1  and  C_2
REMARK    2  A    between atoms: C_2  and  C_3
REMARK    3  A    between atoms: C_3  and  C_4
REMARK    4  A    between atoms: C_4  and  C_5
REMARK    5  A    between atoms: C_5  and  C_6
REMARK    6  A    between atoms: C_9  and  C_12
REMARK    7  A    between atoms: N_14  and  C_15
REMARK    8  A    between atoms: N_14  and  C_33
REMARK    9  A    between atoms: C_15  and  C_16
REMARK   10  A    between atoms: C_19  and  C_22
REMARK   11  A    between atoms: C_25  and  C_26
REMARK   12  A    between atoms: C_26  and  C_27
REMARK   13  A    between atoms: C_27  and  O_29
REMARK   14  A    between atoms: O_29  and  C_30
REMARK   15  A    between atoms: N_36  and  C_37
REMARK   16  A    between atoms: C_37  and  C_38
REMARK                            x       y       z     vdW  Elec       q    Type
REMARK                         _______ _______ _______ _____ _____    ______ ____
ROOT
ATOM      1  C   UNL     1       4.437  -2.551  28.068  0.00  0.00    +0.247 C 
ATOM      2  N   UNL     1       4.680  -2.967  26.721  0.00  0.00    -0.290 N 
ATOM      3  O   UNL     1       4.571  -3.259  29.062  0.00  0.00    -0.270 OA
ENDROOT
BRANCH   1   7
ATOM      4  C   UNL     1       3.412   1.262  27.271  0.00  0.00    -0.047 A 
ATOM      5  C   UNL     1       2.399   0.292  27.124  0.00  0.00    +0.004 A 
ATOM      6  C   UNL     1       2.598  -0.985  27.635  0.00  0.00    +0.013 A 
ATOM      7  C   UNL     1       3.789  -1.234  28.310  0.00  0.00    +0.037 A 
ATOM      8  C   UNL     1       4.504  -0.175  28.860  0.00  0.00    +0.013 A 
ATOM      9  C   UNL     1       4.343   1.090  28.295  0.00  0.00    +0.004 A 
BRANCH   4  10
ATOM     10  C   UNL     1       3.550   2.281  26.160  0.00  0.00    +0.035 C 
BRANCH  10  11
ATOM     11  C   UNL     1       4.640   2.219  25.072  0.00  0.00    +0.005 C 
BRANCH  11  12
ATOM     12  C   UNL     1       5.028   3.410  24.166  0.00  0.00    +0.000 C 
BRANCH  12  14
ATOM     13  C   UNL     1       6.479   2.864  22.169  0.00  0.00    +0.004 C 
ATOM     14  C   UNL     1       5.062   3.232  22.642  0.00  0.00    -0.003 C 
ENDBRANCH  12  14
ENDBRANCH  11  12
ENDBRANCH  10  11
ENDBRANCH   4  10
ENDBRANCH   1   7
BRANCH   2  15
ATOM     15  C   UNL     1       5.056  -4.402  26.435  0.00  0.00    +0.079 C 
ATOM     16  C   UNL     1       5.349  -4.685  24.941  0.00  0.00    +0.038 C 
ATOM     17  C   UNL     1       4.072  -4.627  24.099  0.00  0.00    +0.086 C 
ATOM     18  N   UNL     1       3.061  -5.618  24.489  0.00  0.00    -0.295 NA
ATOM     19  C   UNL     1       2.790  -5.496  25.940  0.00  0.00    +0.086 C 
ATOM     20  C   UNL     1       4.048  -5.511  26.825  0.00  0.00    +0.038 C 
BRANCH  18  21
ATOM     21  C   UNL     1       3.442  -7.000  24.134  0.00  0.00    +0.158 C 
BRANCH  21  22
ATOM     22  C   UNL     1       2.333  -7.997  24.298  0.00  0.00    +0.121 A 
ATOM     23  N   UNL     1       2.298  -8.896  25.336  0.00  0.00    -0.347 N 
ATOM     24  H   UNL     1       2.979  -8.947  26.081  0.00  0.00    +0.167 HD
ATOM     25  C   UNL     1       1.183  -9.671  25.179  0.00  0.00    +0.104 A 
ATOM     26  C   UNL     1       0.566  -9.187  24.051  0.00  0.00    +0.130 A 
ATOM     27  N   UNL     1       1.279  -8.146  23.518  0.00  0.00    -0.239 NA
ENDBRANCH  21  22
ENDBRANCH  18  21
ENDBRANCH   2  15
BRANCH   2  28
ATOM     28  C   UNL     1       4.713  -2.017  25.555  0.00  0.00    +0.143 C 
BRANCH  28  29
ATOM     29  C   UNL     1       6.050  -1.335  25.305  0.00  0.00    -0.030 A 
ATOM     30  C   UNL     1       6.521  -1.072  24.022  0.00  0.00    +0.006 A 
ATOM     31  C   UNL     1       7.598  -0.190  23.827  0.00  0.00    +0.009 A 
ATOM     32  C   UNL     1       8.210   0.494  24.898  0.00  0.00    -0.018 A 
ATOM     33  C   UNL     1       7.891   0.009  26.178  0.00  0.00    +0.009 A 
ATOM     34  C   UNL     1       6.847  -0.910  26.374  0.00  0.00    +0.006 A 
BRANCH  32  35
ATOM     35  C   UNL     1       8.989   1.765  24.687  0.00  0.00    -0.018 A 
ATOM     36  C   UNL     1      10.176   1.801  23.928  0.00  0.00    +0.009 A 
ATOM     37  C   UNL     1      10.775   3.004  23.515  0.00  0.00    +0.005 A 
ATOM     38  C   UNL     1      10.213   4.233  23.854  0.00  0.00    -0.037 A 
ATOM     39  C   UNL     1       9.086   4.233  24.676  0.00  0.00    +0.005 A 
ATOM     40  C   UNL     1       8.489   3.025  25.079  0.00  0.00    +0.009 A 
BRANCH  38  41
ATOM     41  C   UNL     1      10.795   5.522  23.346  0.00  0.00    +0.155 C 
BRANCH  41  42
ATOM     42  C   UNL     1      12.020   5.978  24.121  0.00  0.00    +0.311 C 
ATOM     43  O   UNL     1      11.966   6.743  25.077  0.00  0.00    -0.250 OA
BRANCH  42  44
ATOM     44  O   UNL     1      13.148   5.430  23.592  0.00  0.00    -0.468 OA
ATOM     45  C   UNL     1      13.239   5.594  22.177  0.00  0.00    +0.280 C 
ENDBRANCH  42  44
ENDBRANCH  41  42
ENDBRANCH  38  41
ENDBRANCH  32  35
ENDBRANCH  28  29
ENDBRANCH   2  28
TORSDOF 14
ENDMDL
