MODEL 1
REMARK VINA RESULT:      -5.3      0.000      0.000
REMARK  Name = 
REMARK  12 active torsions:
REMARK  status: ('A' for Active; 'I' for Inactive)
REMARK    1  A    between atoms: O_1  and  C_2
REMARK    2  A    between atoms: C_2  and  C_3
REMARK    3  A    between atoms: C_3  and  C_4
REMARK    4  A    between atoms: C_4  and  O_6
REMARK    5  A    between atoms: C_4  and  C_7
REMARK    6  A    between atoms: C_7  and  O_9
REMARK    7  A    between atoms: C_7  and  C_10
REMARK    8  A    between atoms: C_10  and  O_12
REMARK    9  A    between atoms: C_10  and  C_13
REMARK   10  A    between atoms: C_14  and  P_15
REMARK   11  A    between atoms: P_15  and  O_16
REMARK   12  A    between atoms: P_15  and  O_17
REMARK                            x       y       z     vdW  Elec       q    Type
REMARK                         _______ _______ _______ _____ _____    ______ ____
ROOT
ATOM      1  C   UNL     1       9.978   2.463  22.490  0.00  0.00    +0.169 C 
ENDROOT
BRANCH   1   2
ATOM      2  C   UNL     1      10.184   1.067  23.028  0.00  0.00    +0.014 C 
ATOM      3  C   UNL     1       9.462  -0.008  22.658  0.00  0.00    +0.095 C 
BRANCH   3   4
ATOM      4  P   UNL     1       9.748  -1.682  23.340  0.00  0.00    +0.351 P 
ATOM      5  O   UNL     1       9.990  -3.098  23.917  0.00  0.00    -0.254 OA
BRANCH   4   6
ATOM      6  O   UNL     1      10.763  -1.954  22.076  0.00  0.00    -0.321 OA
ATOM      7  H   UNL     1      10.385  -1.864  21.187  0.00  0.00    +0.220 HD
ENDBRANCH   4   6
BRANCH   4   8
ATOM      8  O   UNL     1       8.340  -2.076  22.603  0.00  0.00    -0.321 OA
ATOM      9  H   UNL     1       8.466  -1.980  21.636  0.00  0.00    +0.220 HD
ENDBRANCH   4   8
ENDBRANCH   3   4
ENDBRANCH   1   2
BRANCH   1  10
ATOM     10  O   UNL     1       9.006   2.391  21.449  0.00  0.00    -0.385 OA
ATOM     11  H   UNL     1       9.141   3.179  20.896  0.00  0.00    +0.210 HD
ENDBRANCH   1  10
BRANCH   1  12
ATOM     12  C   UNL     1       9.514   3.427  23.606  0.00  0.00    +0.175 C 
BRANCH  12  13
ATOM     13  O   UNL     1       9.347   2.744  24.850  0.00  0.00    -0.386 OA
ATOM     14  H   UNL     1       9.067   1.837  24.652  0.00  0.00    +0.210 HD
ENDBRANCH  12  13
BRANCH  12  15
ATOM     15  C   UNL     1      10.508   4.621  23.779  0.00  0.00    +0.148 C 
BRANCH  15  16
ATOM     16  O   UNL     1      10.048   5.752  23.037  0.00  0.00    -0.389 OA
ATOM     17  H   UNL     1       9.369   5.419  22.426  0.00  0.00    +0.210 HD
ENDBRANCH  15  16
BRANCH  15  18
ATOM     18  C   UNL     1      11.916   4.221  23.314  0.00  0.00    +0.062 C 
BRANCH  18  19
ATOM     19  C   UNL     1      12.802   5.412  22.967  0.00  0.00    +0.158 C 
BRANCH  19  20
ATOM     20  O   UNL     1      14.168   5.089  23.180  0.00  0.00    -0.395 OA
ATOM     21  H   UNL     1      14.253   4.818  24.117  0.00  0.00    +0.209 HD
ENDBRANCH  19  20
ENDBRANCH  18  19
ENDBRANCH  15  18
ENDBRANCH  12  15
ENDBRANCH   1  12
TORSDOF 12
ENDMDL
MODEL 2
REMARK VINA RESULT:      -5.2      3.299      4.431
REMARK  Name = 
REMARK  12 active torsions:
REMARK  status: ('A' for Active; 'I' for Inactive)
REMARK    1  A    between atoms: O_1  and  C_2
REMARK    2  A    between atoms: C_2  and  C_3
REMARK    3  A    between atoms: C_3  and  C_4
REMARK    4  A    between atoms: C_4  and  O_6
REMARK    5  A    between atoms: C_4  and  C_7
REMARK    6  A    between atoms: C_7  and  O_9
REMARK    7  A    between atoms: C_7  and  C_10
REMARK    8  A    between atoms: C_10  and  O_12
REMARK    9  A    between atoms: C_10  and  C_13
REMARK   10  A    between atoms: C_14  and  P_15
REMARK   11  A    between atoms: P_15  and  O_16
REMARK   12  A    between atoms: P_15  and  O_17
REMARK                            x       y       z     vdW  Elec       q    Type
REMARK                         _______ _______ _______ _____ _____    ______ ____
ROOT
ATOM      1  C   UNL     1      10.084  -1.348  22.939  0.00  0.00    +0.169 C 
ENDROOT
BRANCH   1   2
ATOM      2  C   UNL     1       9.324  -2.437  23.658  0.00  0.00    +0.014 C 
ATOM      3  C   UNL     1       9.891  -3.379  24.434  0.00  0.00    +0.095 C 
BRANCH   3   4
ATOM      4  P   UNL     1       8.927  -4.682  25.286  0.00  0.00    +0.351 P 
ATOM      5  O   UNL     1       8.112  -5.783  26.006  0.00  0.00    -0.254 OA
BRANCH   4   6
ATOM      6  O   UNL     1      10.316  -5.557  25.381  0.00  0.00    -0.321 OA
ATOM      7  H   UNL     1      10.312  -6.314  25.988  0.00  0.00    +0.220 HD
ENDBRANCH   4   6
BRANCH   4   8
ATOM      8  O   UNL     1       8.463  -5.134  23.782  0.00  0.00    -0.321 OA
ATOM      9  H   UNL     1       9.179  -5.681  23.395  0.00  0.00    +0.220 HD
ENDBRANCH   4   8
ENDBRANCH   3   4
ENDBRANCH   1   2
BRANCH   1  10
ATOM     10  O   UNL     1      10.070  -1.653  21.546  0.00  0.00    -0.385 OA
ATOM     11  H   UNL     1      10.436  -2.550  21.460  0.00  0.00    +0.210 HD
ENDBRANCH   1  10
BRANCH   1  12
ATOM     12  C   UNL     1       9.454   0.039  23.202  0.00  0.00    +0.175 C 
BRANCH  12  13
ATOM     13  O   UNL     1      10.453   1.058  23.284  0.00  0.00    -0.386 OA
ATOM     14  H   UNL     1      10.982   1.017  22.472  0.00  0.00    +0.210 HD
ENDBRANCH  12  13
BRANCH  12  15
ATOM     15  C   UNL     1       8.403   0.406  22.106  0.00  0.00    +0.148 C 
BRANCH  15  16
ATOM     16  O   UNL     1       9.056   0.985  20.975  0.00  0.00    -0.389 OA
ATOM     17  H   UNL     1       9.391   0.242  20.444  0.00  0.00    +0.210 HD
ENDBRANCH  15  16
BRANCH  15  18
ATOM     18  C   UNL     1       7.357   1.382  22.669  0.00  0.00    +0.062 C 
BRANCH  18  19
ATOM     19  C   UNL     1       7.434   2.775  22.055  0.00  0.00    +0.158 C 
BRANCH  19  20
ATOM     20  O   UNL     1       8.664   3.397  22.396  0.00  0.00    -0.395 OA
ATOM     21  H   UNL     1       9.358   2.969  21.854  0.00  0.00    +0.209 HD
ENDBRANCH  19  20
ENDBRANCH  18  19
ENDBRANCH  15  18
ENDBRANCH  12  15
ENDBRANCH   1  12
TORSDOF 12
ENDMDL
MODEL 3
REMARK VINA RESULT:      -5.2      2.921      4.935
REMARK  Name = 
REMARK  12 active torsions:
REMARK  status: ('A' for Active; 'I' for Inactive)
REMARK    1  A    between atoms: O_1  and  C_2
REMARK    2  A    between atoms: C_2  and  C_3
REMARK    3  A    between atoms: C_3  and  C_4
REMARK    4  A    between atoms: C_4  and  O_6
REMARK    5  A    between atoms: C_4  and  C_7
REMARK    6  A    between atoms: C_7  and  O_9
REMARK    7  A    between atoms: C_7  and  C_10
REMARK    8  A    between atoms: C_10  and  O_12
REMARK    9  A    between atoms: C_10  and  C_13
REMARK   10  A    between atoms: C_14  and  P_15
REMARK   11  A    between atoms: P_15  and  O_16
REMARK   12  A    between atoms: P_15  and  O_17
REMARK                            x       y       z     vdW  Elec       q    Type
REMARK                         _______ _______ _______ _____ _____    ______ ____
ROOT
ATOM      1  C   UNL     1       8.589  -2.592  22.593  0.00  0.00    +0.169 C 
ENDROOT
BRANCH   1   2
ATOM      2  C   UNL     1       8.461  -3.164  23.985  0.00  0.00    +0.014 C 
ATOM      3  C   UNL     1       8.254  -4.466  24.259  0.00  0.00    +0.095 C 
BRANCH   3   4
ATOM      4  P   UNL     1       8.103  -5.113  25.965  0.00  0.00    +0.351 P 
ATOM      5  O   UNL     1       7.975  -5.659  27.408  0.00  0.00    -0.254 OA
BRANCH   4   6
ATOM      6  O   UNL     1       8.737  -3.689  26.492  0.00  0.00    -0.321 OA
ATOM      7  H   UNL     1       8.286  -3.262  27.237  0.00  0.00    +0.220 HD
ENDBRANCH   4   6
BRANCH   4   8
ATOM      8  O   UNL     1       9.506  -5.895  25.649  0.00  0.00    -0.321 OA
ATOM      9  H   UNL     1       9.405  -6.367  24.795  0.00  0.00    +0.220 HD
ENDBRANCH   4   8
ENDBRANCH   3   4
ENDBRANCH   1   2
BRANCH   1  10
ATOM     10  O   UNL     1       7.311  -2.086  22.210  0.00  0.00    -0.385 OA
ATOM     11  H   UNL     1       7.419  -1.724  21.314  0.00  0.00    +0.210 HD
ENDBRANCH   1  10
BRANCH   1  12
ATOM     12  C   UNL     1       9.657  -1.476  22.544  0.00  0.00    +0.175 C 
BRANCH  12  13
ATOM     13  O   UNL     1       9.829  -0.976  21.216  0.00  0.00    -0.386 OA
ATOM     14  H   UNL     1      10.406  -1.596  20.742  0.00  0.00    +0.210 HD
ENDBRANCH  12  13
BRANCH  12  15
ATOM     15  C   UNL     1       9.304  -0.305  23.516  0.00  0.00    +0.148 C 
BRANCH  15  16
ATOM     16  O   UNL     1       8.113   0.352  23.080  0.00  0.00    -0.389 OA
ATOM     17  H   UNL     1       8.213   0.491  22.123  0.00  0.00    +0.210 HD
ENDBRANCH  15  16
BRANCH  15  18
ATOM     18  C   UNL     1      10.465   0.700  23.590  0.00  0.00    +0.062 C 
BRANCH  18  19
ATOM     19  C   UNL     1      10.119   2.069  23.013  0.00  0.00    +0.158 C 
BRANCH  19  20
ATOM     20  O   UNL     1      10.101   2.015  21.595  0.00  0.00    -0.395 OA
ATOM     21  H   UNL     1      11.000   2.255  21.290  0.00  0.00    +0.209 HD
ENDBRANCH  19  20
ENDBRANCH  18  19
ENDBRANCH  15  18
ENDBRANCH  12  15
ENDBRANCH   1  12
TORSDOF 12
ENDMDL
MODEL 4
REMARK VINA RESULT:      -5.0      5.112      8.453
REMARK  Name = 
REMARK  12 active torsions:
REMARK  status: ('A' for Active; 'I' for Inactive)
REMARK    1  A    between atoms: O_1  and  C_2
REMARK    2  A    between atoms: C_2  and  C_3
REMARK    3  A    between atoms: C_3  and  C_4
REMARK    4  A    between atoms: C_4  and  O_6
REMARK    5  A    between atoms: C_4  and  C_7
REMARK    6  A    between atoms: C_7  and  O_9
REMARK    7  A    between atoms: C_7  and  C_10
REMARK    8  A    between atoms: C_10  and  O_12
REMARK    9  A    between atoms: C_10  and  C_13
REMARK   10  A    between atoms: C_14  and  P_15
REMARK   11  A    between atoms: P_15  and  O_16
REMARK   12  A    between atoms: P_15  and  O_17
REMARK                            x       y       z     vdW  Elec       q    Type
REMARK                         _______ _______ _______ _____ _____    ______ ____
ROOT
ATOM      1  C   UNL     1       9.034  -4.230  24.922  0.00  0.00    +0.169 C 
ENDROOT
BRANCH   1   2
ATOM      2  C   UNL     1       9.385  -3.007  24.109  0.00  0.00    +0.014 C 
ATOM      3  C   UNL     1       8.677  -2.563  23.053  0.00  0.00    +0.095 C 
BRANCH   3   4
ATOM      4  P   UNL     1       9.143  -1.075  22.095  0.00  0.00    +0.351 P 
ATOM      5  O   UNL     1       9.537   0.184  21.284  0.00  0.00    -0.254 OA
BRANCH   4   6
ATOM      6  O   UNL     1      10.627  -1.753  21.887  0.00  0.00    -0.321 OA
ATOM      7  H   UNL     1      11.393  -1.178  22.043  0.00  0.00    +0.220 HD
ENDBRANCH   4   6
BRANCH   4   8
ATOM      8  O   UNL     1       9.402  -0.380  23.554  0.00  0.00    -0.321 OA
ATOM      9  H   UNL     1       8.742   0.335  23.672  0.00  0.00    +0.220 HD
ENDBRANCH   4   8
ENDBRANCH   3   4
ENDBRANCH   1   2
BRANCH   1  10
ATOM     10  O   UNL     1      10.141  -5.126  24.862  0.00  0.00    -0.385 OA
ATOM     11  H   UNL     1       9.904  -5.809  24.212  0.00  0.00    +0.210 HD
ENDBRANCH   1  10
BRANCH   1  12
ATOM     12  C   UNL     1       8.714  -3.852  26.387  0.00  0.00    +0.175 C 
BRANCH  12  13
ATOM     13  O   UNL     1       8.322  -2.483  26.499  0.00  0.00    -0.386 OA
ATOM     14  H   UNL     1       7.569  -2.343  25.902  0.00  0.00    +0.210 HD
ENDBRANCH  12  13
BRANCH  12  15
ATOM     15  C   UNL     1       7.608  -4.778  26.988  0.00  0.00    +0.148 C 
BRANCH  15  16
ATOM     16  O   UNL     1       8.073  -6.128  27.038  0.00  0.00    -0.389 OA
ATOM     17  H   UNL     1       7.320  -6.665  27.336  0.00  0.00    +0.210 HD
ENDBRANCH  15  16
BRANCH  15  18
ATOM     18  C   UNL     1       6.322  -4.693  26.150  0.00  0.00    +0.062 C 
BRANCH  18  19
ATOM     19  C   UNL     1       5.766  -6.056  25.752  0.00  0.00    +0.158 C 
BRANCH  19  20
ATOM     20  O   UNL     1       5.432  -6.808  26.909  0.00  0.00    -0.395 OA
ATOM     21  H   UNL     1       5.377  -7.746  26.631  0.00  0.00    +0.209 HD
ENDBRANCH  19  20
ENDBRANCH  18  19
ENDBRANCH  15  18
ENDBRANCH  12  15
ENDBRANCH   1  12
TORSDOF 12
ENDMDL
MODEL 5
REMARK VINA RESULT:      -5.0      3.354      5.624
REMARK  Name = 
REMARK  12 active torsions:
REMARK  status: ('A' for Active; 'I' for Inactive)
REMARK    1  A    between atoms: O_1  and  C_2
REMARK    2  A    between atoms: C_2  and  C_3
REMARK    3  A    between atoms: C_3  and  C_4
REMARK    4  A    between atoms: C_4  and  O_6
REMARK    5  A    between atoms: C_4  and  C_7
REMARK    6  A    between atoms: C_7  and  O_9
REMARK    7  A    between atoms: C_7  and  C_10
REMARK    8  A    between atoms: C_10  and  O_12
REMARK    9  A    between atoms: C_10  and  C_13
REMARK   10  A    between atoms: C_14  and  P_15
REMARK   11  A    between atoms: P_15  and  O_16
REMARK   12  A    between atoms: P_15  and  O_17
REMARK                            x       y       z     vdW  Elec       q    Type
REMARK                         _______ _______ _______ _____ _____    ______ ____
ROOT
ATOM      1  C   UNL     1       8.130  -3.108  22.956  0.00  0.00    +0.169 C 
ENDROOT
BRANCH   1   2
ATOM      2  C   UNL     1       7.881  -4.075  24.089  0.00  0.00    +0.014 C 
ATOM      3  C   UNL     1       7.880  -3.738  25.393  0.00  0.00    +0.095 C 
BRANCH   3   4
ATOM      4  P   UNL     1       7.576  -4.947  26.733  0.00  0.00    +0.351 P 
ATOM      5  O   UNL     1       7.319  -5.969  27.867  0.00  0.00    -0.254 OA
BRANCH   4   6
ATOM      6  O   UNL     1       8.832  -5.826  26.139  0.00  0.00    -0.321 OA
ATOM      7  H   UNL     1       8.689  -6.267  25.286  0.00  0.00    +0.220 HD
ENDBRANCH   4   6
BRANCH   4   8
ATOM      8  O   UNL     1       6.396  -5.529  25.758  0.00  0.00    -0.321 OA
ATOM      9  H   UNL     1       6.267  -4.891  25.025  0.00  0.00    +0.220 HD
ENDBRANCH   4   8
ENDBRANCH   3   4
ENDBRANCH   1   2
BRANCH   1  10
ATOM     10  O   UNL     1       6.898  -2.450  22.665  0.00  0.00    -0.385 OA
ATOM     11  H   UNL     1       6.709  -2.629  21.728  0.00  0.00    +0.210 HD
ENDBRANCH   1  10
BRANCH   1  12
ATOM     12  C   UNL     1       9.223  -2.081  23.329  0.00  0.00    +0.175 C 
BRANCH  12  13
ATOM     13  O   UNL     1      10.526  -2.666  23.284  0.00  0.00    -0.386 OA
ATOM     14  H   UNL     1      10.512  -3.457  23.847  0.00  0.00    +0.210 HD
ENDBRANCH  12  13
BRANCH  12  15
ATOM     15  C   UNL     1       9.168  -0.825  22.400  0.00  0.00    +0.148 C 
BRANCH  15  16
ATOM     16  O   UNL     1       9.419  -1.205  21.046  0.00  0.00    -0.389 OA
ATOM     17  H   UNL     1       9.202  -0.430  20.501  0.00  0.00    +0.210 HD
ENDBRANCH  15  16
BRANCH  15  18
ATOM     18  C   UNL     1      10.196   0.224  22.854  0.00  0.00    +0.062 C 
BRANCH  18  19
ATOM     19  C   UNL     1       9.987   1.593  22.215  0.00  0.00    +0.158 C 
BRANCH  19  20
ATOM     20  O   UNL     1       9.101   1.492  21.111  0.00  0.00    -0.395 OA
ATOM     21  H   UNL     1       8.303   2.012  21.339  0.00  0.00    +0.209 HD
ENDBRANCH  19  20
ENDBRANCH  18  19
ENDBRANCH  15  18
ENDBRANCH  12  15
ENDBRANCH   1  12
TORSDOF 12
ENDMDL
MODEL 6
REMARK VINA RESULT:      -4.9      3.740      6.135
REMARK  Name = 
REMARK  12 active torsions:
REMARK  status: ('A' for Active; 'I' for Inactive)
REMARK    1  A    between atoms: O_1  and  C_2
REMARK    2  A    between atoms: C_2  and  C_3
REMARK    3  A    between atoms: C_3  and  C_4
REMARK    4  A    between atoms: C_4  and  O_6
REMARK    5  A    between atoms: C_4  and  C_7
REMARK    6  A    between atoms: C_7  and  O_9
REMARK    7  A    between atoms: C_7  and  C_10
REMARK    8  A    between atoms: C_10  and  O_12
REMARK    9  A    between atoms: C_10  and  C_13
REMARK   10  A    between atoms: C_14  and  P_15
REMARK   11  A    between atoms: P_15  and  O_16
REMARK   12  A    between atoms: P_15  and  O_17
REMARK                            x       y       z     vdW  Elec       q    Type
REMARK                         _______ _______ _______ _____ _____    ______ ____
ROOT
ATOM      1  C   UNL     1       8.755  -2.763  23.907  0.00  0.00    +0.169 C 
ENDROOT
BRANCH   1   2
ATOM      2  C   UNL     1       7.994  -3.902  24.544  0.00  0.00    +0.014 C 
ATOM      3  C   UNL     1       7.685  -3.975  25.853  0.00  0.00    +0.095 C 
BRANCH   3   4
ATOM      4  P   UNL     1       6.761  -5.378  26.581  0.00  0.00    +0.351 P 
ATOM      5  O   UNL     1       5.979  -6.564  27.196  0.00  0.00    -0.254 OA
BRANCH   4   6
ATOM      6  O   UNL     1       6.169  -4.325  27.697  0.00  0.00    -0.321 OA
ATOM      7  H   UNL     1       5.204  -4.252  27.757  0.00  0.00    +0.220 HD
ENDBRANCH   4   6
BRANCH   4   8
ATOM      8  O   UNL     1       8.171  -5.746  27.325  0.00  0.00    -0.321 OA
ATOM      9  H   UNL     1       8.571  -4.911  27.649  0.00  0.00    +0.220 HD
ENDBRANCH   4   8
ENDBRANCH   3   4
ENDBRANCH   1   2
BRANCH   1  10
ATOM     10  O   UNL     1      10.143  -3.092  23.944  0.00  0.00    -0.385 OA
ATOM     11  H   UNL     1      10.191  -4.050  24.100  0.00  0.00    +0.210 HD
ENDBRANCH   1  10
BRANCH   1  12
ATOM     12  C   UNL     1       8.287  -2.524  22.453  0.00  0.00    +0.175 C 
BRANCH  12  13
ATOM     13  O   UNL     1       6.872  -2.338  22.385  0.00  0.00    -0.386 OA
ATOM     14  H   UNL     1       6.705  -1.553  21.838  0.00  0.00    +0.210 HD
ENDBRANCH  12  13
BRANCH  12  15
ATOM     15  C   UNL     1       9.021  -1.304  21.810  0.00  0.00    +0.148 C 
BRANCH  15  16
ATOM     16  O   UNL     1      10.414  -1.589  21.668  0.00  0.00    -0.389 OA
ATOM     17  H   UNL     1      10.502  -2.555  21.735  0.00  0.00    +0.210 HD
ENDBRANCH  15  16
BRANCH  15  18
ATOM     18  C   UNL     1       8.825  -0.045  22.669  0.00  0.00    +0.062 C 
BRANCH  18  19
ATOM     19  C   UNL     1      10.130   0.669  23.007  0.00  0.00    +0.158 C 
BRANCH  19  20
ATOM     20  O   UNL     1      10.827  -0.035  24.023  0.00  0.00    -0.395 OA
ATOM     21  H   UNL     1      10.332  -0.864  24.186  0.00  0.00    +0.209 HD
ENDBRANCH  19  20
ENDBRANCH  18  19
ENDBRANCH  15  18
ENDBRANCH  12  15
ENDBRANCH   1  12
TORSDOF 12
ENDMDL
MODEL 7
REMARK VINA RESULT:      -4.9      3.592      6.778
REMARK  Name = 
REMARK  12 active torsions:
REMARK  status: ('A' for Active; 'I' for Inactive)
REMARK    1  A    between atoms: O_1  and  C_2
REMARK    2  A    between atoms: C_2  and  C_3
REMARK    3  A    between atoms: C_3  and  C_4
REMARK    4  A    between atoms: C_4  and  O_6
REMARK    5  A    between atoms: C_4  and  C_7
REMARK    6  A    between atoms: C_7  and  O_9
REMARK    7  A    between atoms: C_7  and  C_10
REMARK    8  A    between atoms: C_10  and  O_12
REMARK    9  A    between atoms: C_10  and  C_13
REMARK   10  A    between atoms: C_14  and  P_15
REMARK   11  A    between atoms: P_15  and  O_16
REMARK   12  A    between atoms: P_15  and  O_17
REMARK                            x       y       z     vdW  Elec       q    Type
REMARK                         _______ _______ _______ _____ _____    ______ ____
ROOT
ATOM      1  C   UNL     1       9.217  -1.488  21.797  0.00  0.00    +0.169 C 
ENDROOT
BRANCH   1   2
ATOM      2  C   UNL     1       8.971  -0.001  21.707  0.00  0.00    +0.014 C 
ATOM      3  C   UNL     1       7.998   0.654  22.369  0.00  0.00    +0.095 C 
BRANCH   3   4
ATOM      4  P   UNL     1       7.737   2.460  22.226  0.00  0.00    +0.351 P 
ATOM      5  O   UNL     1       7.516   3.987  22.104  0.00  0.00    -0.254 OA
BRANCH   4   6
ATOM      6  O   UNL     1       9.255   2.565  21.602  0.00  0.00    -0.321 OA
ATOM      7  H   UNL     1       9.985   2.306  22.186  0.00  0.00    +0.220 HD
ENDBRANCH   4   6
BRANCH   4   8
ATOM      8  O   UNL     1       8.130   2.507  23.815  0.00  0.00    -0.321 OA
ATOM      9  H   UNL     1       8.863   3.148  23.927  0.00  0.00    +0.220 HD
ENDBRANCH   4   8
ENDBRANCH   3   4
ENDBRANCH   1   2
BRANCH   1  10
ATOM     10  O   UNL     1      10.623  -1.691  21.923  0.00  0.00    -0.385 OA
ATOM     11  H   UNL     1      10.739  -2.603  22.240  0.00  0.00    +0.210 HD
ENDBRANCH   1  10
BRANCH   1  12
ATOM     12  C   UNL     1       8.465  -2.106  22.999  0.00  0.00    +0.175 C 
BRANCH  12  13
ATOM     13  O   UNL     1       7.866  -3.355  22.653  0.00  0.00    -0.386 OA
ATOM     14  H   UNL     1       8.424  -3.773  21.978  0.00  0.00    +0.210 HD
ENDBRANCH  12  13
BRANCH  12  15
ATOM     15  C   UNL     1       9.409  -2.286  24.232  0.00  0.00    +0.148 C 
BRANCH  15  16
ATOM     16  O   UNL     1      10.090  -3.539  24.147  0.00  0.00    -0.389 OA
ATOM     17  H   UNL     1      10.672  -3.481  23.369  0.00  0.00    +0.210 HD
ENDBRANCH  15  16
BRANCH  15  18
ATOM     18  C   UNL     1       8.606  -2.209  25.540  0.00  0.00    +0.062 C 
BRANCH  18  19
ATOM     19  C   UNL     1       8.486  -3.549  26.258  0.00  0.00    +0.158 C 
BRANCH  19  20
ATOM     20  O   UNL     1       7.672  -4.439  25.510  0.00  0.00    -0.395 OA
ATOM     21  H   UNL     1       7.879  -5.343  25.821  0.00  0.00    +0.209 HD
ENDBRANCH  19  20
ENDBRANCH  18  19
ENDBRANCH  15  18
ENDBRANCH  12  15
ENDBRANCH   1  12
TORSDOF 12
ENDMDL
MODEL 8
REMARK VINA RESULT:      -4.8      3.116      5.049
REMARK  Name = 
REMARK  12 active torsions:
REMARK  status: ('A' for Active; 'I' for Inactive)
REMARK    1  A    between atoms: O_1  and  C_2
REMARK    2  A    between atoms: C_2  and  C_3
REMARK    3  A    between atoms: C_3  and  C_4
REMARK    4  A    between atoms: C_4  and  O_6
REMARK    5  A    between atoms: C_4  and  C_7
REMARK    6  A    between atoms: C_7  and  O_9
REMARK    7  A    between atoms: C_7  and  C_10
REMARK    8  A    between atoms: C_10  and  O_12
REMARK    9  A    between atoms: C_10  and  C_13
REMARK   10  A    between atoms: C_14  and  P_15
REMARK   11  A    between atoms: P_15  and  O_16
REMARK   12  A    between atoms: P_15  and  O_17
REMARK                            x       y       z     vdW  Elec       q    Type
REMARK                         _______ _______ _______ _____ _____    ______ ____
ROOT
ATOM      1  C   UNL     1       8.779  -1.829  23.474  0.00  0.00    +0.169 C 
ENDROOT
BRANCH   1   2
ATOM      2  C   UNL     1       7.976  -2.734  22.570  0.00  0.00    +0.014 C 
ATOM      3  C   UNL     1       7.536  -3.960  22.912  0.00  0.00    +0.095 C 
BRANCH   3   4
ATOM      4  P   UNL     1       6.567  -5.022  21.780  0.00  0.00    +0.351 P 
ATOM      5  O   UNL     1       5.747  -5.920  20.822  0.00  0.00    -0.254 OA
BRANCH   4   6
ATOM      6  O   UNL     1       5.639  -3.706  21.443  0.00  0.00    -0.321 OA
ATOM      7  H   UNL     1       4.785  -3.874  21.014  0.00  0.00    +0.220 HD
ENDBRANCH   4   6
BRANCH   4   8
ATOM      8  O   UNL     1       5.789  -5.522  23.131  0.00  0.00    -0.321 OA
ATOM      9  H   UNL     1       6.354  -5.310  23.903  0.00  0.00    +0.220 HD
ENDBRANCH   4   8
ENDBRANCH   3   4
ENDBRANCH   1   2
BRANCH   1  10
ATOM     10  O   UNL     1       9.129  -2.575  24.638  0.00  0.00    -0.385 OA
ATOM     11  H   UNL     1      10.092  -2.486  24.740  0.00  0.00    +0.210 HD
ENDBRANCH   1  10
BRANCH   1  12
ATOM     12  C   UNL     1      10.046  -1.307  22.758  0.00  0.00    +0.175 C 
BRANCH  12  13
ATOM     13  O   UNL     1       9.994  -1.562  21.353  0.00  0.00    -0.386 OA
ATOM     14  H   UNL     1      10.905  -1.681  21.042  0.00  0.00    +0.210 HD
ENDBRANCH  12  13
BRANCH  12  15
ATOM     15  C   UNL     1      10.262   0.219  23.019  0.00  0.00    +0.148 C 
BRANCH  15  16
ATOM     16  O   UNL     1       9.507   0.632  24.159  0.00  0.00    -0.389 OA
ATOM     17  H   UNL     1       9.477   1.603  24.128  0.00  0.00    +0.210 HD
ENDBRANCH  15  16
BRANCH  15  18
ATOM     18  C   UNL     1       9.849   1.039  21.786  0.00  0.00    +0.062 C 
BRANCH  18  19
ATOM     19  C   UNL     1       8.628   1.921  22.025  0.00  0.00    +0.158 C 
BRANCH  19  20
ATOM     20  O   UNL     1       9.024   3.177  22.555  0.00  0.00    -0.395 OA
ATOM     21  H   UNL     1      10.001   3.212  22.502  0.00  0.00    +0.209 HD
ENDBRANCH  19  20
ENDBRANCH  18  19
ENDBRANCH  15  18
ENDBRANCH  12  15
ENDBRANCH   1  12
TORSDOF 12
ENDMDL
MODEL 9
REMARK VINA RESULT:      -4.8      2.541      4.055
REMARK  Name = 
REMARK  12 active torsions:
REMARK  status: ('A' for Active; 'I' for Inactive)
REMARK    1  A    between atoms: O_1  and  C_2
REMARK    2  A    between atoms: C_2  and  C_3
REMARK    3  A    between atoms: C_3  and  C_4
REMARK    4  A    between atoms: C_4  and  O_6
REMARK    5  A    between atoms: C_4  and  C_7
REMARK    6  A    between atoms: C_7  and  O_9
REMARK    7  A    between atoms: C_7  and  C_10
REMARK    8  A    between atoms: C_10  and  O_12
REMARK    9  A    between atoms: C_10  and  C_13
REMARK   10  A    between atoms: C_14  and  P_15
REMARK   11  A    between atoms: P_15  and  O_16
REMARK   12  A    between atoms: P_15  and  O_17
REMARK                            x       y       z     vdW  Elec       q    Type
REMARK                         _______ _______ _______ _____ _____    ______ ____
ROOT
ATOM      1  C   UNL     1      10.104   0.751  24.633  0.00  0.00    +0.169 C 
ENDROOT
BRANCH   1   2
ATOM      2  C   UNL     1       9.724  -0.626  24.141  0.00  0.00    +0.014 C 
ATOM      3  C   UNL     1       8.923  -1.480  24.806  0.00  0.00    +0.095 C 
BRANCH   3   4
ATOM      4  P   UNL     1       8.492  -3.141  24.171  0.00  0.00    +0.351 P 
ATOM      5  O   UNL     1       8.128  -4.547  23.635  0.00  0.00    -0.254 OA
BRANCH   4   6
ATOM      6  O   UNL     1      10.103  -3.470  24.122  0.00  0.00    -0.321 OA
ATOM      7  H   UNL     1      10.634  -2.949  23.499  0.00  0.00    +0.220 HD
ENDBRANCH   4   6
BRANCH   4   8
ATOM      8  O   UNL     1       8.356  -2.403  22.716  0.00  0.00    -0.321 OA
ATOM      9  H   UNL     1       7.799  -1.604  22.832  0.00  0.00    +0.220 HD
ENDBRANCH   4   8
ENDBRANCH   3   4
ENDBRANCH   1   2
BRANCH   1  10
ATOM     10  O   UNL     1      11.523   0.867  24.553  0.00  0.00    -0.385 OA
ATOM     11  H   UNL     1      11.824   0.139  23.982  0.00  0.00    +0.210 HD
ENDBRANCH   1  10
BRANCH   1  12
ATOM     12  C   UNL     1       9.417   1.852  23.793  0.00  0.00    +0.175 C 
BRANCH  12  13
ATOM     13  O   UNL     1      10.054   3.118  23.971  0.00  0.00    -0.386 OA
ATOM     14  H   UNL     1       9.443   3.802  23.655  0.00  0.00    +0.210 HD
ENDBRANCH  12  13
BRANCH  12  15
ATOM     15  C   UNL     1       9.384   1.477  22.276  0.00  0.00    +0.148 C 
BRANCH  15  16
ATOM     16  O   UNL     1      10.308   2.290  21.551  0.00  0.00    -0.389 OA
ATOM     17  H   UNL     1      10.517   1.803  20.736  0.00  0.00    +0.210 HD
ENDBRANCH  15  16
BRANCH  15  18
ATOM     18  C   UNL     1       7.966   1.654  21.709  0.00  0.00    +0.062 C 
BRANCH  18  19
ATOM     19  C   UNL     1       6.867   1.398  22.734  0.00  0.00    +0.158 C 
BRANCH  19  20
ATOM     20  O   UNL     1       6.507   0.025  22.738  0.00  0.00    -0.395 OA
ATOM     21  H   UNL     1       7.048  -0.409  23.429  0.00  0.00    +0.209 HD
ENDBRANCH  19  20
ENDBRANCH  18  19
ENDBRANCH  15  18
ENDBRANCH  12  15
ENDBRANCH   1  12
TORSDOF 12
ENDMDL
