MODEL 1
REMARK VINA RESULT:      -2.6      0.000      0.000
REMARK  Name = 
REMARK  2 active torsions:
REMARK  status: ('A' for Active; 'I' for Inactive)
REMARK    1  A    between atoms: C_2  and  C_3
REMARK    2  A    between atoms: C_3  and  C_4
REMARK                            x       y       z     vdW  Elec       q    Type
REMARK                         _______ _______ _______ _____ _____    ______ ____
ROOT
ATOM      1  C   UNL     1       8.670  -4.627  26.591  0.00  0.00    +0.141 C 
ENDROOT
BRANCH   1   3
ATOM      2  O   UNL     1       7.313  -6.013  27.993  0.00  0.00    -0.301 OA
ATOM      3  C   UNL     1       7.383  -5.251  27.031  0.00  0.00    +0.230 C 
ENDBRANCH   1   3
BRANCH   1   4
ATOM      4  C   UNL     1       9.210  -5.200  25.318  0.00  0.00    +0.230 C 
ATOM      5  O   UNL     1      10.247  -4.828  24.780  0.00  0.00    -0.301 OA
ENDBRANCH   1   4
TORSDOF 2
ENDMDL
MODEL 2
REMARK VINA RESULT:      -2.5      4.230      4.938
REMARK  Name = 
REMARK  2 active torsions:
REMARK  status: ('A' for Active; 'I' for Inactive)
REMARK    1  A    between atoms: C_2  and  C_3
REMARK    2  A    between atoms: C_3  and  C_4
REMARK                            x       y       z     vdW  Elec       q    Type
REMARK                         _______ _______ _______ _____ _____    ______ ____
ROOT
ATOM      1  C   UNL     1       7.219  -6.097  22.002  0.00  0.00    +0.141 C 
ENDROOT
BRANCH   1   3
ATOM      2  O   UNL     1       8.511  -5.228  23.819  0.00  0.00    -0.301 OA
ATOM      3  C   UNL     1       7.497  -5.152  23.129  0.00  0.00    +0.230 C 
ENDBRANCH   1   3
BRANCH   1   4
ATOM      4  C   UNL     1       6.198  -5.590  21.032  0.00  0.00    +0.230 C 
ATOM      5  O   UNL     1       5.788  -4.434  21.005  0.00  0.00    -0.301 OA
ENDBRANCH   1   4
TORSDOF 2
ENDMDL
MODEL 3
REMARK VINA RESULT:      -2.5      0.606      3.097
REMARK  Name = 
REMARK  2 active torsions:
REMARK  status: ('A' for Active; 'I' for Inactive)
REMARK    1  A    between atoms: C_2  and  C_3
REMARK    2  A    between atoms: C_3  and  C_4
REMARK                            x       y       z     vdW  Elec       q    Type
REMARK                         _______ _______ _______ _____ _____    ______ ____
ROOT
ATOM      1  C   UNL     1       8.729  -4.406  26.480  0.00  0.00    +0.141 C 
ENDROOT
BRANCH   1   3
ATOM      2  O   UNL     1       9.376  -5.540  24.474  0.00  0.00    -0.301 OA
ATOM      3  C   UNL     1       9.687  -5.137  25.593  0.00  0.00    +0.230 C 
ENDBRANCH   1   3
BRANCH   1   4
ATOM      4  C   UNL     1       7.521  -5.209  26.848  0.00  0.00    +0.230 C 
ATOM      5  O   UNL     1       7.445  -5.921  27.844  0.00  0.00    -0.301 OA
ENDBRANCH   1   4
TORSDOF 2
ENDMDL
MODEL 4
REMARK VINA RESULT:      -2.5      4.228      5.064
REMARK  Name = 
REMARK  2 active torsions:
REMARK  status: ('A' for Active; 'I' for Inactive)
REMARK    1  A    between atoms: C_2  and  C_3
REMARK    2  A    between atoms: C_3  and  C_4
REMARK                            x       y       z     vdW  Elec       q    Type
REMARK                         _______ _______ _______ _____ _____    ______ ____
ROOT
ATOM      1  C   UNL     1       7.244  -6.081  21.977  0.00  0.00    +0.141 C 
ENDROOT
BRANCH   1   3
ATOM      2  O   UNL     1       5.808  -4.430  21.007  0.00  0.00    -0.301 OA
ATOM      3  C   UNL     1       6.175  -5.603  21.045  0.00  0.00    +0.230 C 
ENDBRANCH   1   3
BRANCH   1   4
ATOM      4  C   UNL     1       7.505  -5.149  23.119  0.00  0.00    +0.230 C 
ATOM      5  O   UNL     1       8.500  -5.197  23.834  0.00  0.00    -0.301 OA
ENDBRANCH   1   4
TORSDOF 2
ENDMDL
MODEL 5
REMARK VINA RESULT:      -2.5      6.089      7.303
REMARK  Name = 
REMARK  2 active torsions:
REMARK  status: ('A' for Active; 'I' for Inactive)
REMARK    1  A    between atoms: C_2  and  C_3
REMARK    2  A    between atoms: C_3  and  C_4
REMARK                            x       y       z     vdW  Elec       q    Type
REMARK                         _______ _______ _______ _____ _____    ______ ____
ROOT
ATOM      1  C   UNL     1       9.406  -0.069  21.405  0.00  0.00    +0.141 C 
ENDROOT
BRANCH   1   3
ATOM      2  O   UNL     1      10.326   2.075  21.941  0.00  0.00    -0.301 OA
ATOM      3  C   UNL     1       9.818   1.028  22.337  0.00  0.00    +0.230 C 
ENDBRANCH   1   3
BRANCH   1   4
ATOM      4  C   UNL     1       9.580  -1.440  21.979  0.00  0.00    +0.230 C 
ATOM      5  O   UNL     1      10.646  -1.885  22.390  0.00  0.00    -0.301 OA
ENDBRANCH   1   4
TORSDOF 2
ENDMDL
MODEL 6
REMARK VINA RESULT:      -2.5      4.615      6.039
REMARK  Name = 
REMARK  2 active torsions:
REMARK  status: ('A' for Active; 'I' for Inactive)
REMARK    1  A    between atoms: C_2  and  C_3
REMARK    2  A    between atoms: C_3  and  C_4
REMARK                            x       y       z     vdW  Elec       q    Type
REMARK                         _______ _______ _______ _____ _____    ______ ____
ROOT
ATOM      1  C   UNL     1      10.348  -1.552  22.548  0.00  0.00    +0.141 C 
ENDROOT
BRANCH   1   3
ATOM      2  O   UNL     1       9.382   0.220  21.262  0.00  0.00    -0.301 OA
ATOM      3  C   UNL     1       9.319  -0.946  21.647  0.00  0.00    +0.230 C 
ENDBRANCH   1   3
BRANCH   1   4
ATOM      4  C   UNL     1       9.767  -2.262  23.730  0.00  0.00    +0.230 C 
ATOM      5  O   UNL     1      10.096  -3.388  24.089  0.00  0.00    -0.301 OA
ENDBRANCH   1   4
TORSDOF 2
ENDMDL
MODEL 7
REMARK VINA RESULT:      -2.4      6.119      7.181
REMARK  Name = 
REMARK  2 active torsions:
REMARK  status: ('A' for Active; 'I' for Inactive)
REMARK    1  A    between atoms: C_2  and  C_3
REMARK    2  A    between atoms: C_3  and  C_4
REMARK                            x       y       z     vdW  Elec       q    Type
REMARK                         _______ _______ _______ _____ _____    ______ ____
ROOT
ATOM      1  C   UNL     1       9.535   0.133  21.582  0.00  0.00    +0.141 C 
ENDROOT
BRANCH   1   3
ATOM      2  O   UNL     1      10.696  -1.832  22.303  0.00  0.00    -0.301 OA
ATOM      3  C   UNL     1       9.900  -0.934  22.567  0.00  0.00    +0.230 C 
ENDBRANCH   1   3
BRANCH   1   4
ATOM      4  C   UNL     1       9.962   1.505  22.000  0.00  0.00    +0.230 C 
ATOM      5  O   UNL     1      10.350   1.793  23.127  0.00  0.00    -0.301 OA
ENDBRANCH   1   4
TORSDOF 2
ENDMDL
MODEL 8
REMARK VINA RESULT:      -2.4      4.959      5.907
REMARK  Name = 
REMARK  2 active torsions:
REMARK  status: ('A' for Active; 'I' for Inactive)
REMARK    1  A    between atoms: C_2  and  C_3
REMARK    2  A    between atoms: C_3  and  C_4
REMARK                            x       y       z     vdW  Elec       q    Type
REMARK                         _______ _______ _______ _____ _____    ______ ____
ROOT
ATOM      1  C   UNL     1       9.545  -1.591  22.123  0.00  0.00    +0.141 C 
ENDROOT
BRANCH   1   3
ATOM      2  O   UNL     1      10.193  -3.081  23.880  0.00  0.00    -0.301 OA
ATOM      3  C   UNL     1       9.831  -1.955  23.547  0.00  0.00    +0.230 C 
ENDBRANCH   1   3
BRANCH   1   4
ATOM      4  C   UNL     1       9.830  -0.158  21.802  0.00  0.00    +0.230 C 
ATOM      5  O   UNL     1       9.068   0.573  21.178  0.00  0.00    -0.301 OA
ENDBRANCH   1   4
TORSDOF 2
ENDMDL
MODEL 9
REMARK VINA RESULT:      -2.4      2.539      4.226
REMARK  Name = 
REMARK  2 active torsions:
REMARK  status: ('A' for Active; 'I' for Inactive)
REMARK    1  A    between atoms: C_2  and  C_3
REMARK    2  A    between atoms: C_3  and  C_4
REMARK                            x       y       z     vdW  Elec       q    Type
REMARK                         _______ _______ _______ _____ _____    ______ ____
ROOT
ATOM      1  C   UNL     1       8.737  -3.185  23.918  0.00  0.00    +0.141 C 
ENDROOT
BRANCH   1   3
ATOM      2  O   UNL     1      10.582  -2.272  22.697  0.00  0.00    -0.301 OA
ATOM      3  C   UNL     1       9.890  -2.252  23.712  0.00  0.00    +0.230 C 
ENDBRANCH   1   3
BRANCH   1   4
ATOM      4  C   UNL     1       9.060  -4.353  24.796  0.00  0.00    +0.230 C 
ATOM      5  O   UNL     1      10.175  -4.852  24.895  0.00  0.00    -0.301 OA
ENDBRANCH   1   4
TORSDOF 2
ENDMDL
