MODEL 1
REMARK VINA RESULT:      -4.9      0.000      0.000
REMARK  Name = 
REMARK  40 active torsions:
REMARK  status: ('A' for Active; 'I' for Inactive)
REMARK    1  A    between atoms: C_1  and  C_2
REMARK    2  A    between atoms: C_2  and  C_3
REMARK    3  A    between atoms: C_3  and  C_4
REMARK    4  A    between atoms: C_4  and  C_5
REMARK    5  A    between atoms: C_5  and  C_6
REMARK    6  A    between atoms: C_6  and  C_7
REMARK    7  A    between atoms: C_7  and  C_8
REMARK    8  A    between atoms: C_8  and  C_9
REMARK    9  A    between atoms: C_10  and  C_11
REMARK   10  A    between atoms: C_11  and  C_12
REMARK   11  A    between atoms: C_12  and  C_13
REMARK   12  A    between atoms: C_13  and  C_14
REMARK   13  A    between atoms: C_14  and  C_15
REMARK   14  A    between atoms: C_15  and  C_16
REMARK   15  A    between atoms: C_16  and  C_17
REMARK   16  A    between atoms: C_17  and  C_18
REMARK   17  A    between atoms: C_18  and  O_20
REMARK   18  A    between atoms: O_20  and  C_21
REMARK   19  A    between atoms: C_21  and  C_22
REMARK   20  A    between atoms: C_22  and  C_24
REMARK   21  A    between atoms: C_22  and  O_30
REMARK   22  A    between atoms: C_24  and  O_25
REMARK   23  A    between atoms: O_25  and  P_26
REMARK   24  A    between atoms: P_26  and  O_27
REMARK   25  A    between atoms: P_26  and  O_28
REMARK   26  A    between atoms: O_30  and  C_31
REMARK   27  A    between atoms: C_31  and  C_33
REMARK   28  A    between atoms: C_33  and  C_34
REMARK   29  A    between atoms: C_34  and  C_35
REMARK   30  A    between atoms: C_35  and  C_36
REMARK   31  A    between atoms: C_36  and  C_37
REMARK   32  A    between atoms: C_37  and  C_38
REMARK   33  A    between atoms: C_38  and  C_39
REMARK   34  A    between atoms: C_39  and  C_40
REMARK   35  A    between atoms: C_41  and  C_42
REMARK   36  A    between atoms: C_42  and  C_43
REMARK   37  A    between atoms: C_43  and  C_44
REMARK   38  A    between atoms: C_44  and  C_45
REMARK   39  A    between atoms: C_45  and  C_46
REMARK   40  A    between atoms: C_46  and  C_47
REMARK                            x       y       z     vdW  Elec       q    Type
REMARK                         _______ _______ _______ _____ _____    ______ ____
ROOT
ATOM      1  C   UNL     1       4.957  -5.896  23.771  0.00  0.00    +0.240 C 
ENDROOT
BRANCH   1   2
ATOM      2  O   UNL     1       5.147  -4.883  22.769  0.00  0.00    -0.456 OA
BRANCH   2   3
ATOM      3  C   UNL     1       6.167  -5.084  21.900  0.00  0.00    +0.308 C 
ATOM      4  O   UNL     1       6.222  -5.977  21.063  0.00  0.00    -0.251 OA
BRANCH   3   5
ATOM      5  C   UNL     1       7.264  -4.085  22.161  0.00  0.00    +0.120 C 
BRANCH   5   6
ATOM      6  C   UNL     1       6.652  -2.713  22.423  0.00  0.00    +0.011 C 
BRANCH   6   7
ATOM      7  C   UNL     1       7.704  -1.643  22.705  0.00  0.00    +0.001 C 
BRANCH   7   8
ATOM      8  C   UNL     1       9.056  -2.313  22.884  0.00  0.00    +0.000 C 
BRANCH   8   9
ATOM      9  C   UNL     1      10.216  -1.378  22.549  0.00  0.00    +0.000 C 
BRANCH   9  10
ATOM     10  C   UNL     1      10.519  -0.407  23.694  0.00  0.00    +0.004 C 
BRANCH  10  11
ATOM     11  C   UNL     1      10.268   1.068  23.367  0.00  0.00    +0.027 C 
BRANCH  11  12
ATOM     12  C   UNL     1       9.781   1.276  21.960  0.00  0.00    -0.031 C 
ATOM     13  C   UNL     1       8.661   1.933  21.625  0.00  0.00    -0.031 C 
BRANCH  13  14
ATOM     14  C   UNL     1       7.752   2.560  22.640  0.00  0.00    +0.027 C 
BRANCH  14  15
ATOM     15  C   UNL     1       6.364   1.937  22.660  0.00  0.00    +0.004 C 
BRANCH  15  16
ATOM     16  C   UNL     1       5.312   3.042  22.641  0.00  0.00    +0.000 C 
BRANCH  16  17
ATOM     17  C   UNL     1       4.605   3.146  23.988  0.00  0.00    -0.000 C 
BRANCH  17  18
ATOM     18  C   UNL     1       4.354   4.605  24.354  0.00  0.00    -0.003 C 
ATOM     19  C   UNL     1       2.866   4.878  24.463  0.00  0.00    +0.004 C 
ENDBRANCH  17  18
ENDBRANCH  16  17
ENDBRANCH  15  16
ENDBRANCH  14  15
ENDBRANCH  13  14
ENDBRANCH  11  12
ENDBRANCH  10  11
ENDBRANCH   9  10
ENDBRANCH   8   9
ENDBRANCH   7   8
ENDBRANCH   6   7
ENDBRANCH   5   6
ENDBRANCH   3   5
ENDBRANCH   2   3
ENDBRANCH   1   2
BRANCH   1  20
ATOM     20  C   UNL     1       3.518  -6.408  23.730  0.00  0.00    +0.220 C 
BRANCH  20  21
ATOM     21  O   UNL     1       3.420  -7.747  24.222  0.00  0.00    -0.283 OA
BRANCH  21  22
ATOM     22  P   UNL     1       2.105  -7.910  25.335  0.00  0.00    +0.472 P 
ATOM     23  O   UNL     1       0.928  -8.055  26.330  0.00  0.00    -0.228 OA
BRANCH  22  24
ATOM     24  O   UNL     1       2.443  -9.511  25.259  0.00  0.00    -0.303 OA
ATOM     25  H   UNL     1       2.320  -9.935  26.127  0.00  0.00    +0.222 HD
ENDBRANCH  22  24
BRANCH  22  26
ATOM     26  O   UNL     1       3.253  -7.590  26.456  0.00  0.00    -0.303 OA
ATOM     27  H   UNL     1       3.244  -6.622  26.581  0.00  0.00    +0.222 HD
ENDBRANCH  22  26
ENDBRANCH  21  22
ENDBRANCH  20  21
ENDBRANCH   1  20
BRANCH   1  28
ATOM     28  C   UNL     1       5.324  -5.240  25.108  0.00  0.00    +0.279 C 
BRANCH  28  29
ATOM     29  O   UNL     1       5.995  -6.152  25.987  0.00  0.00    -0.461 OA
BRANCH  29  30
ATOM     30  C   UNL     1       7.075  -5.635  26.637  0.00  0.00    +0.307 C 
ATOM     31  O   UNL     1       7.317  -5.779  27.824  0.00  0.00    -0.251 OA
BRANCH  30  32
ATOM     32  C   UNL     1       7.919  -4.837  25.678  0.00  0.00    +0.120 C 
BRANCH  32  33
ATOM     33  C   UNL     1       8.451  -3.554  26.318  0.00  0.00    +0.011 C 
BRANCH  33  34
ATOM     34  C   UNL     1       7.467  -2.375  26.290  0.00  0.00    +0.001 C 
BRANCH  34  35
ATOM     35  C   UNL     1       8.192  -1.044  26.423  0.00  0.00    +0.000 C 
BRANCH  35  36
ATOM     36  C   UNL     1       7.429   0.112  25.784  0.00  0.00    +0.000 C 
BRANCH  36  37
ATOM     37  C   UNL     1       6.950   1.112  26.841  0.00  0.00    +0.004 C 
BRANCH  37  38
ATOM     38  C   UNL     1       7.296   2.573  26.537  0.00  0.00    +0.027 C 
BRANCH  38  40
ATOM     39  C   UNL     1       6.583   4.858  27.327  0.00  0.00    -0.031 C 
ATOM     40  C   UNL     1       6.367   3.539  27.222  0.00  0.00    -0.031 C 
BRANCH  39  41
ATOM     41  C   UNL     1       7.781   5.526  26.731  0.00  0.00    +0.027 C 
BRANCH  41  42
ATOM     42  C   UNL     1       7.441   6.395  25.531  0.00  0.00    +0.004 C 
BRANCH  42  43
ATOM     43  C   UNL     1       8.014   5.750  24.274  0.00  0.00    +0.000 C 
BRANCH  43  44
ATOM     44  C   UNL     1       9.341   5.070  24.574  0.00  0.00    +0.000 C 
BRANCH  44  45
ATOM     45  C   UNL     1      10.464   5.697  23.758  0.00  0.00    -0.000 C 
BRANCH  45  46
ATOM     46  C   UNL     1      11.491   4.637  23.372  0.00  0.00    -0.000 C 
BRANCH  46  48
ATOM     47  C   UNL     1      13.311   5.638  21.969  0.00  0.00    +0.004 C 
ATOM     48  C   UNL     1      12.902   5.210  23.369  0.00  0.00    -0.003 C 
ENDBRANCH  46  48
ENDBRANCH  45  46
ENDBRANCH  44  45
ENDBRANCH  43  44
ENDBRANCH  42  43
ENDBRANCH  41  42
ENDBRANCH  39  41
ENDBRANCH  38  40
ENDBRANCH  37  38
ENDBRANCH  36  37
ENDBRANCH  35  36
ENDBRANCH  34  35
ENDBRANCH  33  34
ENDBRANCH  32  33
ENDBRANCH  30  32
ENDBRANCH  29  30
ENDBRANCH  28  29
ENDBRANCH   1  28
TORSDOF 38
ENDMDL
MODEL 2
REMARK VINA RESULT:      -4.8      1.695      4.777
REMARK  Name = 
REMARK  40 active torsions:
REMARK  status: ('A' for Active; 'I' for Inactive)
REMARK    1  A    between atoms: C_1  and  C_2
REMARK    2  A    between atoms: C_2  and  C_3
REMARK    3  A    between atoms: C_3  and  C_4
REMARK    4  A    between atoms: C_4  and  C_5
REMARK    5  A    between atoms: C_5  and  C_6
REMARK    6  A    between atoms: C_6  and  C_7
REMARK    7  A    between atoms: C_7  and  C_8
REMARK    8  A    between atoms: C_8  and  C_9
REMARK    9  A    between atoms: C_10  and  C_11
REMARK   10  A    between atoms: C_11  and  C_12
REMARK   11  A    between atoms: C_12  and  C_13
REMARK   12  A    between atoms: C_13  and  C_14
REMARK   13  A    between atoms: C_14  and  C_15
REMARK   14  A    between atoms: C_15  and  C_16
REMARK   15  A    between atoms: C_16  and  C_17
REMARK   16  A    between atoms: C_17  and  C_18
REMARK   17  A    between atoms: C_18  and  O_20
REMARK   18  A    between atoms: O_20  and  C_21
REMARK   19  A    between atoms: C_21  and  C_22
REMARK   20  A    between atoms: C_22  and  C_24
REMARK   21  A    between atoms: C_22  and  O_30
REMARK   22  A    between atoms: C_24  and  O_25
REMARK   23  A    between atoms: O_25  and  P_26
REMARK   24  A    between atoms: P_26  and  O_27
REMARK   25  A    between atoms: P_26  and  O_28
REMARK   26  A    between atoms: O_30  and  C_31
REMARK   27  A    between atoms: C_31  and  C_33
REMARK   28  A    between atoms: C_33  and  C_34
REMARK   29  A    between atoms: C_34  and  C_35
REMARK   30  A    between atoms: C_35  and  C_36
REMARK   31  A    between atoms: C_36  and  C_37
REMARK   32  A    between atoms: C_37  and  C_38
REMARK   33  A    between atoms: C_38  and  C_39
REMARK   34  A    between atoms: C_39  and  C_40
REMARK   35  A    between atoms: C_41  and  C_42
REMARK   36  A    between atoms: C_42  and  C_43
REMARK   37  A    between atoms: C_43  and  C_44
REMARK   38  A    between atoms: C_44  and  C_45
REMARK   39  A    between atoms: C_45  and  C_46
REMARK   40  A    between atoms: C_46  and  C_47
REMARK                            x       y       z     vdW  Elec       q    Type
REMARK                         _______ _______ _______ _____ _____    ______ ____
ROOT
ATOM      1  C   UNL     1       5.314  -5.403  26.808  0.00  0.00    +0.240 C 
ENDROOT
BRANCH   1   2
ATOM      2  O   UNL     1       6.362  -4.569  26.287  0.00  0.00    -0.456 OA
BRANCH   2   3
ATOM      3  C   UNL     1       7.606  -4.797  26.775  0.00  0.00    +0.308 C 
ATOM      4  O   UNL     1       7.919  -5.716  27.521  0.00  0.00    -0.251 OA
BRANCH   3   5
ATOM      5  C   UNL     1       8.539  -3.705  26.320  0.00  0.00    +0.120 C 
BRANCH   5   6
ATOM      6  C   UNL     1       7.802  -2.370  26.325  0.00  0.00    +0.011 C 
BRANCH   6   7
ATOM      7  C   UNL     1       8.730  -1.186  26.586  0.00  0.00    +0.001 C 
BRANCH   7   8
ATOM      8  C   UNL     1       8.457  -0.105  25.555  0.00  0.00    +0.000 C 
BRANCH   8   9
ATOM      9  C   UNL     1       9.721   0.659  25.164  0.00  0.00    +0.000 C 
BRANCH   9  10
ATOM     10  C   UNL     1       9.420   1.803  24.191  0.00  0.00    +0.004 C 
BRANCH  10  11
ATOM     11  C   UNL     1      10.165   1.720  22.855  0.00  0.00    +0.027 C 
BRANCH  11  12
ATOM     12  C   UNL     1       9.340   1.088  21.769  0.00  0.00    -0.031 C 
ATOM     13  C   UNL     1       9.331  -0.221  21.476  0.00  0.00    -0.031 C 
BRANCH  13  14
ATOM     14  C   UNL     1      10.153  -1.227  22.224  0.00  0.00    +0.027 C 
BRANCH  14  15
ATOM     15  C   UNL     1       9.324  -2.375  22.780  0.00  0.00    +0.004 C 
BRANCH  15  16
ATOM     16  C   UNL     1       7.841  -2.061  22.605  0.00  0.00    +0.000 C 
BRANCH  16  17
ATOM     17  C   UNL     1       7.080  -3.278  22.089  0.00  0.00    -0.000 C 
BRANCH  17  18
ATOM     18  C   UNL     1       7.412  -4.513  22.919  0.00  0.00    -0.003 C 
ATOM     19  C   UNL     1       7.097  -5.776  22.141  0.00  0.00    +0.004 C 
ENDBRANCH  17  18
ENDBRANCH  16  17
ENDBRANCH  15  16
ENDBRANCH  14  15
ENDBRANCH  13  14
ENDBRANCH  11  12
ENDBRANCH  10  11
ENDBRANCH   9  10
ENDBRANCH   8   9
ENDBRANCH   7   8
ENDBRANCH   6   7
ENDBRANCH   5   6
ENDBRANCH   3   5
ENDBRANCH   2   3
ENDBRANCH   1   2
BRANCH   1  20
ATOM     20  C   UNL     1       4.805  -6.346  25.718  0.00  0.00    +0.220 C 
BRANCH  20  21
ATOM     21  O   UNL     1       3.430  -6.105  25.411  0.00  0.00    -0.283 OA
BRANCH  21  22
ATOM     22  P   UNL     1       2.774  -7.377  24.438  0.00  0.00    +0.472 P 
ATOM     23  O   UNL     1       2.186  -8.514  23.568  0.00  0.00    -0.228 OA
BRANCH  22  24
ATOM     24  O   UNL     1       4.280  -7.453  23.796  0.00  0.00    -0.303 OA
ATOM     25  H   UNL     1       4.273  -7.190  22.859  0.00  0.00    +0.222 HD
ENDBRANCH  22  24
BRANCH  22  26
ATOM     26  O   UNL     1       3.140  -8.308  25.732  0.00  0.00    -0.303 OA
ATOM     27  H   UNL     1       3.802  -7.807  26.246  0.00  0.00    +0.222 HD
ENDBRANCH  22  26
ENDBRANCH  21  22
ENDBRANCH  20  21
ENDBRANCH   1  20
BRANCH   1  28
ATOM     28  C   UNL     1       4.234  -4.447  27.328  0.00  0.00    +0.279 C 
BRANCH  28  29
ATOM     29  O   UNL     1       4.623  -3.074  27.195  0.00  0.00    -0.461 OA
BRANCH  29  30
ATOM     30  C   UNL     1       3.811  -2.320  26.402  0.00  0.00    +0.307 C 
ATOM     31  O   UNL     1       3.231  -2.721  25.406  0.00  0.00    -0.251 OA
BRANCH  30  32
ATOM     32  C   UNL     1       3.751  -0.908  26.923  0.00  0.00    +0.120 C 
BRANCH  32  33
ATOM     33  C   UNL     1       4.982  -0.556  27.758  0.00  0.00    +0.011 C 
BRANCH  33  34
ATOM     34  C   UNL     1       5.558   0.841  27.480  0.00  0.00    +0.001 C 
BRANCH  34  35
ATOM     35  C   UNL     1       4.718   1.595  26.460  0.00  0.00    +0.000 C 
BRANCH  35  36
ATOM     36  C   UNL     1       5.536   2.101  25.276  0.00  0.00    +0.000 C 
BRANCH  36  37
ATOM     37  C   UNL     1       4.628   2.574  24.136  0.00  0.00    +0.004 C 
BRANCH  37  38
ATOM     38  C   UNL     1       5.191   3.739  23.317  0.00  0.00    +0.027 C 
BRANCH  38  40
ATOM     39  C   UNL     1       7.390   4.267  22.203  0.00  0.00    -0.031 C 
ATOM     40  C   UNL     1       6.471   3.380  22.610  0.00  0.00    -0.031 C 
BRANCH  39  41
ATOM     41  C   UNL     1       7.250   5.736  22.444  0.00  0.00    +0.027 C 
BRANCH  41  42
ATOM     42  C   UNL     1       8.533   6.380  22.945  0.00  0.00    +0.004 C 
BRANCH  42  43
ATOM     43  C   UNL     1       9.245   5.405  23.878  0.00  0.00    +0.000 C 
BRANCH  43  44
ATOM     44  C   UNL     1       8.980   5.761  25.333  0.00  0.00    +0.000 C 
BRANCH  44  45
ATOM     45  C   UNL     1       7.948   4.816  25.938  0.00  0.00    -0.000 C 
BRANCH  45  46
ATOM     46  C   UNL     1       6.618   5.538  26.124  0.00  0.00    -0.000 C 
BRANCH  46  48
ATOM     47  C   UNL     1       6.830   4.179  28.220  0.00  0.00    +0.004 C 
ATOM     48  C   UNL     1       5.981   5.186  27.462  0.00  0.00    -0.003 C 
ENDBRANCH  46  48
ENDBRANCH  45  46
ENDBRANCH  44  45
ENDBRANCH  43  44
ENDBRANCH  42  43
ENDBRANCH  41  42
ENDBRANCH  39  41
ENDBRANCH  38  40
ENDBRANCH  37  38
ENDBRANCH  36  37
ENDBRANCH  35  36
ENDBRANCH  34  35
ENDBRANCH  33  34
ENDBRANCH  32  33
ENDBRANCH  30  32
ENDBRANCH  29  30
ENDBRANCH  28  29
ENDBRANCH   1  28
TORSDOF 38
ENDMDL
MODEL 3
REMARK VINA RESULT:      -4.7      2.344      5.417
REMARK  Name = 
REMARK  40 active torsions:
REMARK  status: ('A' for Active; 'I' for Inactive)
REMARK    1  A    between atoms: C_1  and  C_2
REMARK    2  A    between atoms: C_2  and  C_3
REMARK    3  A    between atoms: C_3  and  C_4
REMARK    4  A    between atoms: C_4  and  C_5
REMARK    5  A    between atoms: C_5  and  C_6
REMARK    6  A    between atoms: C_6  and  C_7
REMARK    7  A    between atoms: C_7  and  C_8
REMARK    8  A    between atoms: C_8  and  C_9
REMARK    9  A    between atoms: C_10  and  C_11
REMARK   10  A    between atoms: C_11  and  C_12
REMARK   11  A    between atoms: C_12  and  C_13
REMARK   12  A    between atoms: C_13  and  C_14
REMARK   13  A    between atoms: C_14  and  C_15
REMARK   14  A    between atoms: C_15  and  C_16
REMARK   15  A    between atoms: C_16  and  C_17
REMARK   16  A    between atoms: C_17  and  C_18
REMARK   17  A    between atoms: C_18  and  O_20
REMARK   18  A    between atoms: O_20  and  C_21
REMARK   19  A    between atoms: C_21  and  C_22
REMARK   20  A    between atoms: C_22  and  C_24
REMARK   21  A    between atoms: C_22  and  O_30
REMARK   22  A    between atoms: C_24  and  O_25
REMARK   23  A    between atoms: O_25  and  P_26
REMARK   24  A    between atoms: P_26  and  O_27
REMARK   25  A    between atoms: P_26  and  O_28
REMARK   26  A    between atoms: O_30  and  C_31
REMARK   27  A    between atoms: C_31  and  C_33
REMARK   28  A    between atoms: C_33  and  C_34
REMARK   29  A    between atoms: C_34  and  C_35
REMARK   30  A    between atoms: C_35  and  C_36
REMARK   31  A    between atoms: C_36  and  C_37
REMARK   32  A    between atoms: C_37  and  C_38
REMARK   33  A    between atoms: C_38  and  C_39
REMARK   34  A    between atoms: C_39  and  C_40
REMARK   35  A    between atoms: C_41  and  C_42
REMARK   36  A    between atoms: C_42  and  C_43
REMARK   37  A    between atoms: C_43  and  C_44
REMARK   38  A    between atoms: C_44  and  C_45
REMARK   39  A    between atoms: C_45  and  C_46
REMARK   40  A    between atoms: C_46  and  C_47
REMARK                            x       y       z     vdW  Elec       q    Type
REMARK                         _______ _______ _______ _____ _____    ______ ____
ROOT
ATOM      1  C   UNL     1       7.632  -3.717  25.168  0.00  0.00    +0.240 C 
ENDROOT
BRANCH   1   2
ATOM      2  O   UNL     1       7.734  -4.999  25.810  0.00  0.00    -0.456 OA
BRANCH   2   3
ATOM      3  C   UNL     1       7.230  -5.082  27.066  0.00  0.00    +0.308 C 
ATOM      4  O   UNL     1       7.388  -6.023  27.833  0.00  0.00    -0.251 OA
BRANCH   3   5
ATOM      5  C   UNL     1       6.383  -3.871  27.356  0.00  0.00    +0.120 C 
BRANCH   5   6
ATOM      6  C   UNL     1       5.001  -4.315  27.821  0.00  0.00    +0.011 C 
BRANCH   6   7
ATOM      7  C   UNL     1       3.977  -4.338  26.689  0.00  0.00    +0.001 C 
BRANCH   7   8
ATOM      8  C   UNL     1       3.896  -2.954  26.066  0.00  0.00    +0.000 C 
BRANCH   8   9
ATOM      9  C   UNL     1       2.600  -2.230  26.425  0.00  0.00    +0.000 C 
BRANCH   9  10
ATOM     10  C   UNL     1       2.731  -1.432  27.725  0.00  0.00    +0.004 C 
BRANCH  10  11
ATOM     11  C   UNL     1       3.929  -0.479  27.773  0.00  0.00    +0.027 C 
BRANCH  11  12
ATOM     12  C   UNL     1       3.723   0.756  26.941  0.00  0.00    -0.031 C 
ATOM     13  C   UNL     1       4.527   1.152  25.944  0.00  0.00    -0.031 C 
BRANCH  13  14
ATOM     14  C   UNL     1       5.745   0.382  25.527  0.00  0.00    +0.027 C 
BRANCH  14  15
ATOM     15  C   UNL     1       7.039   0.992  26.047  0.00  0.00    +0.004 C 
BRANCH  15  16
ATOM     16  C   UNL     1       7.521   0.200  27.258  0.00  0.00    +0.000 C 
BRANCH  16  17
ATOM     17  C   UNL     1       7.227   0.949  28.554  0.00  0.00    -0.000 C 
BRANCH  17  18
ATOM     18  C   UNL     1       6.963   2.424  28.276  0.00  0.00    -0.003 C 
ATOM     19  C   UNL     1       5.997   2.993  29.298  0.00  0.00    +0.004 C 
ENDBRANCH  17  18
ENDBRANCH  16  17
ENDBRANCH  15  16
ENDBRANCH  14  15
ENDBRANCH  13  14
ENDBRANCH  11  12
ENDBRANCH  10  11
ENDBRANCH   9  10
ENDBRANCH   8   9
ENDBRANCH   7   8
ENDBRANCH   6   7
ENDBRANCH   5   6
ENDBRANCH   3   5
ENDBRANCH   2   3
ENDBRANCH   1   2
BRANCH   1  20
ATOM     20  C   UNL     1       7.006  -3.874  23.783  0.00  0.00    +0.220 C 
BRANCH  20  21
ATOM     21  O   UNL     1       6.196  -5.049  23.700  0.00  0.00    -0.283 OA
BRANCH  21  22
ATOM     22  P   UNL     1       5.951  -5.526  22.055  0.00  0.00    +0.472 P 
ATOM     23  O   UNL     1       5.731  -5.953  20.583  0.00  0.00    -0.228 OA
BRANCH  22  24
ATOM     24  O   UNL     1       5.323  -4.022  21.875  0.00  0.00    -0.303 OA
ATOM     25  H   UNL     1       4.462  -3.948  22.321  0.00  0.00    +0.222 HD
ENDBRANCH  22  24
BRANCH  22  26
ATOM     26  O   UNL     1       7.502  -5.039  21.873  0.00  0.00    -0.303 OA
ATOM     27  H   UNL     1       7.800  -4.756  22.759  0.00  0.00    +0.222 HD
ENDBRANCH  22  26
ENDBRANCH  21  22
ENDBRANCH  20  21
ENDBRANCH   1  20
BRANCH   1  28
ATOM     28  C   UNL     1       9.057  -3.153  25.123  0.00  0.00    +0.279 C 
BRANCH  28  29
ATOM     29  O   UNL     1       9.601  -3.173  23.798  0.00  0.00    -0.461 OA
BRANCH  29  30
ATOM     30  C   UNL     1      10.044  -1.969  23.340  0.00  0.00    +0.307 C 
ATOM     31  O   UNL     1      10.568  -1.779  22.254  0.00  0.00    -0.251 OA
BRANCH  30  32
ATOM     32  C   UNL     1       9.813  -0.906  24.381  0.00  0.00    +0.120 C 
BRANCH  32  33
ATOM     33  C   UNL     1      10.749   0.289  24.194  0.00  0.00    +0.011 C 
BRANCH  33  34
ATOM     34  C   UNL     1      10.043   1.589  23.780  0.00  0.00    +0.001 C 
BRANCH  34  35
ATOM     35  C   UNL     1      10.130   1.814  22.278  0.00  0.00    +0.000 C 
BRANCH  35  36
ATOM     36  C   UNL     1       8.910   1.289  21.528  0.00  0.00    +0.000 C 
BRANCH  36  37
ATOM     37  C   UNL     1       7.635   1.450  22.362  0.00  0.00    +0.004 C 
BRANCH  37  38
ATOM     38  C   UNL     1       6.894   2.772  22.141  0.00  0.00    +0.027 C 
BRANCH  38  40
ATOM     39  C   UNL     1       4.831   3.831  23.129  0.00  0.00    -0.031 C 
ATOM     40  C   UNL     1       5.496   2.750  22.699  0.00  0.00    -0.031 C 
BRANCH  39  41
ATOM     41  C   UNL     1       5.410   5.208  23.066  0.00  0.00    +0.027 C 
BRANCH  41  42
ATOM     42  C   UNL     1       5.392   5.922  24.408  0.00  0.00    +0.004 C 
BRANCH  42  43
ATOM     43  C   UNL     1       5.867   4.956  25.489  0.00  0.00    +0.000 C 
BRANCH  43  44
ATOM     44  C   UNL     1       7.282   5.295  25.931  0.00  0.00    +0.000 C 
BRANCH  44  45
ATOM     45  C   UNL     1       8.288   4.347  25.287  0.00  0.00    -0.000 C 
BRANCH  45  46
ATOM     46  C   UNL     1       8.965   5.025  24.100  0.00  0.00    -0.000 C 
BRANCH  46  48
ATOM     47  C   UNL     1      11.321   5.817  23.771  0.00  0.00    +0.004 C 
ATOM     48  C   UNL     1      10.036   6.005  24.561  0.00  0.00    -0.003 C 
ENDBRANCH  46  48
ENDBRANCH  45  46
ENDBRANCH  44  45
ENDBRANCH  43  44
ENDBRANCH  42  43
ENDBRANCH  41  42
ENDBRANCH  39  41
ENDBRANCH  38  40
ENDBRANCH  37  38
ENDBRANCH  36  37
ENDBRANCH  35  36
ENDBRANCH  34  35
ENDBRANCH  33  34
ENDBRANCH  32  33
ENDBRANCH  30  32
ENDBRANCH  29  30
ENDBRANCH  28  29
ENDBRANCH   1  28
TORSDOF 38
ENDMDL
MODEL 4
REMARK VINA RESULT:      -4.7      1.571      2.364
REMARK  Name = 
REMARK  40 active torsions:
REMARK  status: ('A' for Active; 'I' for Inactive)
REMARK    1  A    between atoms: C_1  and  C_2
REMARK    2  A    between atoms: C_2  and  C_3
REMARK    3  A    between atoms: C_3  and  C_4
REMARK    4  A    between atoms: C_4  and  C_5
REMARK    5  A    between atoms: C_5  and  C_6
REMARK    6  A    between atoms: C_6  and  C_7
REMARK    7  A    between atoms: C_7  and  C_8
REMARK    8  A    between atoms: C_8  and  C_9
REMARK    9  A    between atoms: C_10  and  C_11
REMARK   10  A    between atoms: C_11  and  C_12
REMARK   11  A    between atoms: C_12  and  C_13
REMARK   12  A    between atoms: C_13  and  C_14
REMARK   13  A    between atoms: C_14  and  C_15
REMARK   14  A    between atoms: C_15  and  C_16
REMARK   15  A    between atoms: C_16  and  C_17
REMARK   16  A    between atoms: C_17  and  C_18
REMARK   17  A    between atoms: C_18  and  O_20
REMARK   18  A    between atoms: O_20  and  C_21
REMARK   19  A    between atoms: C_21  and  C_22
REMARK   20  A    between atoms: C_22  and  C_24
REMARK   21  A    between atoms: C_22  and  O_30
REMARK   22  A    between atoms: C_24  and  O_25
REMARK   23  A    between atoms: O_25  and  P_26
REMARK   24  A    between atoms: P_26  and  O_27
REMARK   25  A    between atoms: P_26  and  O_28
REMARK   26  A    between atoms: O_30  and  C_31
REMARK   27  A    between atoms: C_31  and  C_33
REMARK   28  A    between atoms: C_33  and  C_34
REMARK   29  A    between atoms: C_34  and  C_35
REMARK   30  A    between atoms: C_35  and  C_36
REMARK   31  A    between atoms: C_36  and  C_37
REMARK   32  A    between atoms: C_37  and  C_38
REMARK   33  A    between atoms: C_38  and  C_39
REMARK   34  A    between atoms: C_39  and  C_40
REMARK   35  A    between atoms: C_41  and  C_42
REMARK   36  A    between atoms: C_42  and  C_43
REMARK   37  A    between atoms: C_43  and  C_44
REMARK   38  A    between atoms: C_44  and  C_45
REMARK   39  A    between atoms: C_45  and  C_46
REMARK   40  A    between atoms: C_46  and  C_47
REMARK                            x       y       z     vdW  Elec       q    Type
REMARK                         _______ _______ _______ _____ _____    ______ ____
ROOT
ATOM      1  C   UNL     1       3.049  -5.047  23.916  0.00  0.00    +0.240 C 
ENDROOT
BRANCH   1   2
ATOM      2  O   UNL     1       3.958  -4.705  22.857  0.00  0.00    -0.456 OA
BRANCH   2   3
ATOM      3  C   UNL     1       5.124  -5.396  22.823  0.00  0.00    +0.308 C 
ATOM      4  O   UNL     1       5.298  -6.518  23.281  0.00  0.00    -0.251 OA
BRANCH   3   5
ATOM      5  C   UNL     1       6.200  -4.548  22.196  0.00  0.00    +0.120 C 
BRANCH   5   6
ATOM      6  C   UNL     1       5.691  -3.121  22.029  0.00  0.00    +0.011 C 
BRANCH   6   7
ATOM      7  C   UNL     1       6.641  -2.083  22.622  0.00  0.00    +0.001 C 
BRANCH   7   8
ATOM      8  C   UNL     1       8.063  -2.611  22.542  0.00  0.00    +0.000 C 
BRANCH   8   9
ATOM      9  C   UNL     1       8.999  -1.652  21.809  0.00  0.00    +0.000 C 
BRANCH   9  10
ATOM     10  C   UNL     1      10.287  -1.395  22.597  0.00  0.00    +0.004 C 
BRANCH  10  11
ATOM     11  C   UNL     1      10.075  -1.032  24.070  0.00  0.00    +0.027 C 
BRANCH  11  12
ATOM     12  C   UNL     1      10.722   0.272  24.445  0.00  0.00    -0.031 C 
ATOM     13  C   UNL     1      10.136   1.474  24.348  0.00  0.00    -0.031 C 
BRANCH  13  14
ATOM     14  C   UNL     1       8.732   1.657  23.856  0.00  0.00    +0.027 C 
BRANCH  14  15
ATOM     15  C   UNL     1       8.661   1.974  22.369  0.00  0.00    +0.004 C 
BRANCH  15  16
ATOM     16  C   UNL     1       7.434   2.838  22.093  0.00  0.00    +0.000 C 
BRANCH  16  17
ATOM     17  C   UNL     1       6.200   2.275  22.791  0.00  0.00    -0.000 C 
BRANCH  17  18
ATOM     18  C   UNL     1       4.992   3.175  22.562  0.00  0.00    -0.003 C 
ATOM     19  C   UNL     1       5.318   4.608  22.938  0.00  0.00    +0.004 C 
ENDBRANCH  17  18
ENDBRANCH  16  17
ENDBRANCH  15  16
ENDBRANCH  14  15
ENDBRANCH  13  14
ENDBRANCH  11  12
ENDBRANCH  10  11
ENDBRANCH   9  10
ENDBRANCH   8   9
ENDBRANCH   7   8
ENDBRANCH   6   7
ENDBRANCH   5   6
ENDBRANCH   3   5
ENDBRANCH   2   3
ENDBRANCH   1   2
BRANCH   1  20
ATOM     20  C   UNL     1       1.691  -5.438  23.333  0.00  0.00    +0.220 C 
BRANCH  20  21
ATOM     21  O   UNL     1       1.792  -6.577  22.476  0.00  0.00    -0.283 OA
BRANCH  21  22
ATOM     22  P   UNL     1       1.261  -8.014  23.280  0.00  0.00    +0.472 P 
ATOM     23  O   UNL     1       0.786  -9.300  24.000  0.00  0.00    -0.228 OA
BRANCH  22  24
ATOM     24  O   UNL     1       1.292  -8.678  21.782  0.00  0.00    -0.303 OA
ATOM     25  H   UNL     1       1.874  -8.173  21.189  0.00  0.00    +0.222 HD
ENDBRANCH  22  24
BRANCH  22  26
ATOM     26  O   UNL     1       2.859  -8.235  23.551  0.00  0.00    -0.303 OA
ATOM     27  H   UNL     1       3.310  -7.968  22.727  0.00  0.00    +0.222 HD
ENDBRANCH  22  26
ENDBRANCH  21  22
ENDBRANCH  20  21
ENDBRANCH   1  20
BRANCH   1  28
ATOM     28  C   UNL     1       2.980  -3.816  24.827  0.00  0.00    +0.279 C 
BRANCH  28  29
ATOM     29  O   UNL     1       2.513  -4.146  26.141  0.00  0.00    -0.461 OA
BRANCH  29  30
ATOM     30  C   UNL     1       3.436  -4.744  26.947  0.00  0.00    +0.307 C 
ATOM     31  O   UNL     1       3.421  -5.916  27.284  0.00  0.00    -0.251 OA
BRANCH  30  32
ATOM     32  C   UNL     1       4.469  -3.737  27.380  0.00  0.00    +0.120 C 
BRANCH  32  33
ATOM     33  C   UNL     1       5.890  -4.292  27.263  0.00  0.00    +0.011 C 
BRANCH  33  34
ATOM     34  C   UNL     1       6.622  -3.893  25.973  0.00  0.00    +0.001 C 
BRANCH  34  35
ATOM     35  C   UNL     1       7.699  -2.853  26.244  0.00  0.00    +0.000 C 
BRANCH  35  36
ATOM     36  C   UNL     1       7.176  -1.423  26.162  0.00  0.00    +0.000 C 
BRANCH  36  37
ATOM     37  C   UNL     1       8.019  -0.474  27.019  0.00  0.00    +0.004 C 
BRANCH  37  38
ATOM     38  C   UNL     1       7.280   0.784  27.487  0.00  0.00    +0.027 C 
BRANCH  38  40
ATOM     39  C   UNL     1       5.690   2.426  26.423  0.00  0.00    -0.031 C 
ATOM     40  C   UNL     1       6.168   1.180  26.552  0.00  0.00    -0.031 C 
BRANCH  39  41
ATOM     41  C   UNL     1       6.247   3.584  27.188  0.00  0.00    +0.027 C 
BRANCH  41  42
ATOM     42  C   UNL     1       6.672   4.737  26.294  0.00  0.00    +0.004 C 
BRANCH  42  43
ATOM     43  C   UNL     1       8.018   4.403  25.660  0.00  0.00    +0.000 C 
BRANCH  43  44
ATOM     44  C   UNL     1       8.458   5.510  24.714  0.00  0.00    +0.000 C 
BRANCH  44  45
ATOM     45  C   UNL     1       9.796   5.166  24.070  0.00  0.00    -0.000 C 
BRANCH  45  46
ATOM     46  C   UNL     1      10.760   6.341  24.199  0.00  0.00    -0.000 C 
BRANCH  46  48
ATOM     47  C   UNL     1      12.500   4.924  23.081  0.00  0.00    +0.004 C 
ATOM     48  C   UNL     1      12.207   5.867  24.237  0.00  0.00    -0.003 C 
ENDBRANCH  46  48
ENDBRANCH  45  46
ENDBRANCH  44  45
ENDBRANCH  43  44
ENDBRANCH  42  43
ENDBRANCH  41  42
ENDBRANCH  39  41
ENDBRANCH  38  40
ENDBRANCH  37  38
ENDBRANCH  36  37
ENDBRANCH  35  36
ENDBRANCH  34  35
ENDBRANCH  33  34
ENDBRANCH  32  33
ENDBRANCH  30  32
ENDBRANCH  29  30
ENDBRANCH  28  29
ENDBRANCH   1  28
TORSDOF 38
ENDMDL
MODEL 5
REMARK VINA RESULT:      -4.6      2.593      6.242
REMARK  Name = 
REMARK  40 active torsions:
REMARK  status: ('A' for Active; 'I' for Inactive)
REMARK    1  A    between atoms: C_1  and  C_2
REMARK    2  A    between atoms: C_2  and  C_3
REMARK    3  A    between atoms: C_3  and  C_4
REMARK    4  A    between atoms: C_4  and  C_5
REMARK    5  A    between atoms: C_5  and  C_6
REMARK    6  A    between atoms: C_6  and  C_7
REMARK    7  A    between atoms: C_7  and  C_8
REMARK    8  A    between atoms: C_8  and  C_9
REMARK    9  A    between atoms: C_10  and  C_11
REMARK   10  A    between atoms: C_11  and  C_12
REMARK   11  A    between atoms: C_12  and  C_13
REMARK   12  A    between atoms: C_13  and  C_14
REMARK   13  A    between atoms: C_14  and  C_15
REMARK   14  A    between atoms: C_15  and  C_16
REMARK   15  A    between atoms: C_16  and  C_17
REMARK   16  A    between atoms: C_17  and  C_18
REMARK   17  A    between atoms: C_18  and  O_20
REMARK   18  A    between atoms: O_20  and  C_21
REMARK   19  A    between atoms: C_21  and  C_22
REMARK   20  A    between atoms: C_22  and  C_24
REMARK   21  A    between atoms: C_22  and  O_30
REMARK   22  A    between atoms: C_24  and  O_25
REMARK   23  A    between atoms: O_25  and  P_26
REMARK   24  A    between atoms: P_26  and  O_27
REMARK   25  A    between atoms: P_26  and  O_28
REMARK   26  A    between atoms: O_30  and  C_31
REMARK   27  A    between atoms: C_31  and  C_33
REMARK   28  A    between atoms: C_33  and  C_34
REMARK   29  A    between atoms: C_34  and  C_35
REMARK   30  A    between atoms: C_35  and  C_36
REMARK   31  A    between atoms: C_36  and  C_37
REMARK   32  A    between atoms: C_37  and  C_38
REMARK   33  A    between atoms: C_38  and  C_39
REMARK   34  A    between atoms: C_39  and  C_40
REMARK   35  A    between atoms: C_41  and  C_42
REMARK   36  A    between atoms: C_42  and  C_43
REMARK   37  A    between atoms: C_43  and  C_44
REMARK   38  A    between atoms: C_44  and  C_45
REMARK   39  A    between atoms: C_45  and  C_46
REMARK   40  A    between atoms: C_46  and  C_47
REMARK                            x       y       z     vdW  Elec       q    Type
REMARK                         _______ _______ _______ _____ _____    ______ ____
ROOT
ATOM      1  C   UNL     1       7.916  -3.170  23.807  0.00  0.00    +0.240 C 
ENDROOT
BRANCH   1   2
ATOM      2  O   UNL     1       9.239  -3.657  24.088  0.00  0.00    -0.456 OA
BRANCH   2   3
ATOM      3  C   UNL     1       9.337  -4.598  25.059  0.00  0.00    +0.308 C 
ATOM      4  O   UNL     1       9.823  -5.713  24.919  0.00  0.00    -0.251 OA
BRANCH   3   5
ATOM      5  C   UNL     1       8.694  -4.093  26.324  0.00  0.00    +0.120 C 
BRANCH   5   6
ATOM      6  C   UNL     1       8.098  -5.266  27.096  0.00  0.00    +0.011 C 
BRANCH   6   7
ATOM      7  C   UNL     1       6.580  -5.175  27.226  0.00  0.00    +0.001 C 
BRANCH   7   8
ATOM      8  C   UNL     1       5.938  -5.857  26.029  0.00  0.00    +0.000 C 
BRANCH   8   9
ATOM      9  C   UNL     1       4.788  -6.778  26.432  0.00  0.00    +0.000 C 
BRANCH   9  10
ATOM     10  C   UNL     1       4.517  -6.728  27.939  0.00  0.00    +0.004 C 
BRANCH  10  11
ATOM     11  C   UNL     1       3.035  -6.666  28.321  0.00  0.00    +0.027 C 
BRANCH  11  12
ATOM     12  C   UNL     1       2.141  -6.403  27.141  0.00  0.00    -0.031 C 
ATOM     13  C   UNL     1       1.690  -5.194  26.776  0.00  0.00    -0.031 C 
BRANCH  13  14
ATOM     14  C   UNL     1       2.044  -3.937  27.513  0.00  0.00    +0.027 C 
BRANCH  14  15
ATOM     15  C   UNL     1       2.448  -2.799  26.586  0.00  0.00    +0.004 C 
BRANCH  15  16
ATOM     16  C   UNL     1       3.231  -3.362  25.404  0.00  0.00    +0.000 C 
BRANCH  16  17
ATOM     17  C   UNL     1       4.565  -2.642  25.238  0.00  0.00    -0.000 C 
BRANCH  17  18
ATOM     18  C   UNL     1       4.981  -1.970  26.542  0.00  0.00    -0.003 C 
ATOM     19  C   UNL     1       5.339  -0.516  26.300  0.00  0.00    +0.004 C 
ENDBRANCH  17  18
ENDBRANCH  16  17
ENDBRANCH  15  16
ENDBRANCH  14  15
ENDBRANCH  13  14
ENDBRANCH  11  12
ENDBRANCH  10  11
ENDBRANCH   9  10
ENDBRANCH   8   9
ENDBRANCH   7   8
ENDBRANCH   6   7
ENDBRANCH   5   6
ENDBRANCH   3   5
ENDBRANCH   2   3
ENDBRANCH   1   2
BRANCH   1  20
ATOM     20  C   UNL     1       7.439  -3.702  22.456  0.00  0.00    +0.220 C 
BRANCH  20  21
ATOM     21  O   UNL     1       7.110  -5.091  22.521  0.00  0.00    -0.283 OA
BRANCH  21  22
ATOM     22  P   UNL     1       5.397  -5.328  22.568  0.00  0.00    +0.472 P 
ATOM     23  O   UNL     1       3.864  -5.539  22.611  0.00  0.00    -0.228 OA
BRANCH  22  24
ATOM     24  O   UNL     1       5.346  -4.022  21.579  0.00  0.00    -0.303 OA
ATOM     25  H   UNL     1       4.946  -4.249  20.721  0.00  0.00    +0.222 HD
ENDBRANCH  22  24
BRANCH  22  26
ATOM     26  O   UNL     1       5.694  -6.390  21.360  0.00  0.00    -0.303 OA
ATOM     27  H   UNL     1       4.830  -6.567  20.940  0.00  0.00    +0.222 HD
ENDBRANCH  22  26
ENDBRANCH  21  22
ENDBRANCH  20  21
ENDBRANCH   1  20
BRANCH   1  28
ATOM     28  C   UNL     1       8.011  -1.641  23.852  0.00  0.00    +0.279 C 
BRANCH  28  29
ATOM     29  O   UNL     1       9.329  -1.194  24.195  0.00  0.00    -0.461 OA
BRANCH  29  30
ATOM     30  C   UNL     1       9.385  -0.308  25.229  0.00  0.00    +0.307 C 
ATOM     31  O   UNL     1       8.909  -0.490  26.337  0.00  0.00    -0.251 OA
BRANCH  30  32
ATOM     32  C   UNL     1      10.104   0.942  24.796  0.00  0.00    +0.120 C 
BRANCH  32  33
ATOM     33  C   UNL     1      10.658   0.819  23.376  0.00  0.00    +0.011 C 
BRANCH  33  34
ATOM     34  C   UNL     1      10.136   1.881  22.397  0.00  0.00    +0.001 C 
BRANCH  34  35
ATOM     35  C   UNL     1       8.783   1.488  21.821  0.00  0.00    +0.000 C 
BRANCH  35  36
ATOM     36  C   UNL     1       7.788   2.644  21.807  0.00  0.00    +0.000 C 
BRANCH  36  37
ATOM     37  C   UNL     1       6.444   2.227  22.414  0.00  0.00    +0.004 C 
BRANCH  37  38
ATOM     38  C   UNL     1       6.510   1.836  23.893  0.00  0.00    +0.027 C 
BRANCH  38  40
ATOM     39  C   UNL     1       6.633   3.711  25.575  0.00  0.00    -0.031 C 
ATOM     40  C   UNL     1       5.919   2.888  24.794  0.00  0.00    -0.031 C 
BRANCH  39  41
ATOM     41  C   UNL     1       8.127   3.691  25.608  0.00  0.00    +0.027 C 
BRANCH  41  42
ATOM     42  C   UNL     1       8.757   4.654  24.615  0.00  0.00    +0.004 C 
BRANCH  42  43
ATOM     43  C   UNL     1       8.632   6.075  25.156  0.00  0.00    +0.000 C 
BRANCH  43  44
ATOM     44  C   UNL     1       8.246   7.041  24.047  0.00  0.00    +0.000 C 
BRANCH  44  45
ATOM     45  C   UNL     1       8.318   6.356  22.687  0.00  0.00    -0.000 C 
BRANCH  45  46
ATOM     46  C   UNL     1       7.083   6.695  21.860  0.00  0.00    -0.000 C 
BRANCH  46  48
ATOM     47  C   UNL     1       4.986   5.741  22.851  0.00  0.00    +0.004 C 
ATOM     48  C   UNL     1       5.879   6.968  22.753  0.00  0.00    -0.003 C 
ENDBRANCH  46  48
ENDBRANCH  45  46
ENDBRANCH  44  45
ENDBRANCH  43  44
ENDBRANCH  42  43
ENDBRANCH  41  42
ENDBRANCH  39  41
ENDBRANCH  38  40
ENDBRANCH  37  38
ENDBRANCH  36  37
ENDBRANCH  35  36
ENDBRANCH  34  35
ENDBRANCH  33  34
ENDBRANCH  32  33
ENDBRANCH  30  32
ENDBRANCH  29  30
ENDBRANCH  28  29
ENDBRANCH   1  28
TORSDOF 38
ENDMDL
MODEL 6
REMARK VINA RESULT:      -4.6      1.810      4.519
REMARK  Name = 
REMARK  40 active torsions:
REMARK  status: ('A' for Active; 'I' for Inactive)
REMARK    1  A    between atoms: C_1  and  C_2
REMARK    2  A    between atoms: C_2  and  C_3
REMARK    3  A    between atoms: C_3  and  C_4
REMARK    4  A    between atoms: C_4  and  C_5
REMARK    5  A    between atoms: C_5  and  C_6
REMARK    6  A    between atoms: C_6  and  C_7
REMARK    7  A    between atoms: C_7  and  C_8
REMARK    8  A    between atoms: C_8  and  C_9
REMARK    9  A    between atoms: C_10  and  C_11
REMARK   10  A    between atoms: C_11  and  C_12
REMARK   11  A    between atoms: C_12  and  C_13
REMARK   12  A    between atoms: C_13  and  C_14
REMARK   13  A    between atoms: C_14  and  C_15
REMARK   14  A    between atoms: C_15  and  C_16
REMARK   15  A    between atoms: C_16  and  C_17
REMARK   16  A    between atoms: C_17  and  C_18
REMARK   17  A    between atoms: C_18  and  O_20
REMARK   18  A    between atoms: O_20  and  C_21
REMARK   19  A    between atoms: C_21  and  C_22
REMARK   20  A    between atoms: C_22  and  C_24
REMARK   21  A    between atoms: C_22  and  O_30
REMARK   22  A    between atoms: C_24  and  O_25
REMARK   23  A    between atoms: O_25  and  P_26
REMARK   24  A    between atoms: P_26  and  O_27
REMARK   25  A    between atoms: P_26  and  O_28
REMARK   26  A    between atoms: O_30  and  C_31
REMARK   27  A    between atoms: C_31  and  C_33
REMARK   28  A    between atoms: C_33  and  C_34
REMARK   29  A    between atoms: C_34  and  C_35
REMARK   30  A    between atoms: C_35  and  C_36
REMARK   31  A    between atoms: C_36  and  C_37
REMARK   32  A    between atoms: C_37  and  C_38
REMARK   33  A    between atoms: C_38  and  C_39
REMARK   34  A    between atoms: C_39  and  C_40
REMARK   35  A    between atoms: C_41  and  C_42
REMARK   36  A    between atoms: C_42  and  C_43
REMARK   37  A    between atoms: C_43  and  C_44
REMARK   38  A    between atoms: C_44  and  C_45
REMARK   39  A    between atoms: C_45  and  C_46
REMARK   40  A    between atoms: C_46  and  C_47
REMARK                            x       y       z     vdW  Elec       q    Type
REMARK                         _______ _______ _______ _____ _____    ______ ____
ROOT
ATOM      1  C   UNL     1       5.238  -5.549  24.919  0.00  0.00    +0.240 C 
ENDROOT
BRANCH   1   2
ATOM      2  O   UNL     1       4.962  -4.193  24.530  0.00  0.00    -0.456 OA
BRANCH   2   3
ATOM      3  C   UNL     1       5.177  -3.889  23.226  0.00  0.00    +0.308 C 
ATOM      4  O   UNL     1       4.794  -4.552  22.270  0.00  0.00    -0.251 OA
BRANCH   3   5
ATOM      5  C   UNL     1       6.020  -2.645  23.125  0.00  0.00    +0.120 C 
BRANCH   5   6
ATOM      6  C   UNL     1       7.433  -3.021  22.693  0.00  0.00    +0.011 C 
BRANCH   6   7
ATOM      7  C   UNL     1       8.207  -1.837  22.118  0.00  0.00    +0.001 C 
BRANCH   7   8
ATOM      8  C   UNL     1       9.621  -1.852  22.675  0.00  0.00    +0.000 C 
BRANCH   8   9
ATOM      9  C   UNL     1      10.340  -0.520  22.471  0.00  0.00    +0.000 C 
BRANCH   9  10
ATOM     10  C   UNL     1       9.480   0.482  21.695  0.00  0.00    +0.004 C 
BRANCH  10  11
ATOM     11  C   UNL     1       9.644   1.940  22.132  0.00  0.00    +0.027 C 
BRANCH  11  12
ATOM     12  C   UNL     1      10.598   2.098  23.283  0.00  0.00    -0.031 C 
ATOM     13  C   UNL     1      11.004   3.272  23.787  0.00  0.00    -0.031 C 
BRANCH  13  14
ATOM     14  C   UNL     1      10.530   4.592  23.256  0.00  0.00    +0.027 C 
BRANCH  14  15
ATOM     15  C   UNL     1      10.150   5.573  24.356  0.00  0.00    +0.004 C 
BRANCH  15  16
ATOM     16  C   UNL     1       9.296   6.691  23.765  0.00  0.00    +0.000 C 
BRANCH  16  17
ATOM     17  C   UNL     1       7.831   6.274  23.681  0.00  0.00    -0.000 C 
BRANCH  17  18
ATOM     18  C   UNL     1       7.422   6.026  22.234  0.00  0.00    -0.003 C 
ATOM     19  C   UNL     1       6.916   4.607  22.060  0.00  0.00    +0.004 C 
ENDBRANCH  17  18
ENDBRANCH  16  17
ENDBRANCH  15  16
ENDBRANCH  14  15
ENDBRANCH  13  14
ENDBRANCH  11  12
ENDBRANCH  10  11
ENDBRANCH   9  10
ENDBRANCH   8   9
ENDBRANCH   7   8
ENDBRANCH   6   7
ENDBRANCH   5   6
ENDBRANCH   3   5
ENDBRANCH   2   3
ENDBRANCH   1   2
BRANCH   1  20
ATOM     20  C   UNL     1       3.943  -6.246  25.335  0.00  0.00    +0.220 C 
BRANCH  20  21
ATOM     21  O   UNL     1       3.684  -7.401  24.533  0.00  0.00    -0.283 OA
BRANCH  21  22
ATOM     22  P   UNL     1       2.018  -7.861  24.618  0.00  0.00    +0.472 P 
ATOM     23  O   UNL     1       0.528  -8.272  24.695  0.00  0.00    -0.228 OA
BRANCH  22  24
ATOM     24  O   UNL     1       2.190  -8.196  23.023  0.00  0.00    -0.303 OA
ATOM     25  H   UNL     1       1.773  -7.508  22.475  0.00  0.00    +0.222 HD
ENDBRANCH  22  24
BRANCH  22  26
ATOM     26  O   UNL     1       2.628  -9.295  25.117  0.00  0.00    -0.303 OA
ATOM     27  H   UNL     1       2.932  -9.153  26.034  0.00  0.00    +0.222 HD
ENDBRANCH  22  26
ENDBRANCH  21  22
ENDBRANCH  20  21
ENDBRANCH   1  20
BRANCH   1  28
ATOM     28  C   UNL     1       6.265  -5.460  26.054  0.00  0.00    +0.279 C 
BRANCH  28  29
ATOM     29  O   UNL     1       7.507  -6.082  25.703  0.00  0.00    -0.461 OA
BRANCH  29  30
ATOM     30  C   UNL     1       8.549  -5.223  25.520  0.00  0.00    +0.307 C 
ATOM     31  O   UNL     1       9.347  -5.273  24.598  0.00  0.00    -0.251 OA
BRANCH  30  32
ATOM     32  C   UNL     1       8.585  -4.213  26.636  0.00  0.00    +0.120 C 
BRANCH  32  33
ATOM     33  C   UNL     1       8.706  -2.783  26.107  0.00  0.00    +0.011 C 
BRANCH  33  34
ATOM     34  C   UNL     1       7.486  -1.895  26.394  0.00  0.00    +0.001 C 
BRANCH  34  35
ATOM     35  C   UNL     1       7.906  -0.494  26.816  0.00  0.00    +0.000 C 
BRANCH  35  36
ATOM     36  C   UNL     1       8.373   0.363  25.643  0.00  0.00    +0.000 C 
BRANCH  36  37
ATOM     37  C   UNL     1       7.230   0.619  24.654  0.00  0.00    +0.004 C 
BRANCH  37  38
ATOM     38  C   UNL     1       6.734   2.067  24.619  0.00  0.00    +0.027 C 
BRANCH  38  40
ATOM     39  C   UNL     1       7.360   3.712  26.424  0.00  0.00    -0.031 C 
ATOM     40  C   UNL     1       7.670   3.014  25.323  0.00  0.00    -0.031 C 
BRANCH  39  41
ATOM     41  C   UNL     1       6.032   3.595  27.102  0.00  0.00    +0.027 C 
BRANCH  41  42
ATOM     42  C   UNL     1       5.971   2.444  28.094  0.00  0.00    +0.004 C 
BRANCH  42  43
ATOM     43  C   UNL     1       4.535   1.940  28.178  0.00  0.00    +0.000 C 
BRANCH  43  44
ATOM     44  C   UNL     1       4.285   0.849  27.147  0.00  0.00    +0.000 C 
BRANCH  44  45
ATOM     45  C   UNL     1       3.030   0.057  27.494  0.00  0.00    -0.000 C 
BRANCH  45  46
ATOM     46  C   UNL     1       3.325  -0.929  28.620  0.00  0.00    -0.000 C 
BRANCH  46  48
ATOM     47  C   UNL     1       3.781  -3.239  27.758  0.00  0.00    +0.004 C 
ATOM     48  C   UNL     1       4.401  -1.927  28.212  0.00  0.00    -0.003 C 
ENDBRANCH  46  48
ENDBRANCH  45  46
ENDBRANCH  44  45
ENDBRANCH  43  44
ENDBRANCH  42  43
ENDBRANCH  41  42
ENDBRANCH  39  41
ENDBRANCH  38  40
ENDBRANCH  37  38
ENDBRANCH  36  37
ENDBRANCH  35  36
ENDBRANCH  34  35
ENDBRANCH  33  34
ENDBRANCH  32  33
ENDBRANCH  30  32
ENDBRANCH  29  30
ENDBRANCH  28  29
ENDBRANCH   1  28
TORSDOF 38
ENDMDL
MODEL 7
REMARK VINA RESULT:      -4.6      2.566      6.196
REMARK  Name = 
REMARK  40 active torsions:
REMARK  status: ('A' for Active; 'I' for Inactive)
REMARK    1  A    between atoms: C_1  and  C_2
REMARK    2  A    between atoms: C_2  and  C_3
REMARK    3  A    between atoms: C_3  and  C_4
REMARK    4  A    between atoms: C_4  and  C_5
REMARK    5  A    between atoms: C_5  and  C_6
REMARK    6  A    between atoms: C_6  and  C_7
REMARK    7  A    between atoms: C_7  and  C_8
REMARK    8  A    between atoms: C_8  and  C_9
REMARK    9  A    between atoms: C_10  and  C_11
REMARK   10  A    between atoms: C_11  and  C_12
REMARK   11  A    between atoms: C_12  and  C_13
REMARK   12  A    between atoms: C_13  and  C_14
REMARK   13  A    between atoms: C_14  and  C_15
REMARK   14  A    between atoms: C_15  and  C_16
REMARK   15  A    between atoms: C_16  and  C_17
REMARK   16  A    between atoms: C_17  and  C_18
REMARK   17  A    between atoms: C_18  and  O_20
REMARK   18  A    between atoms: O_20  and  C_21
REMARK   19  A    between atoms: C_21  and  C_22
REMARK   20  A    between atoms: C_22  and  C_24
REMARK   21  A    between atoms: C_22  and  O_30
REMARK   22  A    between atoms: C_24  and  O_25
REMARK   23  A    between atoms: O_25  and  P_26
REMARK   24  A    between atoms: P_26  and  O_27
REMARK   25  A    between atoms: P_26  and  O_28
REMARK   26  A    between atoms: O_30  and  C_31
REMARK   27  A    between atoms: C_31  and  C_33
REMARK   28  A    between atoms: C_33  and  C_34
REMARK   29  A    between atoms: C_34  and  C_35
REMARK   30  A    between atoms: C_35  and  C_36
REMARK   31  A    between atoms: C_36  and  C_37
REMARK   32  A    between atoms: C_37  and  C_38
REMARK   33  A    between atoms: C_38  and  C_39
REMARK   34  A    between atoms: C_39  and  C_40
REMARK   35  A    between atoms: C_41  and  C_42
REMARK   36  A    between atoms: C_42  and  C_43
REMARK   37  A    between atoms: C_43  and  C_44
REMARK   38  A    between atoms: C_44  and  C_45
REMARK   39  A    between atoms: C_45  and  C_46
REMARK   40  A    between atoms: C_46  and  C_47
REMARK                            x       y       z     vdW  Elec       q    Type
REMARK                         _______ _______ _______ _____ _____    ______ ____
ROOT
ATOM      1  C   UNL     1       7.374  -3.304  23.253  0.00  0.00    +0.240 C 
ENDROOT
BRANCH   1   2
ATOM      2  O   UNL     1       8.307  -2.775  22.295  0.00  0.00    -0.456 OA
BRANCH   2   3
ATOM      3  C   UNL     1       9.298  -1.995  22.793  0.00  0.00    +0.308 C 
ATOM      4  O   UNL     1      10.473  -2.034  22.449  0.00  0.00    -0.251 OA
BRANCH   3   5
ATOM      5  C   UNL     1       8.753  -1.116  23.888  0.00  0.00    +0.120 C 
BRANCH   5   6
ATOM      6  C   UNL     1       9.847  -0.844  24.915  0.00  0.00    +0.011 C 
BRANCH   6   7
ATOM      7  C   UNL     1      10.556   0.488  24.681  0.00  0.00    +0.001 C 
BRANCH   7   8
ATOM      8  C   UNL     1       9.537   1.518  24.224  0.00  0.00    +0.000 C 
BRANCH   8   9
ATOM      9  C   UNL     1       9.906   2.147  22.882  0.00  0.00    +0.000 C 
BRANCH   9  10
ATOM     10  C   UNL     1       8.997   1.657  21.752  0.00  0.00    +0.004 C 
BRANCH  10  11
ATOM     11  C   UNL     1       7.767   2.533  21.495  0.00  0.00    +0.027 C 
BRANCH  11  12
ATOM     12  C   UNL     1       6.631   2.230  22.432  0.00  0.00    -0.031 C 
ATOM     13  C   UNL     1       5.829   3.149  22.987  0.00  0.00    -0.031 C 
BRANCH  13  14
ATOM     14  C   UNL     1       5.968   4.618  22.719  0.00  0.00    +0.027 C 
BRANCH  14  15
ATOM     15  C   UNL     1       6.497   5.392  23.918  0.00  0.00    +0.004 C 
BRANCH  15  16
ATOM     16  C   UNL     1       7.246   4.441  24.846  0.00  0.00    +0.000 C 
BRANCH  16  17
ATOM     17  C   UNL     1       8.672   4.924  25.089  0.00  0.00    -0.000 C 
BRANCH  17  18
ATOM     18  C   UNL     1       9.178   5.734  23.902  0.00  0.00    -0.003 C 
ATOM     19  C   UNL     1      10.694   5.750  23.876  0.00  0.00    +0.004 C 
ENDBRANCH  17  18
ENDBRANCH  16  17
ENDBRANCH  15  16
ENDBRANCH  14  15
ENDBRANCH  13  14
ENDBRANCH  11  12
ENDBRANCH  10  11
ENDBRANCH   9  10
ENDBRANCH   8   9
ENDBRANCH   7   8
ENDBRANCH   6   7
ENDBRANCH   5   6
ENDBRANCH   3   5
ENDBRANCH   2   3
ENDBRANCH   1   2
BRANCH   1  20
ATOM     20  C   UNL     1       7.620  -4.800  23.450  0.00  0.00    +0.220 C 
BRANCH  20  21
ATOM     21  O   UNL     1       8.946  -5.060  23.918  0.00  0.00    -0.283 OA
BRANCH  21  22
ATOM     22  P   UNL     1       9.109  -4.658  25.593  0.00  0.00    +0.472 P 
ATOM     23  O   UNL     1       9.255  -4.297  27.091  0.00  0.00    -0.228 OA
BRANCH  22  24
ATOM     24  O   UNL     1       8.204  -6.001  25.844  0.00  0.00    -0.303 OA
ATOM     25  H   UNL     1       8.128  -6.198  26.794  0.00  0.00    +0.222 HD
ENDBRANCH  22  24
BRANCH  22  26
ATOM     26  O   UNL     1      10.519  -5.477  25.464  0.00  0.00    -0.303 OA
ATOM     27  H   UNL     1      10.781  -5.706  26.377  0.00  0.00    +0.222 HD
ENDBRANCH  22  26
ENDBRANCH  21  22
ENDBRANCH  20  21
ENDBRANCH   1  20
BRANCH   1  28
ATOM     28  C   UNL     1       5.979  -2.992  22.699  0.00  0.00    +0.279 C 
BRANCH  28  29
ATOM     29  O   UNL     1       4.976  -3.025  23.721  0.00  0.00    -0.461 OA
BRANCH  29  30
ATOM     30  C   UNL     1       4.072  -4.039  23.606  0.00  0.00    +0.307 C 
ATOM     31  O   UNL     1       4.077  -4.889  22.732  0.00  0.00    -0.251 OA
BRANCH  30  32
ATOM     32  C   UNL     1       3.049  -3.942  24.707  0.00  0.00    +0.120 C 
BRANCH  32  33
ATOM     33  C   UNL     1       2.249  -5.237  24.857  0.00  0.00    +0.011 C 
BRANCH  33  34
ATOM     34  C   UNL     1       2.608  -6.064  26.101  0.00  0.00    +0.001 C 
BRANCH  34  35
ATOM     35  C   UNL     1       3.778  -6.998  25.828  0.00  0.00    +0.000 C 
BRANCH  35  36
ATOM     36  C   UNL     1       5.061  -6.562  26.529  0.00  0.00    +0.000 C 
BRANCH  36  37
ATOM     37  C   UNL     1       4.857  -6.453  28.043  0.00  0.00    +0.004 C 
BRANCH  37  38
ATOM     38  C   UNL     1       5.297  -5.118  28.649  0.00  0.00    +0.027 C 
BRANCH  38  40
ATOM     39  C   UNL     1       5.067  -2.972  27.346  0.00  0.00    -0.031 C 
ATOM     40  C   UNL     1       5.712  -4.119  27.602  0.00  0.00    -0.031 C 
BRANCH  39  41
ATOM     41  C   UNL     1       3.860  -2.540  28.116  0.00  0.00    +0.027 C 
BRANCH  41  42
ATOM     42  C   UNL     1       3.684  -1.031  28.147  0.00  0.00    +0.004 C 
BRANCH  42  43
ATOM     43  C   UNL     1       4.644  -0.441  29.174  0.00  0.00    +0.000 C 
BRANCH  43  44
ATOM     44  C   UNL     1       5.301   0.821  28.635  0.00  0.00    +0.000 C 
BRANCH  44  45
ATOM     45  C   UNL     1       6.753   0.553  28.260  0.00  0.00    -0.000 C 
BRANCH  45  46
ATOM     46  C   UNL     1       7.049   1.105  26.869  0.00  0.00    -0.000 C 
BRANCH  46  48
ATOM     47  C   UNL     1       5.638  -0.009  25.121  0.00  0.00    +0.004 C 
ATOM     48  C   UNL     1       5.780   1.200  26.032  0.00  0.00    -0.003 C 
ENDBRANCH  46  48
ENDBRANCH  45  46
ENDBRANCH  44  45
ENDBRANCH  43  44
ENDBRANCH  42  43
ENDBRANCH  41  42
ENDBRANCH  39  41
ENDBRANCH  38  40
ENDBRANCH  37  38
ENDBRANCH  36  37
ENDBRANCH  35  36
ENDBRANCH  34  35
ENDBRANCH  33  34
ENDBRANCH  32  33
ENDBRANCH  30  32
ENDBRANCH  29  30
ENDBRANCH  28  29
ENDBRANCH   1  28
TORSDOF 38
ENDMDL
MODEL 8
REMARK VINA RESULT:      -4.5      2.562      6.495
REMARK  Name = 
REMARK  40 active torsions:
REMARK  status: ('A' for Active; 'I' for Inactive)
REMARK    1  A    between atoms: C_1  and  C_2
REMARK    2  A    between atoms: C_2  and  C_3
REMARK    3  A    between atoms: C_3  and  C_4
REMARK    4  A    between atoms: C_4  and  C_5
REMARK    5  A    between atoms: C_5  and  C_6
REMARK    6  A    between atoms: C_6  and  C_7
REMARK    7  A    between atoms: C_7  and  C_8
REMARK    8  A    between atoms: C_8  and  C_9
REMARK    9  A    between atoms: C_10  and  C_11
REMARK   10  A    between atoms: C_11  and  C_12
REMARK   11  A    between atoms: C_12  and  C_13
REMARK   12  A    between atoms: C_13  and  C_14
REMARK   13  A    between atoms: C_14  and  C_15
REMARK   14  A    between atoms: C_15  and  C_16
REMARK   15  A    between atoms: C_16  and  C_17
REMARK   16  A    between atoms: C_17  and  C_18
REMARK   17  A    between atoms: C_18  and  O_20
REMARK   18  A    between atoms: O_20  and  C_21
REMARK   19  A    between atoms: C_21  and  C_22
REMARK   20  A    between atoms: C_22  and  C_24
REMARK   21  A    between atoms: C_22  and  O_30
REMARK   22  A    between atoms: C_24  and  O_25
REMARK   23  A    between atoms: O_25  and  P_26
REMARK   24  A    between atoms: P_26  and  O_27
REMARK   25  A    between atoms: P_26  and  O_28
REMARK   26  A    between atoms: O_30  and  C_31
REMARK   27  A    between atoms: C_31  and  C_33
REMARK   28  A    between atoms: C_33  and  C_34
REMARK   29  A    between atoms: C_34  and  C_35
REMARK   30  A    between atoms: C_35  and  C_36
REMARK   31  A    between atoms: C_36  and  C_37
REMARK   32  A    between atoms: C_37  and  C_38
REMARK   33  A    between atoms: C_38  and  C_39
REMARK   34  A    between atoms: C_39  and  C_40
REMARK   35  A    between atoms: C_41  and  C_42
REMARK   36  A    between atoms: C_42  and  C_43
REMARK   37  A    between atoms: C_43  and  C_44
REMARK   38  A    between atoms: C_44  and  C_45
REMARK   39  A    between atoms: C_45  and  C_46
REMARK   40  A    between atoms: C_46  and  C_47
REMARK                            x       y       z     vdW  Elec       q    Type
REMARK                         _______ _______ _______ _____ _____    ______ ____
ROOT
ATOM      1  C   UNL     1       7.609  -3.698  24.121  0.00  0.00    +0.240 C 
ENDROOT
BRANCH   1   2
ATOM      2  O   UNL     1       8.327  -3.802  25.362  0.00  0.00    -0.456 OA
BRANCH   2   3
ATOM      3  C   UNL     1       7.590  -3.671  26.493  0.00  0.00    +0.308 C 
ATOM      4  O   UNL     1       7.172  -2.614  26.950  0.00  0.00    -0.251 OA
BRANCH   3   5
ATOM      5  C   UNL     1       7.418  -5.017  27.146  0.00  0.00    +0.120 C 
BRANCH   5   6
ATOM      6  C   UNL     1       6.142  -5.675  26.631  0.00  0.00    +0.011 C 
BRANCH   6   7
ATOM      7  C   UNL     1       5.133  -5.952  27.743  0.00  0.00    +0.001 C 
BRANCH   7   8
ATOM      8  C   UNL     1       3.894  -6.592  27.139  0.00  0.00    +0.000 C 
BRANCH   8   9
ATOM      9  C   UNL     1       4.143  -7.121  25.727  0.00  0.00    +0.000 C 
BRANCH   9  10
ATOM     10  C   UNL     1       2.907  -7.819  25.152  0.00  0.00    +0.004 C 
BRANCH  10  11
ATOM     11  C   UNL     1       1.617  -6.996  25.220  0.00  0.00    +0.027 C 
BRANCH  11  12
ATOM     12  C   UNL     1       1.349  -6.231  23.954  0.00  0.00    -0.031 C 
ATOM     13  C   UNL     1       1.601  -4.926  23.778  0.00  0.00    -0.031 C 
BRANCH  13  14
ATOM     14  C   UNL     1       2.205  -4.064  24.847  0.00  0.00    +0.027 C 
BRANCH  14  15
ATOM     15  C   UNL     1       3.687  -3.798  24.627  0.00  0.00    +0.004 C 
BRANCH  15  16
ATOM     16  C   UNL     1       4.118  -2.605  25.476  0.00  0.00    +0.000 C 
BRANCH  16  17
ATOM     17  C   UNL     1       3.190  -2.420  26.672  0.00  0.00    -0.000 C 
BRANCH  17  18
ATOM     18  C   UNL     1       3.920  -1.736  27.821  0.00  0.00    -0.003 C 
ATOM     19  C   UNL     1       4.097  -2.693  28.984  0.00  0.00    +0.004 C 
ENDBRANCH  17  18
ENDBRANCH  16  17
ENDBRANCH  15  16
ENDBRANCH  14  15
ENDBRANCH  13  14
ENDBRANCH  11  12
ENDBRANCH  10  11
ENDBRANCH   9  10
ENDBRANCH   8   9
ENDBRANCH   7   8
ENDBRANCH   6   7
ENDBRANCH   5   6
ENDBRANCH   3   5
ENDBRANCH   2   3
ENDBRANCH   1   2
BRANCH   1  20
ATOM     20  C   UNL     1       7.585  -5.054  23.417  0.00  0.00    +0.220 C 
BRANCH  20  21
ATOM     21  O   UNL     1       6.252  -5.468  23.111  0.00  0.00    -0.283 OA
BRANCH  21  22
ATOM     22  P   UNL     1       6.058  -5.755  21.416  0.00  0.00    +0.472 P 
ATOM     23  O   UNL     1       5.883  -6.013  19.900  0.00  0.00    -0.228 OA
BRANCH  22  24
ATOM     24  O   UNL     1       5.810  -4.137  21.328  0.00  0.00    -0.303 OA
ATOM     25  H   UNL     1       6.482  -3.653  21.840  0.00  0.00    +0.222 HD
ENDBRANCH  22  24
BRANCH  22  26
ATOM     26  O   UNL     1       7.689  -5.636  21.394  0.00  0.00    -0.303 OA
ATOM     27  H   UNL     1       8.009  -6.205  22.121  0.00  0.00    +0.222 HD
ENDBRANCH  22  26
ENDBRANCH  21  22
ENDBRANCH  20  21
ENDBRANCH   1  20
BRANCH   1  28
ATOM     28  C   UNL     1       8.324  -2.612  23.310  0.00  0.00    +0.279 C 
BRANCH  28  29
ATOM     29  O   UNL     1       9.291  -1.904  24.095  0.00  0.00    -0.461 OA
BRANCH  29  30
ATOM     30  C   UNL     1      10.297  -1.322  23.383  0.00  0.00    +0.307 C 
ATOM     31  O   UNL     1      10.663  -1.670  22.272  0.00  0.00    -0.251 OA
BRANCH  30  32
ATOM     32  C   UNL     1      10.908  -0.199  24.178  0.00  0.00    +0.120 C 
BRANCH  32  33
ATOM     33  C   UNL     1       9.893   0.906  24.476  0.00  0.00    +0.011 C 
BRANCH  33  34
ATOM     34  C   UNL     1      10.158   2.226  23.737  0.00  0.00    +0.001 C 
BRANCH  34  35
ATOM     35  C   UNL     1      10.167   2.026  22.228  0.00  0.00    +0.000 C 
BRANCH  35  36
ATOM     36  C   UNL     1       8.815   1.577  21.682  0.00  0.00    +0.000 C 
BRANCH  36  37
ATOM     37  C   UNL     1       7.731   2.624  21.958  0.00  0.00    +0.004 C 
BRANCH  37  38
ATOM     38  C   UNL     1       6.444   2.058  22.565  0.00  0.00    +0.027 C 
BRANCH  38  40
ATOM     39  C   UNL     1       6.199   0.415  24.462  0.00  0.00    -0.031 C 
ATOM     40  C   UNL     1       6.661   0.732  23.244  0.00  0.00    -0.031 C 
BRANCH  39  41
ATOM     41  C   UNL     1       5.371   1.356  25.277  0.00  0.00    +0.027 C 
BRANCH  41  42
ATOM     42  C   UNL     1       6.024   1.731  26.597  0.00  0.00    +0.004 C 
BRANCH  42  43
ATOM     43  C   UNL     1       7.253   2.589  26.315  0.00  0.00    +0.000 C 
BRANCH  43  44
ATOM     44  C   UNL     1       6.851   3.915  25.685  0.00  0.00    +0.000 C 
BRANCH  44  45
ATOM     45  C   UNL     1       8.074   4.641  25.137  0.00  0.00    -0.000 C 
BRANCH  45  46
ATOM     46  C   UNL     1       7.648   5.693  24.118  0.00  0.00    -0.000 C 
BRANCH  46  48
ATOM     47  C   UNL     1      10.144   5.925  24.047  0.00  0.00    +0.004 C 
ATOM     48  C   UNL     1       8.840   6.197  23.314  0.00  0.00    -0.003 C 
ENDBRANCH  46  48
ENDBRANCH  45  46
ENDBRANCH  44  45
ENDBRANCH  43  44
ENDBRANCH  42  43
ENDBRANCH  41  42
ENDBRANCH  39  41
ENDBRANCH  38  40
ENDBRANCH  37  38
ENDBRANCH  36  37
ENDBRANCH  35  36
ENDBRANCH  34  35
ENDBRANCH  33  34
ENDBRANCH  32  33
ENDBRANCH  30  32
ENDBRANCH  29  30
ENDBRANCH  28  29
ENDBRANCH   1  28
TORSDOF 38
ENDMDL
MODEL 9
REMARK VINA RESULT:      -4.5      1.674      4.370
REMARK  Name = 
REMARK  40 active torsions:
REMARK  status: ('A' for Active; 'I' for Inactive)
REMARK    1  A    between atoms: C_1  and  C_2
REMARK    2  A    between atoms: C_2  and  C_3
REMARK    3  A    between atoms: C_3  and  C_4
REMARK    4  A    between atoms: C_4  and  C_5
REMARK    5  A    between atoms: C_5  and  C_6
REMARK    6  A    between atoms: C_6  and  C_7
REMARK    7  A    between atoms: C_7  and  C_8
REMARK    8  A    between atoms: C_8  and  C_9
REMARK    9  A    between atoms: C_10  and  C_11
REMARK   10  A    between atoms: C_11  and  C_12
REMARK   11  A    between atoms: C_12  and  C_13
REMARK   12  A    between atoms: C_13  and  C_14
REMARK   13  A    between atoms: C_14  and  C_15
REMARK   14  A    between atoms: C_15  and  C_16
REMARK   15  A    between atoms: C_16  and  C_17
REMARK   16  A    between atoms: C_17  and  C_18
REMARK   17  A    between atoms: C_18  and  O_20
REMARK   18  A    between atoms: O_20  and  C_21
REMARK   19  A    between atoms: C_21  and  C_22
REMARK   20  A    between atoms: C_22  and  C_24
REMARK   21  A    between atoms: C_22  and  O_30
REMARK   22  A    between atoms: C_24  and  O_25
REMARK   23  A    between atoms: O_25  and  P_26
REMARK   24  A    between atoms: P_26  and  O_27
REMARK   25  A    between atoms: P_26  and  O_28
REMARK   26  A    between atoms: O_30  and  C_31
REMARK   27  A    between atoms: C_31  and  C_33
REMARK   28  A    between atoms: C_33  and  C_34
REMARK   29  A    between atoms: C_34  and  C_35
REMARK   30  A    between atoms: C_35  and  C_36
REMARK   31  A    between atoms: C_36  and  C_37
REMARK   32  A    between atoms: C_37  and  C_38
REMARK   33  A    between atoms: C_38  and  C_39
REMARK   34  A    between atoms: C_39  and  C_40
REMARK   35  A    between atoms: C_41  and  C_42
REMARK   36  A    between atoms: C_42  and  C_43
REMARK   37  A    between atoms: C_43  and  C_44
REMARK   38  A    between atoms: C_44  and  C_45
REMARK   39  A    between atoms: C_45  and  C_46
REMARK   40  A    between atoms: C_46  and  C_47
REMARK                            x       y       z     vdW  Elec       q    Type
REMARK                         _______ _______ _______ _____ _____    ______ ____
ROOT
ATOM      1  C   UNL     1       5.083  -5.469  24.118  0.00  0.00    +0.240 C 
ENDROOT
BRANCH   1   2
ATOM      2  O   UNL     1       5.030  -4.065  23.815  0.00  0.00    -0.456 OA
BRANCH   2   3
ATOM      3  C   UNL     1       5.472  -3.700  22.586  0.00  0.00    +0.308 C 
ATOM      4  O   UNL     1       5.325  -4.349  21.558  0.00  0.00    -0.251 OA
BRANCH   3   5
ATOM      5  C   UNL     1       6.236  -2.406  22.683  0.00  0.00    +0.120 C 
BRANCH   5   6
ATOM      6  C   UNL     1       6.411  -2.025  24.150  0.00  0.00    +0.011 C 
BRANCH   6   7
ATOM      7  C   UNL     1       5.744  -0.696  24.497  0.00  0.00    +0.001 C 
BRANCH   7   8
ATOM      8  C   UNL     1       6.390   0.410  23.680  0.00  0.00    +0.000 C 
BRANCH   8   9
ATOM      9  C   UNL     1       5.995   1.801  24.171  0.00  0.00    +0.000 C 
BRANCH   9  10
ATOM     10  C   UNL     1       5.837   2.793  23.014  0.00  0.00    +0.004 C 
BRANCH  10  11
ATOM     11  C   UNL     1       6.889   3.906  22.977  0.00  0.00    +0.027 C 
BRANCH  11  12
ATOM     12  C   UNL     1       6.298   5.253  22.671  0.00  0.00    -0.031 C 
ATOM     13  C   UNL     1       6.995   6.396  22.592  0.00  0.00    -0.031 C 
BRANCH  13  14
ATOM     14  C   UNL     1       8.480   6.459  22.793  0.00  0.00    +0.027 C 
BRANCH  14  15
ATOM     15  C   UNL     1       8.871   6.758  24.233  0.00  0.00    +0.004 C 
BRANCH  15  16
ATOM     16  C   UNL     1      10.060   5.886  24.627  0.00  0.00    +0.000 C 
BRANCH  16  17
ATOM     17  C   UNL     1      11.150   5.933  23.561  0.00  0.00    -0.000 C 
BRANCH  17  18
ATOM     18  C   UNL     1      11.852   4.585  23.448  0.00  0.00    -0.003 C 
ATOM     19  C   UNL     1      10.839   3.456  23.439  0.00  0.00    +0.004 C 
ENDBRANCH  17  18
ENDBRANCH  16  17
ENDBRANCH  15  16
ENDBRANCH  14  15
ENDBRANCH  13  14
ENDBRANCH  11  12
ENDBRANCH  10  11
ENDBRANCH   9  10
ENDBRANCH   8   9
ENDBRANCH   7   8
ENDBRANCH   6   7
ENDBRANCH   5   6
ENDBRANCH   3   5
ENDBRANCH   2   3
ENDBRANCH   1   2
BRANCH   1  20
ATOM     20  C   UNL     1       3.803  -5.897  24.835  0.00  0.00    +0.220 C 
BRANCH  20  21
ATOM     21  O   UNL     1       3.478  -7.263  24.564  0.00  0.00    -0.283 OA
BRANCH  21  22
ATOM     22  P   UNL     1       2.140  -7.790  25.525  0.00  0.00    +0.472 P 
ATOM     23  O   UNL     1       0.942  -8.262  26.385  0.00  0.00    -0.228 OA
BRANCH  22  24
ATOM     24  O   UNL     1       2.697  -9.296  25.196  0.00  0.00    -0.303 OA
ATOM     25  H   UNL     1       1.961  -9.917  25.055  0.00  0.00    +0.222 HD
ENDBRANCH  22  24
BRANCH  22  26
ATOM     26  O   UNL     1       3.171  -7.542  26.770  0.00  0.00    -0.303 OA
ATOM     27  H   UNL     1       3.986  -7.175  26.376  0.00  0.00    +0.222 HD
ENDBRANCH  22  26
ENDBRANCH  21  22
ENDBRANCH  20  21
ENDBRANCH   1  20
BRANCH   1  28
ATOM     28  C   UNL     1       6.344  -5.669  24.968  0.00  0.00    +0.279 C 
BRANCH  28  29
ATOM     29  O   UNL     1       6.045  -6.246  26.245  0.00  0.00    -0.461 OA
BRANCH  29  30
ATOM     30  C   UNL     1       6.583  -5.592  27.312  0.00  0.00    +0.307 C 
ATOM     31  O   UNL     1       7.174  -6.124  28.237  0.00  0.00    -0.251 OA
BRANCH  30  32
ATOM     32  C   UNL     1       6.321  -4.114  27.194  0.00  0.00    +0.120 C 
BRANCH  32  33
ATOM     33  C   UNL     1       5.036  -3.703  27.914  0.00  0.00    +0.011 C 
BRANCH  33  34
ATOM     34  C   UNL     1       4.120  -2.779  27.097  0.00  0.00    +0.001 C 
BRANCH  34  35
ATOM     35  C   UNL     1       3.606  -1.621  27.940  0.00  0.00    +0.000 C 
BRANCH  35  36
ATOM     36  C   UNL     1       3.344  -0.362  27.120  0.00  0.00    +0.000 C 
BRANCH  36  37
ATOM     37  C   UNL     1       4.177   0.818  27.633  0.00  0.00    +0.004 C 
BRANCH  37  38
ATOM     38  C   UNL     1       5.511   0.422  28.272  0.00  0.00    +0.027 C 
BRANCH  38  40
ATOM     39  C   UNL     1       7.804   0.730  27.270  0.00  0.00    -0.031 C 
ATOM     40  C   UNL     1       6.663   1.241  27.754  0.00  0.00    -0.031 C 
BRANCH  39  41
ATOM     41  C   UNL     1       8.042  -0.742  27.161  0.00  0.00    +0.027 C 
BRANCH  41  42
ATOM     42  C   UNL     1       9.025  -1.106  26.060  0.00  0.00    +0.004 C 
BRANCH  42  43
ATOM     43  C   UNL     1       9.547   0.177  25.420  0.00  0.00    +0.000 C 
BRANCH  43  44
ATOM     44  C   UNL     1      10.485  -0.141  24.266  0.00  0.00    +0.000 C 
BRANCH  44  45
ATOM     45  C   UNL     1      10.006  -1.373  23.507  0.00  0.00    -0.000 C 
BRANCH  45  46
ATOM     46  C   UNL     1       9.555  -0.984  22.103  0.00  0.00    -0.000 C 
BRANCH  46  48
ATOM     47  C   UNL     1       8.661   1.163  21.164  0.00  0.00    +0.004 C 
ATOM     48  C   UNL     1       9.856   0.481  21.813  0.00  0.00    -0.003 C 
ENDBRANCH  46  48
ENDBRANCH  45  46
ENDBRANCH  44  45
ENDBRANCH  43  44
ENDBRANCH  42  43
ENDBRANCH  41  42
ENDBRANCH  39  41
ENDBRANCH  38  40
ENDBRANCH  37  38
ENDBRANCH  36  37
ENDBRANCH  35  36
ENDBRANCH  34  35
ENDBRANCH  33  34
ENDBRANCH  32  33
ENDBRANCH  30  32
ENDBRANCH  29  30
ENDBRANCH  28  29
ENDBRANCH   1  28
TORSDOF 38
ENDMDL
