MODEL 1
REMARK VINA RESULT:      -3.2      0.000      0.000
REMARK  Name = 
REMARK  5 active torsions:
REMARK  status: ('A' for Active; 'I' for Inactive)
REMARK    1  A    between atoms: C_1  and  C_2
REMARK    2  A    between atoms: C_2  and  O_4
REMARK    3  A    between atoms: C_2  and  C_5
REMARK    4  A    between atoms: C_5  and  C_7
REMARK    5  A    between atoms: C_5  and  O_8
REMARK                            x       y       z     vdW  Elec       q    Type
REMARK                         _______ _______ _______ _____ _____    ______ ____
ROOT
ATOM      1  C   UNL     1       6.825  -5.239  25.534  0.00  0.00    +0.040 C 
ATOM      2  C   UNL     1       7.877  -4.906  26.586  0.00  0.00    +0.140 C 
ENDROOT
BRANCH   2   3
ATOM      3  C   UNL     1       9.288  -4.765  25.978  0.00  0.00    +0.140 C 
ATOM      4  C   UNL     1       9.289  -3.846  24.760  0.00  0.00    +0.040 C 
BRANCH   3   5
ATOM      5  O   UNL     1       9.785  -6.045  25.584  0.00  0.00    -0.390 OA
ATOM      6  H   UNL     1      10.600  -5.891  25.075  0.00  0.00    +0.210 HD
ENDBRANCH   3   5
ENDBRANCH   2   3
BRANCH   2   7
ATOM      7  O   UNL     1       7.882  -5.943  27.571  0.00  0.00    -0.390 OA
ATOM      8  H   UNL     1       7.123  -6.522  27.386  0.00  0.00    +0.210 HD
ENDBRANCH   2   7
TORSDOF 3
ENDMDL
MODEL 2
REMARK VINA RESULT:      -3.1      6.467      7.443
REMARK  Name = 
REMARK  5 active torsions:
REMARK  status: ('A' for Active; 'I' for Inactive)
REMARK    1  A    between atoms: C_1  and  C_2
REMARK    2  A    between atoms: C_2  and  O_4
REMARK    3  A    between atoms: C_2  and  C_5
REMARK    4  A    between atoms: C_5  and  C_7
REMARK    5  A    between atoms: C_5  and  O_8
REMARK                            x       y       z     vdW  Elec       q    Type
REMARK                         _______ _______ _______ _____ _____    ______ ____
ROOT
ATOM      1  C   UNL     1       7.653   1.747  21.947  0.00  0.00    +0.040 C 
ATOM      2  C   UNL     1       8.948   1.155  21.401  0.00  0.00    +0.140 C 
ENDROOT
BRANCH   2   3
ATOM      3  C   UNL     1       9.354  -0.139  22.135  0.00  0.00    +0.140 C 
ATOM      4  C   UNL     1      10.382   0.130  23.230  0.00  0.00    +0.040 C 
BRANCH   3   5
ATOM      5  O   UNL     1       9.909  -1.077  21.211  0.00  0.00    -0.390 OA
ATOM      6  H   UNL     1      10.868  -1.106  21.373  0.00  0.00    +0.210 HD
ENDBRANCH   3   5
ENDBRANCH   2   3
BRANCH   2   7
ATOM      7  O   UNL     1       9.988   2.127  21.535  0.00  0.00    -0.390 OA
ATOM      8  H   UNL     1      10.757   1.678  21.926  0.00  0.00    +0.210 HD
ENDBRANCH   2   7
TORSDOF 3
ENDMDL
MODEL 3
REMARK VINA RESULT:      -3.0      7.360      8.365
REMARK  Name = 
REMARK  5 active torsions:
REMARK  status: ('A' for Active; 'I' for Inactive)
REMARK    1  A    between atoms: C_1  and  C_2
REMARK    2  A    between atoms: C_2  and  O_4
REMARK    3  A    between atoms: C_2  and  C_5
REMARK    4  A    between atoms: C_5  and  C_7
REMARK    5  A    between atoms: C_5  and  O_8
REMARK                            x       y       z     vdW  Elec       q    Type
REMARK                         _______ _______ _______ _____ _____    ______ ____
ROOT
ATOM      1  C   UNL     1       9.336   0.023  21.400  0.00  0.00    +0.040 C 
ATOM      2  C   UNL     1       9.069   1.381  22.039  0.00  0.00    +0.140 C 
ENDROOT
BRANCH   2   3
ATOM      3  C   UNL     1       7.655   1.909  21.720  0.00  0.00    +0.140 C 
ATOM      4  C   UNL     1       7.470   3.350  22.184  0.00  0.00    +0.040 C 
BRANCH   3   5
ATOM      5  O   UNL     1       6.670   1.095  22.359  0.00  0.00    -0.390 OA
ATOM      6  H   UNL     1       6.537   0.312  21.796  0.00  0.00    +0.210 HD
ENDBRANCH   3   5
ENDBRANCH   2   3
BRANCH   2   7
ATOM      7  O   UNL     1      10.045   2.311  21.561  0.00  0.00    -0.390 OA
ATOM      8  H   UNL     1      10.767   2.334  22.212  0.00  0.00    +0.210 HD
ENDBRANCH   2   7
TORSDOF 3
ENDMDL
MODEL 4
REMARK VINA RESULT:      -3.0      6.894      7.678
REMARK  Name = 
REMARK  5 active torsions:
REMARK  status: ('A' for Active; 'I' for Inactive)
REMARK    1  A    between atoms: C_1  and  C_2
REMARK    2  A    between atoms: C_2  and  O_4
REMARK    3  A    between atoms: C_2  and  C_5
REMARK    4  A    between atoms: C_5  and  C_7
REMARK    5  A    between atoms: C_5  and  O_8
REMARK                            x       y       z     vdW  Elec       q    Type
REMARK                         _______ _______ _______ _____ _____    ______ ____
ROOT
ATOM      1  C   UNL     1       9.388  -0.044  21.509  0.00  0.00    +0.040 C 
ATOM      2  C   UNL     1      10.068   1.167  22.138  0.00  0.00    +0.140 C 
ENDROOT
BRANCH   2   3
ATOM      3  C   UNL     1       9.878   1.216  23.668  0.00  0.00    +0.140 C 
ATOM      4  C   UNL     1       9.426   2.595  24.138  0.00  0.00    +0.040 C 
BRANCH   3   5
ATOM      5  O   UNL     1      11.102   0.889  24.327  0.00  0.00    -0.390 OA
ATOM      6  H   UNL     1      11.172  -0.082  24.337  0.00  0.00    +0.210 HD
ENDBRANCH   3   5
ENDBRANCH   2   3
BRANCH   2   7
ATOM      7  O   UNL     1       9.524   2.352  21.550  0.00  0.00    -0.390 OA
ATOM      8  H   UNL     1       8.555   2.271  21.579  0.00  0.00    +0.210 HD
ENDBRANCH   2   7
TORSDOF 3
ENDMDL
MODEL 5
REMARK VINA RESULT:      -3.0      6.457      7.421
REMARK  Name = 
REMARK  5 active torsions:
REMARK  status: ('A' for Active; 'I' for Inactive)
REMARK    1  A    between atoms: C_1  and  C_2
REMARK    2  A    between atoms: C_2  and  O_4
REMARK    3  A    between atoms: C_2  and  C_5
REMARK    4  A    between atoms: C_5  and  C_7
REMARK    5  A    between atoms: C_5  and  O_8
REMARK                            x       y       z     vdW  Elec       q    Type
REMARK                         _______ _______ _______ _____ _____    ______ ____
ROOT
ATOM      1  C   UNL     1       8.039  -0.035  22.661  0.00  0.00    +0.040 C 
ATOM      2  C   UNL     1       9.524  -0.035  22.314  0.00  0.00    +0.140 C 
ENDROOT
BRANCH   2   3
ATOM      3  C   UNL     1      10.075   1.390  22.103  0.00  0.00    +0.140 C 
ATOM      4  C   UNL     1      10.335   2.099  23.429  0.00  0.00    +0.040 C 
BRANCH   3   5
ATOM      5  O   UNL     1       9.147   2.170  21.346  0.00  0.00    -0.390 OA
ATOM      6  H   UNL     1       9.491   2.220  20.436  0.00  0.00    +0.210 HD
ENDBRANCH   3   5
ENDBRANCH   2   3
BRANCH   2   7
ATOM      7  O   UNL     1       9.715  -0.803  21.123  0.00  0.00    -0.390 OA
ATOM      8  H   UNL     1      10.672  -0.842  20.954  0.00  0.00    +0.210 HD
ENDBRANCH   2   7
TORSDOF 3
ENDMDL
MODEL 6
REMARK VINA RESULT:      -3.0      5.038      6.164
REMARK  Name = 
REMARK  5 active torsions:
REMARK  status: ('A' for Active; 'I' for Inactive)
REMARK    1  A    between atoms: C_1  and  C_2
REMARK    2  A    between atoms: C_2  and  O_4
REMARK    3  A    between atoms: C_2  and  C_5
REMARK    4  A    between atoms: C_5  and  C_7
REMARK    5  A    between atoms: C_5  and  O_8
REMARK                            x       y       z     vdW  Elec       q    Type
REMARK                         _______ _______ _______ _____ _____    ______ ____
ROOT
ATOM      1  C   UNL     1       9.800  -2.393  23.669  0.00  0.00    +0.040 C 
ATOM      2  C   UNL     1      10.416  -1.338  22.756  0.00  0.00    +0.140 C 
ENDROOT
BRANCH   2   3
ATOM      3  C   UNL     1      10.009   0.093  23.160  0.00  0.00    +0.140 C 
ATOM      4  C   UNL     1       9.904   1.015  21.949  0.00  0.00    +0.040 C 
BRANCH   3   5
ATOM      5  O   UNL     1      10.968   0.641  24.067  0.00  0.00    -0.390 OA
ATOM      6  H   UNL     1      10.654   0.446  24.968  0.00  0.00    +0.210 HD
ENDBRANCH   3   5
ENDBRANCH   2   3
BRANCH   2   7
ATOM      7  O   UNL     1       9.997  -1.594  21.413  0.00  0.00    -0.390 OA
ATOM      8  H   UNL     1       9.026  -1.653  21.419  0.00  0.00    +0.210 HD
ENDBRANCH   2   7
TORSDOF 3
ENDMDL
MODEL 7
REMARK VINA RESULT:      -3.0      7.316      7.687
REMARK  Name = 
REMARK  5 active torsions:
REMARK  status: ('A' for Active; 'I' for Inactive)
REMARK    1  A    between atoms: C_1  and  C_2
REMARK    2  A    between atoms: C_2  and  O_4
REMARK    3  A    between atoms: C_2  and  C_5
REMARK    4  A    between atoms: C_5  and  C_7
REMARK    5  A    between atoms: C_5  and  O_8
REMARK                            x       y       z     vdW  Elec       q    Type
REMARK                         _______ _______ _______ _____ _____    ______ ____
ROOT
ATOM      1  C   UNL     1      10.833   0.624  24.173  0.00  0.00    +0.040 C 
ATOM      2  C   UNL     1       9.573   1.370  23.748  0.00  0.00    +0.140 C 
ENDROOT
BRANCH   2   3
ATOM      3  C   UNL     1       9.392   1.385  22.217  0.00  0.00    +0.140 C 
ATOM      4  C   UNL     1       9.638   0.010  21.604  0.00  0.00    +0.040 C 
BRANCH   3   5
ATOM      5  O   UNL     1      10.298   2.316  21.622  0.00  0.00    -0.390 OA
ATOM      6  H   UNL     1      10.266   2.173  20.660  0.00  0.00    +0.210 HD
ENDBRANCH   3   5
ENDBRANCH   2   3
BRANCH   2   7
ATOM      7  O   UNL     1       9.651   2.713  24.234  0.00  0.00    -0.390 OA
ATOM      8  H   UNL     1       9.586   2.675  25.204  0.00  0.00    +0.210 HD
ENDBRANCH   2   7
TORSDOF 3
ENDMDL
MODEL 8
REMARK VINA RESULT:      -3.0      4.769      6.009
REMARK  Name = 
REMARK  5 active torsions:
REMARK  status: ('A' for Active; 'I' for Inactive)
REMARK    1  A    between atoms: C_1  and  C_2
REMARK    2  A    between atoms: C_2  and  O_4
REMARK    3  A    between atoms: C_2  and  C_5
REMARK    4  A    between atoms: C_5  and  C_7
REMARK    5  A    between atoms: C_5  and  O_8
REMARK                            x       y       z     vdW  Elec       q    Type
REMARK                         _______ _______ _______ _____ _____    ______ ____
ROOT
ATOM      1  C   UNL     1       9.767   0.798  21.805  0.00  0.00    +0.040 C 
ATOM      2  C   UNL     1       9.378  -0.634  22.158  0.00  0.00    +0.140 C 
ENDROOT
BRANCH   2   3
ATOM      3  C   UNL     1       9.539  -0.927  23.664  0.00  0.00    +0.140 C 
ATOM      4  C   UNL     1      10.457   0.084  24.344  0.00  0.00    +0.040 C 
BRANCH   3   5
ATOM      5  O   UNL     1      10.081  -2.235  23.856  0.00  0.00    -0.390 OA
ATOM      6  H   UNL     1      10.119  -2.391  24.817  0.00  0.00    +0.210 HD
ENDBRANCH   3   5
ENDBRANCH   2   3
BRANCH   2   7
ATOM      7  O   UNL     1      10.201  -1.530  21.406  0.00  0.00    -0.390 OA
ATOM      8  H   UNL     1      11.127  -1.312  21.608  0.00  0.00    +0.210 HD
ENDBRANCH   2   7
TORSDOF 3
ENDMDL
MODEL 9
REMARK VINA RESULT:      -2.9      1.388      2.417
REMARK  Name = 
REMARK  5 active torsions:
REMARK  status: ('A' for Active; 'I' for Inactive)
REMARK    1  A    between atoms: C_1  and  C_2
REMARK    2  A    between atoms: C_2  and  O_4
REMARK    3  A    between atoms: C_2  and  C_5
REMARK    4  A    between atoms: C_5  and  C_7
REMARK    5  A    between atoms: C_5  and  O_8
REMARK                            x       y       z     vdW  Elec       q    Type
REMARK                         _______ _______ _______ _____ _____    ______ ____
ROOT
ATOM      1  C   UNL     1       8.242  -4.206  23.895  0.00  0.00    +0.040 C 
ATOM      2  C   UNL     1       8.795  -5.262  24.846  0.00  0.00    +0.140 C 
ENDROOT
BRANCH   2   3
ATOM      3  C   UNL     1       8.316  -5.049  26.297  0.00  0.00    +0.140 C 
ATOM      4  C   UNL     1       7.371  -3.857  26.412  0.00  0.00    +0.040 C 
BRANCH   3   5
ATOM      5  O   UNL     1       9.435  -4.828  27.157  0.00  0.00    -0.390 OA
ATOM      6  H   UNL     1      10.088  -5.524  26.964  0.00  0.00    +0.210 HD
ENDBRANCH   3   5
ENDBRANCH   2   3
BRANCH   2   7
ATOM      7  O   UNL     1      10.223  -5.213  24.802  0.00  0.00    -0.390 OA
ATOM      8  H   UNL     1      10.470  -4.484  24.207  0.00  0.00    +0.210 HD
ENDBRANCH   2   7
TORSDOF 3
ENDMDL
