MODEL 1
REMARK VINA RESULT:      -6.9      0.000      0.000
REMARK  Name = 
REMARK  5 active torsions:
REMARK  status: ('A' for Active; 'I' for Inactive)
REMARK    1  A    between atoms: C_2  and  C_3
REMARK    2  A    between atoms: C_3  and  C_4
REMARK    3  A    between atoms: C_4  and  C_6
REMARK    4  A    between atoms: C_4  and  N_11
REMARK    5  A    between atoms: C_13  and  C_16
REMARK                            x       y       z     vdW  Elec       q    Type
REMARK                         _______ _______ _______ _____ _____    ______ ____
ROOT
ATOM      1  N   UNL     1       8.645  -2.720  24.028  0.00  0.00    -0.267 N 
ATOM      2  N   UNL     1       9.857  -3.005  23.513  0.00  0.00    -0.179 NA
ATOM      3  C   UNL     1      10.381  -1.802  23.258  0.00  0.00    +0.144 A 
ATOM      4  C   UNL     1       9.517  -0.746  23.610  0.00  0.00    +0.039 A 
ATOM      5  C   UNL     1       8.399  -1.380  24.110  0.00  0.00    +0.118 A 
ENDROOT
BRANCH   4   6
ATOM      6  C   UNL     1       9.655   0.685  23.489  0.00  0.00    +0.086 A 
ATOM      7  N   UNL     1      10.772   1.267  23.991  0.00  0.00    -0.235 NA
ATOM      8  C   UNL     1      10.873   2.604  23.909  0.00  0.00    +0.224 A 
ATOM      9  N   UNL     1       9.993   3.469  23.372  0.00  0.00    -0.218 NA
ATOM     10  C   UNL     1       8.920   2.837  22.876  0.00  0.00    +0.142 A 
ATOM     11  N   UNL     1       7.868   3.460  22.263  0.00  0.00    -0.346 N 
ATOM     12  H   UNL     1       7.808   4.460  22.128  0.00  0.00    +0.167 HD
ATOM     13  C   UNL     1       6.944   2.527  21.865  0.00  0.00    +0.085 A 
ATOM     14  C   UNL     1       7.419   1.285  22.231  0.00  0.00    +0.031 A 
ATOM     15  C   UNL     1       8.670   1.472  22.888  0.00  0.00    +0.045 A 
ENDBRANCH   4   6
BRANCH   1  16
ATOM     16  C   UNL     1       7.768  -3.824  24.422  0.00  0.00    +0.124 C 
BRANCH  16  17
ATOM     17  C   UNL     1       6.877  -4.296  23.252  0.00  0.00    +0.015 C 
ATOM     18  C   UNL     1       5.456  -4.688  23.704  0.00  0.00    +0.005 C 
ATOM     19  C   UNL     1       4.988  -5.786  22.750  0.00  0.00    +0.000 C 
ATOM     20  C   UNL     1       6.137  -6.016  21.779  0.00  0.00    +0.000 C 
ATOM     21  C   UNL     1       7.370  -5.559  22.544  0.00  0.00    +0.005 C 
ENDBRANCH  16  17
BRANCH  16  22
ATOM     22  C   UNL     1       8.553  -4.923  25.154  0.00  0.00    +0.145 C 
BRANCH  22  24
ATOM     23  N   UNL     1       7.518  -5.597  27.473  0.00  0.00    -0.196 NA
ATOM     24  C   UNL     1       7.978  -5.296  26.451  0.00  0.00    +0.065 C 
ENDBRANCH  22  24
ENDBRANCH  16  22
ENDBRANCH   1  16
TORSDOF 5
ENDMDL
MODEL 2
REMARK VINA RESULT:      -6.8      2.013      3.524
REMARK  Name = 
REMARK  5 active torsions:
REMARK  status: ('A' for Active; 'I' for Inactive)
REMARK    1  A    between atoms: C_2  and  C_3
REMARK    2  A    between atoms: C_3  and  C_4
REMARK    3  A    between atoms: C_4  and  C_6
REMARK    4  A    between atoms: C_4  and  N_11
REMARK    5  A    between atoms: C_13  and  C_16
REMARK                            x       y       z     vdW  Elec       q    Type
REMARK                         _______ _______ _______ _____ _____    ______ ____
ROOT
ATOM      1  N   UNL     1       8.088  -2.007  22.585  0.00  0.00    -0.267 N 
ATOM      2  N   UNL     1       9.172  -1.854  21.799  0.00  0.00    -0.179 NA
ATOM      3  C   UNL     1       9.286  -0.528  21.677  0.00  0.00    +0.144 A 
ATOM      4  C   UNL     1       8.287   0.173  22.381  0.00  0.00    +0.039 A 
ATOM      5  C   UNL     1       7.528  -0.821  22.962  0.00  0.00    +0.118 A 
ENDROOT
BRANCH   4   6
ATOM      6  C   UNL     1       8.013   1.583  22.506  0.00  0.00    +0.086 A 
ATOM      7  N   UNL     1       6.768   2.025  22.202  0.00  0.00    -0.235 NA
ATOM      8  C   UNL     1       6.534   3.346  22.283  0.00  0.00    +0.224 A 
ATOM      9  N   UNL     1       7.391   4.317  22.645  0.00  0.00    -0.218 NA
ATOM     10  C   UNL     1       8.598   3.821  22.952  0.00  0.00    +0.142 A 
ATOM     11  N   UNL     1       9.664   4.574  23.362  0.00  0.00    -0.346 N 
ATOM     12  H   UNL     1       9.634   5.578  23.472  0.00  0.00    +0.167 HD
ATOM     13  C   UNL     1      10.742   3.759  23.603  0.00  0.00    +0.085 A 
ATOM     14  C   UNL     1      10.352   2.462  23.342  0.00  0.00    +0.031 A 
ATOM     15  C   UNL     1       8.993   2.492  22.914  0.00  0.00    +0.045 A 
ENDBRANCH   4   6
BRANCH   1  16
ATOM     16  C   UNL     1       7.651  -3.362  22.929  0.00  0.00    +0.124 C 
BRANCH  16  17
ATOM     17  C   UNL     1       7.918  -3.693  24.414  0.00  0.00    +0.015 C 
ATOM     18  C   UNL     1       9.413  -3.914  24.716  0.00  0.00    +0.005 C 
ATOM     19  C   UNL     1       9.476  -4.924  25.862  0.00  0.00    +0.000 C 
ATOM     20  C   UNL     1       8.032  -5.274  26.192  0.00  0.00    +0.000 C 
ATOM     21  C   UNL     1       7.275  -4.991  24.903  0.00  0.00    +0.005 C 
ENDBRANCH  16  17
BRANCH  16  22
ATOM     22  C   UNL     1       6.225  -3.629  22.427  0.00  0.00    +0.145 C 
BRANCH  22  24
ATOM     23  N   UNL     1       6.057  -5.593  20.690  0.00  0.00    -0.196 NA
ATOM     24  C   UNL     1       6.135  -4.723  21.454  0.00  0.00    +0.065 C 
ENDBRANCH  22  24
ENDBRANCH  16  22
ENDBRANCH   1  16
TORSDOF 5
ENDMDL
MODEL 3
REMARK VINA RESULT:      -6.6      1.267      2.170
REMARK  Name = 
REMARK  5 active torsions:
REMARK  status: ('A' for Active; 'I' for Inactive)
REMARK    1  A    between atoms: C_2  and  C_3
REMARK    2  A    between atoms: C_3  and  C_4
REMARK    3  A    between atoms: C_4  and  C_6
REMARK    4  A    between atoms: C_4  and  N_11
REMARK    5  A    between atoms: C_13  and  C_16
REMARK                            x       y       z     vdW  Elec       q    Type
REMARK                         _______ _______ _______ _____ _____    ______ ____
ROOT
ATOM      1  N   UNL     1       8.089  -2.083  23.231  0.00  0.00    -0.267 N 
ATOM      2  N   UNL     1       9.070  -2.066  22.306  0.00  0.00    -0.179 NA
ATOM      3  C   UNL     1       9.181  -0.773  21.990  0.00  0.00    +0.144 A 
ATOM      4  C   UNL     1       8.282   0.044  22.705  0.00  0.00    +0.039 A 
ATOM      5  C   UNL     1       7.590  -0.842  23.505  0.00  0.00    +0.118 A 
ENDROOT
BRANCH   4   6
ATOM      6  C   UNL     1       8.039   1.464  22.665  0.00  0.00    +0.086 A 
ATOM      7  N   UNL     1       6.810   1.895  22.290  0.00  0.00    -0.235 NA
ATOM      8  C   UNL     1       6.605   3.222  22.217  0.00  0.00    +0.224 A 
ATOM      9  N   UNL     1       7.478   4.209  22.485  0.00  0.00    -0.218 NA
ATOM     10  C   UNL     1       8.668   3.725  22.869  0.00  0.00    +0.142 A 
ATOM     11  N   UNL     1       9.744   4.496  23.212  0.00  0.00    -0.346 N 
ATOM     12  H   UNL     1       9.736   5.507  23.208  0.00  0.00    +0.167 HD
ATOM     13  C   UNL     1      10.798   3.692  23.564  0.00  0.00    +0.085 A 
ATOM     14  C   UNL     1      10.383   2.382  23.442  0.00  0.00    +0.031 A 
ATOM     15  C   UNL     1       9.033   2.392  22.988  0.00  0.00    +0.045 A 
ENDBRANCH   4   6
BRANCH   1  16
ATOM     16  C   UNL     1       7.685  -3.366  23.808  0.00  0.00    +0.124 C 
BRANCH  16  17
ATOM     17  C   UNL     1       6.839  -4.200  22.820  0.00  0.00    +0.015 C 
ATOM     18  C   UNL     1       5.425  -4.503  23.353  0.00  0.00    +0.005 C 
ATOM     19  C   UNL     1       5.022  -5.853  22.761  0.00  0.00    +0.000 C 
ATOM     20  C   UNL     1       6.201  -6.308  21.913  0.00  0.00    +0.000 C 
ATOM     21  C   UNL     1       7.397  -5.592  22.522  0.00  0.00    +0.005 C 
ENDBRANCH  16  17
BRANCH  16  22
ATOM     22  C   UNL     1       8.880  -4.089  24.447  0.00  0.00    +0.145 C 
BRANCH  22  24
ATOM     23  N   UNL     1       8.472  -4.812  26.939  0.00  0.00    -0.196 NA
ATOM     24  C   UNL     1       8.654  -4.487  25.840  0.00  0.00    +0.065 C 
ENDBRANCH  22  24
ENDBRANCH  16  22
ENDBRANCH   1  16
TORSDOF 5
ENDMDL
MODEL 4
REMARK VINA RESULT:      -6.6      1.812      7.222
REMARK  Name = 
REMARK  5 active torsions:
REMARK  status: ('A' for Active; 'I' for Inactive)
REMARK    1  A    between atoms: C_2  and  C_3
REMARK    2  A    between atoms: C_3  and  C_4
REMARK    3  A    between atoms: C_4  and  C_6
REMARK    4  A    between atoms: C_4  and  N_11
REMARK    5  A    between atoms: C_13  and  C_16
REMARK                            x       y       z     vdW  Elec       q    Type
REMARK                         _______ _______ _______ _____ _____    ______ ____
ROOT
ATOM      1  N   UNL     1       8.911  -0.955  23.576  0.00  0.00    -0.267 N 
ATOM      2  N   UNL     1       9.999  -1.685  23.894  0.00  0.00    -0.179 NA
ATOM      3  C   UNL     1       9.498  -2.896  24.154  0.00  0.00    +0.144 A 
ATOM      4  C   UNL     1       8.099  -2.953  24.002  0.00  0.00    +0.039 A 
ATOM      5  C   UNL     1       7.751  -1.673  23.623  0.00  0.00    +0.118 A 
ENDROOT
BRANCH   4   6
ATOM      6  C   UNL     1       7.157  -4.027  24.200  0.00  0.00    +0.086 A 
ATOM      7  N   UNL     1       6.730  -4.282  25.462  0.00  0.00    -0.235 NA
ATOM      8  C   UNL     1       5.883  -5.310  25.642  0.00  0.00    +0.224 A 
ATOM      9  N   UNL     1       5.378  -6.139  24.710  0.00  0.00    -0.218 NA
ATOM     10  C   UNL     1       5.818  -5.827  23.482  0.00  0.00    +0.142 A 
ATOM     11  N   UNL     1       5.464  -6.492  22.340  0.00  0.00    -0.346 N 
ATOM     12  H   UNL     1       4.834  -7.282  22.322  0.00  0.00    +0.167 HD
ATOM     13  C   UNL     1       6.081  -5.916  21.258  0.00  0.00    +0.085 A 
ATOM     14  C   UNL     1       6.841  -4.863  21.722  0.00  0.00    +0.031 A 
ATOM     15  C   UNL     1       6.692  -4.806  23.137  0.00  0.00    +0.045 A 
ENDBRANCH   4   6
BRANCH   1  16
ATOM     16  C   UNL     1       9.084   0.458  23.235  0.00  0.00    +0.124 C 
BRANCH  16  17
ATOM     17  C   UNL     1       7.740   1.134  22.883  0.00  0.00    +0.015 C 
ATOM     18  C   UNL     1       7.869   2.159  21.740  0.00  0.00    +0.005 C 
ATOM     19  C   UNL     1       6.812   3.232  22.002  0.00  0.00    +0.000 C 
ATOM     20  C   UNL     1       6.105   2.820  23.285  0.00  0.00    +0.000 C 
ATOM     21  C   UNL     1       7.127   1.960  24.015  0.00  0.00    +0.005 C 
ENDBRANCH  16  17
BRANCH  16  22
ATOM     22  C   UNL     1       9.945   1.181  24.281  0.00  0.00    +0.145 C 
BRANCH  22  24
ATOM     23  N   UNL     1      11.167   3.312  23.351  0.00  0.00    -0.196 NA
ATOM     24  C   UNL     1      10.625   2.373  23.766  0.00  0.00    +0.065 C 
ENDBRANCH  22  24
ENDBRANCH  16  22
ENDBRANCH   1  16
TORSDOF 5
ENDMDL
MODEL 5
REMARK VINA RESULT:      -6.5      1.931      3.018
REMARK  Name = 
REMARK  5 active torsions:
REMARK  status: ('A' for Active; 'I' for Inactive)
REMARK    1  A    between atoms: C_2  and  C_3
REMARK    2  A    between atoms: C_3  and  C_4
REMARK    3  A    between atoms: C_4  and  C_6
REMARK    4  A    between atoms: C_4  and  N_11
REMARK    5  A    between atoms: C_13  and  C_16
REMARK                            x       y       z     vdW  Elec       q    Type
REMARK                         _______ _______ _______ _____ _____    ______ ____
ROOT
ATOM      1  N   UNL     1       7.069  -3.550  24.302  0.00  0.00    -0.267 N 
ATOM      2  N   UNL     1       6.088  -2.776  24.807  0.00  0.00    -0.179 NA
ATOM      3  C   UNL     1       6.615  -1.548  24.785  0.00  0.00    +0.144 A 
ATOM      4  C   UNL     1       7.926  -1.525  24.267  0.00  0.00    +0.039 A 
ATOM      5  C   UNL     1       8.187  -2.845  23.961  0.00  0.00    +0.118 A 
ENDROOT
BRANCH   4   6
ATOM      6  C   UNL     1       8.866  -0.447  24.086  0.00  0.00    +0.086 A 
ATOM      7  N   UNL     1      10.003  -0.456  24.825  0.00  0.00    -0.235 NA
ATOM      8  C   UNL     1      10.854   0.574  24.678  0.00  0.00    +0.224 A 
ATOM      9  N   UNL     1      10.731   1.639  23.866  0.00  0.00    -0.218 NA
ATOM     10  C   UNL     1       9.600   1.585  23.148  0.00  0.00    +0.142 A 
ATOM     11  N   UNL     1       9.217   2.527  22.233  0.00  0.00    -0.346 N 
ATOM     12  H   UNL     1       9.757   3.353  22.017  0.00  0.00    +0.167 HD
ATOM     13  C   UNL     1       8.018   2.166  21.671  0.00  0.00    +0.085 A 
ATOM     14  C   UNL     1       7.633   0.970  22.238  0.00  0.00    +0.031 A 
ATOM     15  C   UNL     1       8.627   0.598  23.189  0.00  0.00    +0.045 A 
ENDBRANCH   4   6
BRANCH   1  16
ATOM     16  C   UNL     1       6.841  -4.992  24.185  0.00  0.00    +0.124 C 
BRANCH  16  17
ATOM     17  C   UNL     1       5.555  -5.432  24.919  0.00  0.00    +0.015 C 
ATOM     18  C   UNL     1       5.819  -5.874  26.371  0.00  0.00    +0.005 C 
ATOM     19  C   UNL     1       4.771  -6.940  26.694  0.00  0.00    +0.000 C 
ATOM     20  C   UNL     1       3.935  -7.102  25.432  0.00  0.00    +0.000 C 
ATOM     21  C   UNL     1       4.860  -6.651  24.311  0.00  0.00    +0.005 C 
ENDBRANCH  16  17
BRANCH  16  22
ATOM     22  C   UNL     1       6.977  -5.458  22.728  0.00  0.00    +0.145 C 
BRANCH  22  24
ATOM     23  N   UNL     1       5.700  -3.939  21.007  0.00  0.00    -0.196 NA
ATOM     24  C   UNL     1       6.259  -4.614  21.768  0.00  0.00    +0.065 C 
ENDBRANCH  22  24
ENDBRANCH  16  22
ENDBRANCH   1  16
TORSDOF 5
ENDMDL
MODEL 6
REMARK VINA RESULT:      -6.4      2.047      7.544
REMARK  Name = 
REMARK  5 active torsions:
REMARK  status: ('A' for Active; 'I' for Inactive)
REMARK    1  A    between atoms: C_2  and  C_3
REMARK    2  A    between atoms: C_3  and  C_4
REMARK    3  A    between atoms: C_4  and  C_6
REMARK    4  A    between atoms: C_4  and  N_11
REMARK    5  A    between atoms: C_13  and  C_16
REMARK                            x       y       z     vdW  Elec       q    Type
REMARK                         _______ _______ _______ _____ _____    ______ ____
ROOT
ATOM      1  N   UNL     1       8.550  -2.738  24.824  0.00  0.00    -0.267 N 
ATOM      2  N   UNL     1       9.385  -3.722  24.437  0.00  0.00    -0.179 NA
ATOM      3  C   UNL     1       8.869  -4.814  25.008  0.00  0.00    +0.144 A 
ATOM      4  C   UNL     1       7.707  -4.542  25.756  0.00  0.00    +0.039 A 
ATOM      5  C   UNL     1       7.528  -3.182  25.611  0.00  0.00    +0.118 A 
ENDROOT
BRANCH   4   6
ATOM      6  C   UNL     1       6.854  -5.395  26.545  0.00  0.00    +0.086 A 
ATOM      7  N   UNL     1       7.175  -5.599  27.846  0.00  0.00    -0.235 NA
ATOM      8  C   UNL     1       6.397  -6.427  28.563  0.00  0.00    +0.224 A 
ATOM      9  N   UNL     1       5.303  -7.095  28.154  0.00  0.00    -0.218 NA
ATOM     10  C   UNL     1       5.022  -6.841  26.868  0.00  0.00    +0.142 A 
ATOM     11  N   UNL     1       3.962  -7.373  26.186  0.00  0.00    -0.346 N 
ATOM     12  H   UNL     1       3.292  -8.008  26.597  0.00  0.00    +0.167 HD
ATOM     13  C   UNL     1       3.957  -6.904  24.897  0.00  0.00    +0.085 A 
ATOM     14  C   UNL     1       5.035  -6.055  24.757  0.00  0.00    +0.031 A 
ATOM     15  C   UNL     1       5.727  -6.018  26.001  0.00  0.00    +0.045 A 
ENDBRANCH   4   6
BRANCH   1  16
ATOM     16  C   UNL     1       8.820  -1.368  24.382  0.00  0.00    +0.124 C 
BRANCH  16  17
ATOM     17  C   UNL     1       7.532  -0.648  23.923  0.00  0.00    +0.015 C 
ATOM     18  C   UNL     1       7.729   0.154  22.622  0.00  0.00    +0.005 C 
ATOM     19  C   UNL     1       6.772   1.344  22.701  0.00  0.00    +0.000 C 
ATOM     20  C   UNL     1       6.053   1.215  24.036  0.00  0.00    +0.000 C 
ATOM     21  C   UNL     1       7.010   0.406  24.899  0.00  0.00    +0.005 C 
ENDBRANCH  16  17
BRANCH  16  22
ATOM     22  C   UNL     1       9.683  -0.615  25.404  0.00  0.00    +0.145 C 
BRANCH  22  24
ATOM     23  N   UNL     1      11.354   1.103  24.329  0.00  0.00    -0.196 NA
ATOM     24  C   UNL     1      10.617   0.341  24.799  0.00  0.00    +0.065 C 
ENDBRANCH  22  24
ENDBRANCH  16  22
ENDBRANCH   1  16
TORSDOF 5
ENDMDL
MODEL 7
REMARK VINA RESULT:      -6.4      1.753      2.175
REMARK  Name = 
REMARK  5 active torsions:
REMARK  status: ('A' for Active; 'I' for Inactive)
REMARK    1  A    between atoms: C_2  and  C_3
REMARK    2  A    between atoms: C_3  and  C_4
REMARK    3  A    between atoms: C_4  and  C_6
REMARK    4  A    between atoms: C_4  and  N_11
REMARK    5  A    between atoms: C_13  and  C_16
REMARK                            x       y       z     vdW  Elec       q    Type
REMARK                         _______ _______ _______ _____ _____    ______ ____
ROOT
ATOM      1  N   UNL     1       7.360  -2.690  25.421  0.00  0.00    -0.267 N 
ATOM      2  N   UNL     1       8.271  -2.665  26.413  0.00  0.00    -0.179 NA
ATOM      3  C   UNL     1       8.692  -1.397  26.421  0.00  0.00    +0.144 A 
ATOM      4  C   UNL     1       8.056  -0.605  25.443  0.00  0.00    +0.039 A 
ATOM      5  C   UNL     1       7.194  -1.479  24.814  0.00  0.00    +0.118 A 
ENDROOT
BRANCH   4   6
ATOM      6  C   UNL     1       8.215   0.782  25.082  0.00  0.00    +0.086 A 
ATOM      7  N   UNL     1       7.681   1.723  25.899  0.00  0.00    -0.235 NA
ATOM      8  C   UNL     1       7.800   3.011  25.533  0.00  0.00    +0.224 A 
ATOM      9  N   UNL     1       8.403   3.508  24.438  0.00  0.00    -0.218 NA
ATOM     10  C   UNL     1       8.927   2.535  23.679  0.00  0.00    +0.142 A 
ATOM     11  N   UNL     1       9.607   2.744  22.511  0.00  0.00    -0.346 N 
ATOM     12  H   UNL     1       9.776   3.658  22.114  0.00  0.00    +0.167 HD
ATOM     13  C   UNL     1      10.018   1.543  21.991  0.00  0.00    +0.085 A 
ATOM     14  C   UNL     1       9.591   0.549  22.848  0.00  0.00    +0.031 A 
ATOM     15  C   UNL     1       8.885   1.169  23.918  0.00  0.00    +0.045 A 
ENDBRANCH   4   6
BRANCH   1  16
ATOM     16  C   UNL     1       6.684  -3.953  25.115  0.00  0.00    +0.124 C 
BRANCH  16  17
ATOM     17  C   UNL     1       6.679  -4.251  23.600  0.00  0.00    +0.015 C 
ATOM     18  C   UNL     1       5.329  -4.807  23.106  0.00  0.00    +0.005 C 
ATOM     19  C   UNL     1       5.649  -5.734  21.933  0.00  0.00    +0.000 C 
ATOM     20  C   UNL     1       7.163  -5.706  21.777  0.00  0.00    +0.000 C 
ATOM     21  C   UNL     1       7.673  -5.325  23.159  0.00  0.00    +0.005 C 
ENDBRANCH  16  17
BRANCH  16  22
ATOM     22  C   UNL     1       7.188  -5.086  26.022  0.00  0.00    +0.145 C 
BRANCH  22  24
ATOM     23  N   UNL     1       5.287  -6.703  26.841  0.00  0.00    -0.196 NA
ATOM     24  C   UNL     1       6.130  -5.993  26.478  0.00  0.00    +0.065 C 
ENDBRANCH  22  24
ENDBRANCH  16  22
ENDBRANCH   1  16
TORSDOF 5
ENDMDL
MODEL 8
REMARK VINA RESULT:      -6.3      1.482      2.778
REMARK  Name = 
REMARK  5 active torsions:
REMARK  status: ('A' for Active; 'I' for Inactive)
REMARK    1  A    between atoms: C_2  and  C_3
REMARK    2  A    between atoms: C_3  and  C_4
REMARK    3  A    between atoms: C_4  and  C_6
REMARK    4  A    between atoms: C_4  and  N_11
REMARK    5  A    between atoms: C_13  and  C_16
REMARK                            x       y       z     vdW  Elec       q    Type
REMARK                         _______ _______ _______ _____ _____    ______ ____
ROOT
ATOM      1  N   UNL     1       8.269  -2.536  23.077  0.00  0.00    -0.267 N 
ATOM      2  N   UNL     1       9.278  -2.713  22.201  0.00  0.00    -0.179 NA
ATOM      3  C   UNL     1       9.829  -1.499  22.106  0.00  0.00    +0.144 A 
ATOM      4  C   UNL     1       9.185  -0.543  22.916  0.00  0.00    +0.039 A 
ATOM      5  C   UNL     1       8.177  -1.254  23.535  0.00  0.00    +0.118 A 
ENDROOT
BRANCH   4   6
ATOM      6  C   UNL     1       9.419   0.868  23.104  0.00  0.00    +0.086 A 
ATOM      7  N   UNL     1      10.570   1.253  23.706  0.00  0.00    -0.235 NA
ATOM      8  C   UNL     1      10.761   2.567  23.912  0.00  0.00    +0.224 A 
ATOM      9  N   UNL     1       9.943   3.584  23.583  0.00  0.00    -0.218 NA
ATOM     10  C   UNL     1       8.831   3.145  22.975  0.00  0.00    +0.142 A 
ATOM     11  N   UNL     1       7.826   3.954  22.521  0.00  0.00    -0.346 N 
ATOM     12  H   UNL     1       7.833   4.961  22.605  0.00  0.00    +0.167 HD
ATOM     13  C   UNL     1       6.843   3.192  21.943  0.00  0.00    +0.085 A 
ATOM     14  C   UNL     1       7.232   1.871  22.029  0.00  0.00    +0.031 A 
ATOM     15  C   UNL     1       8.490   1.830  22.696  0.00  0.00    +0.045 A 
ENDBRANCH   4   6
BRANCH   1  16
ATOM     16  C   UNL     1       7.424  -3.680  23.421  0.00  0.00    +0.124 C 
BRANCH  16  17
ATOM     17  C   UNL     1       7.241  -3.822  24.948  0.00  0.00    +0.015 C 
ATOM     18  C   UNL     1       8.500  -4.367  25.651  0.00  0.00    +0.005 C 
ATOM     19  C   UNL     1       8.008  -5.159  26.862  0.00  0.00    +0.000 C 
ATOM     20  C   UNL     1       6.489  -5.069  26.834  0.00  0.00    +0.000 C 
ATOM     21  C   UNL     1       6.158  -4.815  25.371  0.00  0.00    +0.005 C 
ENDBRANCH  16  17
BRANCH  16  22
ATOM     22  C   UNL     1       6.134  -3.688  22.587  0.00  0.00    +0.145 C 
BRANCH  22  24
ATOM     23  N   UNL     1       6.068  -5.564  20.749  0.00  0.00    -0.196 NA
ATOM     24  C   UNL     1       6.097  -4.739  21.565  0.00  0.00    +0.065 C 
ENDBRANCH  22  24
ENDBRANCH  16  22
ENDBRANCH   1  16
TORSDOF 5
ENDMDL
MODEL 9
REMARK VINA RESULT:      -6.3      1.837      7.325
REMARK  Name = 
REMARK  5 active torsions:
REMARK  status: ('A' for Active; 'I' for Inactive)
REMARK    1  A    between atoms: C_2  and  C_3
REMARK    2  A    between atoms: C_3  and  C_4
REMARK    3  A    between atoms: C_4  and  C_6
REMARK    4  A    between atoms: C_4  and  N_11
REMARK    5  A    between atoms: C_13  and  C_16
REMARK                            x       y       z     vdW  Elec       q    Type
REMARK                         _______ _______ _______ _____ _____    ______ ____
ROOT
ATOM      1  N   UNL     1       8.912  -0.847  23.310  0.00  0.00    -0.267 N 
ATOM      2  N   UNL     1       9.935  -1.504  23.893  0.00  0.00    -0.179 NA
ATOM      3  C   UNL     1       9.503  -2.767  23.952  0.00  0.00    +0.144 A 
ATOM      4  C   UNL     1       8.212  -2.929  23.409  0.00  0.00    +0.039 A 
ATOM      5  C   UNL     1       7.861  -1.659  22.999  0.00  0.00    +0.118 A 
ENDROOT
BRANCH   4   6
ATOM      6  C   UNL     1       7.362  -4.087  23.289  0.00  0.00    +0.086 A 
ATOM      7  N   UNL     1       7.187  -4.631  22.060  0.00  0.00    -0.235 NA
ATOM      8  C   UNL     1       6.361  -5.686  21.953  0.00  0.00    +0.224 A 
ATOM      9  N   UNL     1       5.670  -6.298  22.931  0.00  0.00    -0.218 NA
ATOM     10  C   UNL     1       5.896  -5.730  24.125  0.00  0.00    +0.142 A 
ATOM     11  N   UNL     1       5.336  -6.149  25.301  0.00  0.00    -0.346 N 
ATOM     12  H   UNL     1       4.698  -6.930  25.373  0.00  0.00    +0.167 HD
ATOM     13  C   UNL     1       5.781  -5.361  26.332  0.00  0.00    +0.085 A 
ATOM     14  C   UNL     1       6.642  -4.424  25.802  0.00  0.00    +0.031 A 
ATOM     15  C   UNL     1       6.712  -4.642  24.395  0.00  0.00    +0.045 A 
ENDBRANCH   4   6
BRANCH   1  16
ATOM     16  C   UNL     1       9.035   0.596  23.089  0.00  0.00    +0.124 C 
BRANCH  16  17
ATOM     17  C   UNL     1       7.669   1.249  22.784  0.00  0.00    +0.015 C 
ATOM     18  C   UNL     1       7.767   2.376  21.737  0.00  0.00    +0.005 C 
ATOM     19  C   UNL     1       6.668   3.381  22.082  0.00  0.00    +0.000 C 
ATOM     20  C   UNL     1       5.967   2.828  23.315  0.00  0.00    +0.000 C 
ATOM     21  C   UNL     1       7.015   1.946  23.977  0.00  0.00    +0.005 C 
ENDBRANCH  16  17
BRANCH  16  22
ATOM     22  C   UNL     1       9.863   1.259  24.200  0.00  0.00    +0.145 C 
BRANCH  22  24
ATOM     23  N   UNL     1      11.212   3.362  23.389  0.00  0.00    -0.196 NA
ATOM     24  C   UNL     1      10.617   2.435  23.753  0.00  0.00    +0.065 C 
ENDBRANCH  22  24
ENDBRANCH  16  22
ENDBRANCH   1  16
TORSDOF 5
ENDMDL
