MODEL 1
REMARK VINA RESULT:      -5.5      0.000      0.000
REMARK  Name = 
REMARK  7 active torsions:
REMARK  status: ('A' for Active; 'I' for Inactive)
REMARK    1  A    between atoms: N_1  and  CA_2
REMARK    2  A    between atoms: CA_2  and  C_4
REMARK    3  A    between atoms: CA_2  and  C_15
REMARK    4  A    between atoms: C_4  and  C_5
REMARK    5  A    between atoms: C_5  and  C_6
REMARK    6  A    between atoms: C_10  and  N_12
REMARK    7  A    between atoms: C_15  and  O_16
REMARK                            x       y       z     vdW  Elec       q    Type
REMARK                         _______ _______ _______ _____ _____    ______ ____
ROOT
ATOM      1  C   UNL     1       9.084  -2.017  24.615  0.00  0.00    +0.014 C 
ENDROOT
BRANCH   1   2
ATOM      2  C   UNL     1      10.190  -1.352  23.756  0.00  0.00    +0.034 C 
ATOM      3  C   UNL     1       9.900  -1.496  22.279  0.00  0.00    -0.022 C 
ATOM      4  C   UNL     1       9.700  -0.457  21.452  0.00  0.00    -0.008 C 
ATOM      5  C   UNL     1       9.822   0.976  21.870  0.00  0.00    +0.097 C 
ATOM      6  C   UNL     1      10.195   1.136  23.319  0.00  0.00    -0.008 C 
ATOM      7  C   UNL     1      10.361   0.103  24.164  0.00  0.00    -0.022 C 
BRANCH   5   8
ATOM      8  N   UNL     1       8.571   1.663  21.594  0.00  0.00    -0.321 NA
ATOM      9  H   UNL     1       8.317   2.213  22.412  0.00  0.00    +0.119 HD
ATOM     10  H   UNL     1       8.719   2.325  20.838  0.00  0.00    +0.119 HD
ENDBRANCH   5   8
ENDBRANCH   1   2
BRANCH   1  11
ATOM     11  C   UNL     1       8.948  -3.531  24.352  0.00  0.00    +0.031 C 
BRANCH  11  12
ATOM     12  CA  UNL     1       9.179  -4.446  25.558  0.00  0.00    +0.161 C 
BRANCH  12  13
ATOM     13  N   UNL     1      10.289  -5.424  25.342  0.00  0.00    -0.318 NA
ATOM     14  H1  UNL     1      10.315  -6.080  26.127  0.00  0.00    +0.119 HD
ATOM     15  H2  UNL     1      10.022  -6.015  24.547  0.00  0.00    +0.119 HD
ENDBRANCH  12  13
BRANCH  12  16
ATOM     16  C   UNL     1       7.907  -5.204  25.966  0.00  0.00    +0.322 C 
ATOM     17  OXT UNL     1       6.846  -5.177  25.363  0.00  0.00    -0.249 OA
BRANCH  16  18
ATOM     18  O   UNL     1       8.105  -5.906  27.111  0.00  0.00    -0.480 OA
ATOM     19  H   UNL     1       9.038  -5.710  27.381  0.00  0.00    +0.295 HD
ENDBRANCH  16  18
ENDBRANCH  12  16
ENDBRANCH  11  12
ENDBRANCH   1  11
TORSDOF 7
ENDMDL
MODEL 2
REMARK VINA RESULT:      -5.3      1.220      1.406
REMARK  Name = 
REMARK  7 active torsions:
REMARK  status: ('A' for Active; 'I' for Inactive)
REMARK    1  A    between atoms: N_1  and  CA_2
REMARK    2  A    between atoms: CA_2  and  C_4
REMARK    3  A    between atoms: CA_2  and  C_15
REMARK    4  A    between atoms: C_4  and  C_5
REMARK    5  A    between atoms: C_5  and  C_6
REMARK    6  A    between atoms: C_10  and  N_12
REMARK    7  A    between atoms: C_15  and  O_16
REMARK                            x       y       z     vdW  Elec       q    Type
REMARK                         _______ _______ _______ _____ _____    ______ ____
ROOT
ATOM      1  C   UNL     1       8.385  -1.312  24.566  0.00  0.00    +0.014 C 
ENDROOT
BRANCH   1   2
ATOM      2  C   UNL     1       9.705  -0.857  23.894  0.00  0.00    +0.034 C 
ATOM      3  C   UNL     1       9.595  -0.895  22.386  0.00  0.00    -0.022 C 
ATOM      4  C   UNL     1       9.716   0.187  21.600  0.00  0.00    -0.008 C 
ATOM      5  C   UNL     1      10.058   1.553  22.111  0.00  0.00    +0.097 C 
ATOM      6  C   UNL     1      10.255   1.591  23.602  0.00  0.00    -0.008 C 
ATOM      7  C   UNL     1      10.100   0.520  24.401  0.00  0.00    -0.022 C 
BRANCH   5   8
ATOM      8  N   UNL     1       9.014   2.485  21.718  0.00  0.00    -0.321 NA
ATOM      9  H   UNL     1       8.138   1.972  21.632  0.00  0.00    +0.119 HD
ATOM     10  H   UNL     1       8.878   3.161  22.464  0.00  0.00    +0.119 HD
ENDBRANCH   5   8
ENDBRANCH   1   2
BRANCH   1  11
ATOM     11  C   UNL     1       8.590  -2.455  25.583  0.00  0.00    +0.031 C 
BRANCH  11  12
ATOM     12  CA  UNL     1       9.173  -3.756  25.022  0.00  0.00    +0.161 C 
BRANCH  12  13
ATOM     13  N   UNL     1       8.513  -4.189  23.754  0.00  0.00    -0.318 NA
ATOM     14  H1  UNL     1       7.749  -4.833  23.977  0.00  0.00    +0.119 HD
ATOM     15  H2  UNL     1       8.030  -3.371  23.367  0.00  0.00    +0.119 HD
ENDBRANCH  12  13
BRANCH  12  16
ATOM     16  C   UNL     1       9.119  -4.904  26.041  0.00  0.00    +0.322 C 
ATOM     17  OXT UNL     1       8.466  -4.902  27.072  0.00  0.00    -0.249 OA
BRANCH  16  18
ATOM     18  O   UNL     1       9.919  -5.932  25.658  0.00  0.00    -0.480 OA
ATOM     19  H   UNL     1      10.746  -5.835  26.194  0.00  0.00    +0.295 HD
ENDBRANCH  16  18
ENDBRANCH  12  16
ENDBRANCH  11  12
ENDBRANCH   1  11
TORSDOF 7
ENDMDL
MODEL 3
REMARK VINA RESULT:      -5.3      1.432      2.007
REMARK  Name = 
REMARK  7 active torsions:
REMARK  status: ('A' for Active; 'I' for Inactive)
REMARK    1  A    between atoms: N_1  and  CA_2
REMARK    2  A    between atoms: CA_2  and  C_4
REMARK    3  A    between atoms: CA_2  and  C_15
REMARK    4  A    between atoms: C_4  and  C_5
REMARK    5  A    between atoms: C_5  and  C_6
REMARK    6  A    between atoms: C_10  and  N_12
REMARK    7  A    between atoms: C_15  and  O_16
REMARK                            x       y       z     vdW  Elec       q    Type
REMARK                         _______ _______ _______ _____ _____    ______ ____
ROOT
ATOM      1  C   UNL     1       8.431  -2.229  26.020  0.00  0.00    +0.014 C 
ENDROOT
BRANCH   1   2
ATOM      2  C   UNL     1       8.407  -0.904  25.217  0.00  0.00    +0.034 C 
ATOM      3  C   UNL     1       9.808  -0.415  24.923  0.00  0.00    -0.022 C 
ATOM      4  C   UNL     1      10.302  -0.266  23.683  0.00  0.00    -0.008 C 
ATOM      5  C   UNL     1       9.504  -0.487  22.435  0.00  0.00    +0.097 C 
ATOM      6  C   UNL     1       8.081  -0.892  22.712  0.00  0.00    -0.008 C 
ATOM      7  C   UNL     1       7.587  -1.078  23.949  0.00  0.00    -0.022 C 
BRANCH   5   8
ATOM      8  N   UNL     1      10.163  -1.492  21.617  0.00  0.00    -0.321 NA
ATOM      9  H   UNL     1       9.464  -1.934  21.023  0.00  0.00    +0.119 HD
ATOM     10  H   UNL     1      10.818  -1.030  20.993  0.00  0.00    +0.119 HD
ENDBRANCH   5   8
ENDBRANCH   1   2
BRANCH   1  11
ATOM     11  C   UNL     1       9.046  -3.402  25.227  0.00  0.00    +0.031 C 
BRANCH  11  12
ATOM     12  CA  UNL     1       9.195  -4.723  25.988  0.00  0.00    +0.161 C 
BRANCH  12  13
ATOM     13  N   UNL     1      10.049  -5.715  25.268  0.00  0.00    -0.318 NA
ATOM     14  H1  UNL     1      10.714  -6.127  25.928  0.00  0.00    +0.119 HD
ATOM     15  H2  UNL     1       9.447  -6.506  25.013  0.00  0.00    +0.119 HD
ENDBRANCH  12  13
BRANCH  12  16
ATOM     16  C   UNL     1       7.838  -5.363  26.315  0.00  0.00    +0.322 C 
ATOM     17  OXT UNL     1       6.892  -5.441  25.548  0.00  0.00    -0.249 OA
BRANCH  16  18
ATOM     18  O   UNL     1       7.812  -5.823  27.592  0.00  0.00    -0.480 OA
ATOM     19  H   UNL     1       8.285  -5.137  28.128  0.00  0.00    +0.295 HD
ENDBRANCH  16  18
ENDBRANCH  12  16
ENDBRANCH  11  12
ENDBRANCH   1  11
TORSDOF 7
ENDMDL
MODEL 4
REMARK VINA RESULT:      -5.2      3.679      6.188
REMARK  Name = 
REMARK  7 active torsions:
REMARK  status: ('A' for Active; 'I' for Inactive)
REMARK    1  A    between atoms: N_1  and  CA_2
REMARK    2  A    between atoms: CA_2  and  C_4
REMARK    3  A    between atoms: CA_2  and  C_15
REMARK    4  A    between atoms: C_4  and  C_5
REMARK    5  A    between atoms: C_5  and  C_6
REMARK    6  A    between atoms: C_10  and  N_12
REMARK    7  A    between atoms: C_15  and  O_16
REMARK                            x       y       z     vdW  Elec       q    Type
REMARK                         _______ _______ _______ _____ _____    ______ ____
ROOT
ATOM      1  C   UNL     1       9.473  -1.351  24.284  0.00  0.00    +0.014 C 
ENDROOT
BRANCH   1   2
ATOM      2  C   UNL     1       8.330  -2.304  24.717  0.00  0.00    +0.034 C 
ATOM      3  C   UNL     1       8.146  -3.428  23.722  0.00  0.00    -0.022 C 
ATOM      4  C   UNL     1       8.311  -4.727  24.024  0.00  0.00    -0.008 C 
ATOM      5  C   UNL     1       8.616  -5.231  25.400  0.00  0.00    +0.097 C 
ATOM      6  C   UNL     1       8.718  -4.129  26.420  0.00  0.00    -0.008 C 
ATOM      7  C   UNL     1       8.591  -2.823  26.122  0.00  0.00    -0.022 C 
BRANCH   5   8
ATOM      8  N   UNL     1       9.849  -6.000  25.366  0.00  0.00    -0.321 NA
ATOM      9  H   UNL     1       9.718  -6.793  24.741  0.00  0.00    +0.119 HD
ATOM     10  H   UNL     1      10.582  -5.429  24.954  0.00  0.00    +0.119 HD
ENDBRANCH   5   8
ENDBRANCH   1   2
BRANCH   1  11
ATOM     11  C   UNL     1       8.956  -0.010  23.721  0.00  0.00    +0.031 C 
BRANCH  11  12
ATOM     12  CA  UNL     1       8.745   0.048  22.205  0.00  0.00    +0.161 C 
BRANCH  12  13
ATOM     13  N   UNL     1       9.788  -0.705  21.445  0.00  0.00    -0.318 NA
ATOM     14  H1  UNL     1       9.338  -1.449  20.906  0.00  0.00    +0.119 HD
ATOM     15  H2  UNL     1      10.151  -0.074  20.721  0.00  0.00    +0.119 HD
ENDBRANCH  12  13
BRANCH  12  16
ATOM     16  C   UNL     1       8.675   1.490  21.682  0.00  0.00    +0.322 C 
ATOM     17  OXT UNL     1       7.649   2.115  21.471  0.00  0.00    -0.249 OA
BRANCH  16  18
ATOM     18  O   UNL     1       9.919   1.987  21.460  0.00  0.00    -0.480 OA
ATOM     19  H   UNL     1      10.542   1.302  21.813  0.00  0.00    +0.295 HD
ENDBRANCH  16  18
ENDBRANCH  12  16
ENDBRANCH  11  12
ENDBRANCH   1  11
TORSDOF 7
ENDMDL
MODEL 5
REMARK VINA RESULT:      -5.2      1.671      2.160
REMARK  Name = 
REMARK  7 active torsions:
REMARK  status: ('A' for Active; 'I' for Inactive)
REMARK    1  A    between atoms: N_1  and  CA_2
REMARK    2  A    between atoms: CA_2  and  C_4
REMARK    3  A    between atoms: CA_2  and  C_15
REMARK    4  A    between atoms: C_4  and  C_5
REMARK    5  A    between atoms: C_5  and  C_6
REMARK    6  A    between atoms: C_10  and  N_12
REMARK    7  A    between atoms: C_15  and  O_16
REMARK                            x       y       z     vdW  Elec       q    Type
REMARK                         _______ _______ _______ _____ _____    ______ ____
ROOT
ATOM      1  C   UNL     1       9.607  -1.810  24.280  0.00  0.00    +0.014 C 
ENDROOT
BRANCH   1   2
ATOM      2  C   UNL     1       9.348  -0.364  24.776  0.00  0.00    +0.034 C 
ATOM      3  C   UNL     1      10.618   0.457  24.761  0.00  0.00    -0.022 C 
ATOM      4  C   UNL     1      10.785   1.560  24.013  0.00  0.00    -0.008 C 
ATOM      5  C   UNL     1       9.708   2.163  23.164  0.00  0.00    +0.097 C 
ATOM      6  C   UNL     1       8.410   1.405  23.235  0.00  0.00    -0.008 C 
ATOM      7  C   UNL     1       8.244   0.279  23.952  0.00  0.00    -0.022 C 
BRANCH   5   8
ATOM      8  N   UNL     1      10.171   2.240  21.788  0.00  0.00    -0.321 NA
ATOM      9  H   UNL     1       9.419   2.617  21.215  0.00  0.00    +0.119 HD
ATOM     10  H   UNL     1      10.935   2.908  21.735  0.00  0.00    +0.119 HD
ENDBRANCH   5   8
ENDBRANCH   1   2
BRANCH   1  11
ATOM     11  C   UNL     1       8.598  -2.830  24.850  0.00  0.00    +0.031 C 
BRANCH  11  12
ATOM     12  CA  UNL     1       8.734  -4.267  24.338  0.00  0.00    +0.161 C 
BRANCH  12  13
ATOM     13  N   UNL     1       7.532  -4.731  23.582  0.00  0.00    -0.318 NA
ATOM     14  H1  UNL     1       7.438  -5.745  23.692  0.00  0.00    +0.119 HD
ATOM     15  H2  UNL     1       6.707  -4.362  24.068  0.00  0.00    +0.119 HD
ENDBRANCH  12  13
BRANCH  12  16
ATOM     16  C   UNL     1       9.038  -5.261  25.469  0.00  0.00    +0.322 C 
ATOM     17  OXT UNL     1       8.217  -5.715  26.249  0.00  0.00    -0.249 OA
BRANCH  16  18
ATOM     18  O   UNL     1      10.362  -5.563  25.508  0.00  0.00    -0.480 OA
ATOM     19  H   UNL     1      10.403  -6.549  25.593  0.00  0.00    +0.295 HD
ENDBRANCH  16  18
ENDBRANCH  12  16
ENDBRANCH  11  12
ENDBRANCH   1  11
TORSDOF 7
ENDMDL
MODEL 6
REMARK VINA RESULT:      -5.2      2.591      5.488
REMARK  Name = 
REMARK  7 active torsions:
REMARK  status: ('A' for Active; 'I' for Inactive)
REMARK    1  A    between atoms: N_1  and  CA_2
REMARK    2  A    between atoms: CA_2  and  C_4
REMARK    3  A    between atoms: CA_2  and  C_15
REMARK    4  A    between atoms: C_4  and  C_5
REMARK    5  A    between atoms: C_5  and  C_6
REMARK    6  A    between atoms: C_10  and  N_12
REMARK    7  A    between atoms: C_15  and  O_16
REMARK                            x       y       z     vdW  Elec       q    Type
REMARK                         _______ _______ _______ _____ _____    ______ ____
ROOT
ATOM      1  C   UNL     1       7.180  -1.643  25.138  0.00  0.00    +0.014 C 
ENDROOT
BRANCH   1   2
ATOM      2  C   UNL     1       6.896  -3.142  25.415  0.00  0.00    +0.034 C 
ATOM      3  C   UNL     1       7.182  -3.990  24.196  0.00  0.00    -0.022 C 
ATOM      4  C   UNL     1       8.110  -4.960  24.162  0.00  0.00    -0.008 C 
ATOM      5  C   UNL     1       8.920  -5.380  25.350  0.00  0.00    +0.097 C 
ATOM      6  C   UNL     1       8.585  -4.603  26.594  0.00  0.00    -0.008 C 
ATOM      7  C   UNL     1       7.684  -3.605  26.629  0.00  0.00    -0.022 C 
BRANCH   5   8
ATOM      8  N   UNL     1      10.333  -5.245  25.037  0.00  0.00    -0.321 NA
ATOM      9  H   UNL     1      10.808  -4.857  25.850  0.00  0.00    +0.119 HD
ATOM     10  H   UNL     1      10.727  -6.170  24.890  0.00  0.00    +0.119 HD
ENDBRANCH   5   8
ENDBRANCH   1   2
BRANCH   1  11
ATOM     11  C   UNL     1       8.678  -1.346  24.917  0.00  0.00    +0.031 C 
BRANCH  11  12
ATOM     12  CA  UNL     1       9.067  -0.850  23.521  0.00  0.00    +0.161 C 
BRANCH  12  13
ATOM     13  N   UNL     1       7.883  -0.587  22.648  0.00  0.00    -0.318 NA
ATOM     14  H1  UNL     1       7.401   0.252  22.980  0.00  0.00    +0.119 HD
ATOM     15  H2  UNL     1       8.241  -0.307  21.728  0.00  0.00    +0.119 HD
ENDBRANCH  12  13
BRANCH  12  16
ATOM     16  C   UNL     1      10.022  -1.817  22.806  0.00  0.00    +0.322 C 
ATOM     17  OXT UNL     1      10.609  -2.748  23.332  0.00  0.00    -0.249 OA
BRANCH  16  18
ATOM     18  O   UNL     1      10.151  -1.491  21.494  0.00  0.00    -0.480 OA
ATOM     19  H   UNL     1       9.970  -0.518  21.447  0.00  0.00    +0.295 HD
ENDBRANCH  16  18
ENDBRANCH  12  16
ENDBRANCH  11  12
ENDBRANCH   1  11
TORSDOF 7
ENDMDL
MODEL 7
REMARK VINA RESULT:      -5.2      4.200      5.918
REMARK  Name = 
REMARK  7 active torsions:
REMARK  status: ('A' for Active; 'I' for Inactive)
REMARK    1  A    between atoms: N_1  and  CA_2
REMARK    2  A    between atoms: CA_2  and  C_4
REMARK    3  A    between atoms: CA_2  and  C_15
REMARK    4  A    between atoms: C_4  and  C_5
REMARK    5  A    between atoms: C_5  and  C_6
REMARK    6  A    between atoms: C_10  and  N_12
REMARK    7  A    between atoms: C_15  and  O_16
REMARK                            x       y       z     vdW  Elec       q    Type
REMARK                         _______ _______ _______ _____ _____    ______ ____
ROOT
ATOM      1  C   UNL     1       8.209   1.629  25.150  0.00  0.00    +0.014 C 
ENDROOT
BRANCH   1   2
ATOM      2  C   UNL     1       8.833   0.211  25.168  0.00  0.00    +0.034 C 
ATOM      3  C   UNL     1       7.985  -0.772  24.393  0.00  0.00    -0.022 C 
ATOM      4  C   UNL     1       8.413  -1.431  23.303  0.00  0.00    -0.008 C 
ATOM      5  C   UNL     1       9.808  -1.337  22.767  0.00  0.00    +0.097 C 
ATOM      6  C   UNL     1      10.690  -0.427  23.578  0.00  0.00    -0.008 C 
ATOM      7  C   UNL     1      10.261   0.264  24.650  0.00  0.00    -0.022 C 
BRANCH   5   8
ATOM      8  N   UNL     1       9.759  -0.889  21.384  0.00  0.00    -0.321 NA
ATOM      9  H   UNL     1       9.927  -1.690  20.779  0.00  0.00    +0.119 HD
ATOM     10  H   UNL     1       8.819  -0.564  21.176  0.00  0.00    +0.119 HD
ENDBRANCH   5   8
ENDBRANCH   1   2
BRANCH   1  11
ATOM     11  C   UNL     1       9.120   2.679  24.479  0.00  0.00    +0.031 C 
BRANCH  11  12
ATOM     12  CA  UNL     1       8.599   3.283  23.171  0.00  0.00    +0.161 C 
BRANCH  12  13
ATOM     13  N   UNL     1       7.212   3.825  23.293  0.00  0.00    -0.318 NA
ATOM     14  H1  UNL     1       7.171   4.744  22.845  0.00  0.00    +0.119 HD
ATOM     15  H2  UNL     1       6.606   3.245  22.702  0.00  0.00    +0.119 HD
ENDBRANCH  12  13
BRANCH  12  16
ATOM     16  C   UNL     1       8.653   2.283  22.007  0.00  0.00    +0.322 C 
ATOM     17  OXT UNL     1       7.714   1.615  21.606  0.00  0.00    -0.249 OA
BRANCH  16  18
ATOM     18  O   UNL     1       9.903   2.218  21.480  0.00  0.00    -0.480 OA
ATOM     19  H   UNL     1       9.999   3.037  20.930  0.00  0.00    +0.295 HD
ENDBRANCH  16  18
ENDBRANCH  12  16
ENDBRANCH  11  12
ENDBRANCH   1  11
TORSDOF 7
ENDMDL
MODEL 8
REMARK VINA RESULT:      -5.1      1.706      2.166
REMARK  Name = 
REMARK  7 active torsions:
REMARK  status: ('A' for Active; 'I' for Inactive)
REMARK    1  A    between atoms: N_1  and  CA_2
REMARK    2  A    between atoms: CA_2  and  C_4
REMARK    3  A    between atoms: CA_2  and  C_15
REMARK    4  A    between atoms: C_4  and  C_5
REMARK    5  A    between atoms: C_5  and  C_6
REMARK    6  A    between atoms: C_10  and  N_12
REMARK    7  A    between atoms: C_15  and  O_16
REMARK                            x       y       z     vdW  Elec       q    Type
REMARK                         _______ _______ _______ _____ _____    ______ ____
ROOT
ATOM      1  C   UNL     1       9.048  -1.566  24.551  0.00  0.00    +0.014 C 
ENDROOT
BRANCH   1   2
ATOM      2  C   UNL     1       8.233  -1.046  23.339  0.00  0.00    +0.034 C 
ATOM      3  C   UNL     1       7.746   0.367  23.571  0.00  0.00    -0.022 C 
ATOM      4  C   UNL     1       8.100   1.414  22.808  0.00  0.00    -0.008 C 
ATOM      5  C   UNL     1       8.954   1.301  21.583  0.00  0.00    +0.097 C 
ATOM      6  C   UNL     1       9.377  -0.113  21.290  0.00  0.00    -0.008 C 
ATOM      7  C   UNL     1       9.058  -1.163  22.068  0.00  0.00    -0.022 C 
BRANCH   5   8
ATOM      8  N   UNL     1      10.121   2.154  21.734  0.00  0.00    -0.321 NA
ATOM      9  H   UNL     1      10.933   1.658  21.373  0.00  0.00    +0.119 HD
ATOM     10  H   UNL     1      10.005   2.978  21.150  0.00  0.00    +0.119 HD
ENDBRANCH   5   8
ENDBRANCH   1   2
BRANCH   1  11
ATOM     11  C   UNL     1       8.427  -2.822  25.198  0.00  0.00    +0.031 C 
BRANCH  11  12
ATOM     12  CA  UNL     1       8.738  -4.156  24.512  0.00  0.00    +0.161 C 
BRANCH  12  13
ATOM     13  N   UNL     1       7.649  -4.604  23.592  0.00  0.00    -0.318 NA
ATOM     14  H1  UNL     1       6.770  -4.161  23.873  0.00  0.00    +0.119 HD
ATOM     15  H2  UNL     1       7.840  -4.191  22.672  0.00  0.00    +0.119 HD
ENDBRANCH  12  13
BRANCH  12  16
ATOM     16  C   UNL     1       9.043  -5.272  25.522  0.00  0.00    +0.322 C 
ATOM     17  OXT UNL     1       8.242  -5.748  26.310  0.00  0.00    -0.249 OA
BRANCH  16  18
ATOM     18  O   UNL     1      10.342  -5.659  25.442  0.00  0.00    -0.480 OA
ATOM     19  H   UNL     1      10.852  -4.965  25.930  0.00  0.00    +0.295 HD
ENDBRANCH  16  18
ENDBRANCH  12  16
ENDBRANCH  11  12
ENDBRANCH   1  11
TORSDOF 7
ENDMDL
MODEL 9
REMARK VINA RESULT:      -4.9      4.247      5.854
REMARK  Name = 
REMARK  7 active torsions:
REMARK  status: ('A' for Active; 'I' for Inactive)
REMARK    1  A    between atoms: N_1  and  CA_2
REMARK    2  A    between atoms: CA_2  and  C_4
REMARK    3  A    between atoms: CA_2  and  C_15
REMARK    4  A    between atoms: C_4  and  C_5
REMARK    5  A    between atoms: C_5  and  C_6
REMARK    6  A    between atoms: C_10  and  N_12
REMARK    7  A    between atoms: C_15  and  O_16
REMARK                            x       y       z     vdW  Elec       q    Type
REMARK                         _______ _______ _______ _____ _____    ______ ____
ROOT
ATOM      1  C   UNL     1      10.592   0.181  24.394  0.00  0.00    +0.014 C 
ENDROOT
BRANCH   1   2
ATOM      2  C   UNL     1      10.133  -1.266  24.081  0.00  0.00    +0.034 C 
ATOM      3  C   UNL     1       8.982  -1.682  24.969  0.00  0.00    -0.022 C 
ATOM      4  C   UNL     1       7.764  -2.013  24.509  0.00  0.00    -0.008 C 
ATOM      5  C   UNL     1       7.417  -2.091  23.054  0.00  0.00    +0.097 C 
ATOM      6  C   UNL     1       8.577  -1.762  22.154  0.00  0.00    -0.008 C 
ATOM      7  C   UNL     1       9.790  -1.395  22.606  0.00  0.00    -0.022 C 
BRANCH   5   8
ATOM      8  N   UNL     1       6.300  -1.201  22.781  0.00  0.00    -0.321 NA
ATOM      9  H   UNL     1       6.489  -0.302  23.219  0.00  0.00    +0.119 HD
ATOM     10  H   UNL     1       6.254  -1.028  21.781  0.00  0.00    +0.119 HD
ENDBRANCH   5   8
ENDBRANCH   1   2
BRANCH   1  11
ATOM     11  C   UNL     1       9.425   1.107  24.798  0.00  0.00    +0.031 C 
BRANCH  11  12
ATOM     12  CA  UNL     1       8.997   2.143  23.755  0.00  0.00    +0.161 C 
BRANCH  12  13
ATOM     13  N   UNL     1       7.897   1.655  22.868  0.00  0.00    -0.318 NA
ATOM     14  H1  UNL     1       8.296   1.066  22.133  0.00  0.00    +0.119 HD
ATOM     15  H2  UNL     1       7.333   0.998  23.419  0.00  0.00    +0.119 HD
ENDBRANCH  12  13
BRANCH  12  16
ATOM     16  C   UNL     1      10.174   2.618  22.890  0.00  0.00    +0.322 C 
ATOM     17  OXT UNL     1      11.088   3.331  23.272  0.00  0.00    -0.249 OA
BRANCH  16  18
ATOM     18  O   UNL     1      10.060   2.156  21.618  0.00  0.00    -0.480 OA
ATOM     19  H   UNL     1       9.215   2.541  21.274  0.00  0.00    +0.295 HD
ENDBRANCH  16  18
ENDBRANCH  12  16
ENDBRANCH  11  12
ENDBRANCH   1  11
TORSDOF 7
ENDMDL
