MODEL 1
REMARK VINA RESULT:      -4.9      0.000      0.000
REMARK  Name = 
REMARK  14 active torsions:
REMARK  status: ('A' for Active; 'I' for Inactive)
REMARK    1  A    between atoms: C_1  and  C_2
REMARK    2  A    between atoms: C_2  and  C_3
REMARK    3  A    between atoms: C_3  and  C_4
REMARK    4  A    between atoms: C_5  and  C_6
REMARK    5  A    between atoms: C_7  and  C_8
REMARK    6  A    between atoms: C_8  and  C_9
REMARK    7  A    between atoms: C_9  and  C_10
REMARK    8  A    between atoms: C_10  and  C_11
REMARK    9  A    between atoms: C_11  and  C_12
REMARK   10  A    between atoms: C_12  and  C_13
REMARK   11  A    between atoms: C_13  and  C_14
REMARK   12  A    between atoms: C_14  and  C_15
REMARK   13  A    between atoms: C_15  and  C_16
REMARK   14  A    between atoms: C_16  and  O_17
REMARK                            x       y       z     vdW  Elec       q    Type
REMARK                         _______ _______ _______ _____ _____    ______ ____
ROOT
ATOM      1  C   UNL     1      10.534   2.221  22.773  0.00  0.00    +0.004 C 
ENDROOT
BRANCH   1   2
ATOM      2  C   UNL     1       9.663   1.414  21.811  0.00  0.00    +0.027 C 
BRANCH   2   4
ATOM      3  C   UNL     1       8.658  -0.851  22.166  0.00  0.00    -0.005 C 
ATOM      4  C   UNL     1       9.734  -0.052  22.121  0.00  0.00    -0.027 C 
BRANCH   3   6
ATOM      5  C   UNL     1       7.947  -2.861  23.359  0.00  0.00    -0.027 C 
ATOM      6  C   UNL     1       8.744  -2.259  22.464  0.00  0.00    -0.005 C 
BRANCH   5   7
ATOM      7  C   UNL     1       8.029  -4.323  23.686  0.00  0.00    +0.027 C 
BRANCH   7   9
ATOM      8  C   UNL     1       7.198  -5.924  21.931  0.00  0.00    +0.004 C 
ATOM      9  C   UNL     1       6.820  -5.083  23.141  0.00  0.00    +0.001 C 
ENDBRANCH   7   9
ENDBRANCH   5   7
ENDBRANCH   3   6
ENDBRANCH   2   4
ENDBRANCH   1   2
BRANCH   1  10
ATOM     10  C   UNL     1       9.821   2.433  24.107  0.00  0.00    +0.000 C 
BRANCH  10  11
ATOM     11  C   UNL     1       8.446   3.068  23.904  0.00  0.00    +0.000 C 
BRANCH  11  12
ATOM     12  C   UNL     1       8.572   4.547  23.546  0.00  0.00    +0.000 C 
BRANCH  12  13
ATOM     13  C   UNL     1       9.617   5.239  24.419  0.00  0.00    +0.000 C 
BRANCH  13  14
ATOM     14  C   UNL     1      10.642   5.983  23.563  0.00  0.00    +0.002 C 
BRANCH  14  15
ATOM     15  C   UNL     1      12.068   5.651  23.995  0.00  0.00    +0.028 C 
BRANCH  15  16
ATOM     16  C   UNL     1      12.892   5.122  22.831  0.00  0.00    +0.156 C 
BRANCH  16  17
ATOM     17  O   UNL     1      14.273   5.151  23.166  0.00  0.00    -0.395 OA
ATOM     18  H   UNL     1      14.341   5.053  24.131  0.00  0.00    +0.209 HD
ENDBRANCH  16  17
ENDBRANCH  15  16
ENDBRANCH  14  15
ENDBRANCH  13  14
ENDBRANCH  12  13
ENDBRANCH  11  12
ENDBRANCH  10  11
ENDBRANCH   1  10
TORSDOF 13
ENDMDL
MODEL 2
REMARK VINA RESULT:      -4.8      4.861      8.511
REMARK  Name = 
REMARK  14 active torsions:
REMARK  status: ('A' for Active; 'I' for Inactive)
REMARK    1  A    between atoms: C_1  and  C_2
REMARK    2  A    between atoms: C_2  and  C_3
REMARK    3  A    between atoms: C_3  and  C_4
REMARK    4  A    between atoms: C_5  and  C_6
REMARK    5  A    between atoms: C_7  and  C_8
REMARK    6  A    between atoms: C_8  and  C_9
REMARK    7  A    between atoms: C_9  and  C_10
REMARK    8  A    between atoms: C_10  and  C_11
REMARK    9  A    between atoms: C_11  and  C_12
REMARK   10  A    between atoms: C_12  and  C_13
REMARK   11  A    between atoms: C_13  and  C_14
REMARK   12  A    between atoms: C_14  and  C_15
REMARK   13  A    between atoms: C_15  and  C_16
REMARK   14  A    between atoms: C_16  and  O_17
REMARK                            x       y       z     vdW  Elec       q    Type
REMARK                         _______ _______ _______ _____ _____    ______ ____
ROOT
ATOM      1  C   UNL     1       7.131  -4.869  27.071  0.00  0.00    +0.004 C 
ENDROOT
BRANCH   1   2
ATOM      2  C   UNL     1       8.329  -5.403  26.287  0.00  0.00    +0.027 C 
BRANCH   2   4
ATOM      3  C   UNL     1       8.614  -3.046  25.493  0.00  0.00    -0.005 C 
ATOM      4  C   UNL     1       8.882  -4.354  25.368  0.00  0.00    -0.027 C 
BRANCH   3   6
ATOM      5  C   UNL     1       9.795  -2.364  23.465  0.00  0.00    -0.027 C 
ATOM      6  C   UNL     1       9.156  -2.050  24.601  0.00  0.00    -0.005 C 
BRANCH   5   7
ATOM      7  C   UNL     1      10.371  -1.341  22.531  0.00  0.00    +0.027 C 
BRANCH   7   9
ATOM      8  C   UNL     1       9.370   0.756  21.565  0.00  0.00    +0.004 C 
ATOM      9  C   UNL     1       9.298  -0.763  21.609  0.00  0.00    +0.001 C 
ENDBRANCH   7   9
ENDBRANCH   5   7
ENDBRANCH   3   6
ENDBRANCH   2   4
ENDBRANCH   1   2
BRANCH   1  10
ATOM     10  C   UNL     1       5.818  -5.329  26.441  0.00  0.00    +0.000 C 
BRANCH  10  11
ATOM     11  C   UNL     1       5.109  -4.173  25.736  0.00  0.00    +0.000 C 
BRANCH  11  12
ATOM     12  C   UNL     1       5.159  -4.342  24.219  0.00  0.00    +0.000 C 
BRANCH  12  13
ATOM     13  C   UNL     1       5.529  -3.029  23.530  0.00  0.00    +0.000 C 
BRANCH  13  14
ATOM     14  C   UNL     1       6.344  -3.285  22.263  0.00  0.00    +0.002 C 
BRANCH  14  15
ATOM     15  C   UNL     1       7.022  -4.652  22.308  0.00  0.00    +0.028 C 
BRANCH  15  16
ATOM     16  C   UNL     1       6.475  -5.580  21.235  0.00  0.00    +0.156 C 
BRANCH  16  17
ATOM     17  O   UNL     1       6.091  -6.818  21.818  0.00  0.00    -0.395 OA
ATOM     18  H   UNL     1       6.246  -6.751  22.775  0.00  0.00    +0.209 HD
ENDBRANCH  16  17
ENDBRANCH  15  16
ENDBRANCH  14  15
ENDBRANCH  13  14
ENDBRANCH  12  13
ENDBRANCH  11  12
ENDBRANCH  10  11
ENDBRANCH   1  10
TORSDOF 13
ENDMDL
MODEL 3
REMARK VINA RESULT:      -4.7      2.948      4.249
REMARK  Name = 
REMARK  14 active torsions:
REMARK  status: ('A' for Active; 'I' for Inactive)
REMARK    1  A    between atoms: C_1  and  C_2
REMARK    2  A    between atoms: C_2  and  C_3
REMARK    3  A    between atoms: C_3  and  C_4
REMARK    4  A    between atoms: C_5  and  C_6
REMARK    5  A    between atoms: C_7  and  C_8
REMARK    6  A    between atoms: C_8  and  C_9
REMARK    7  A    between atoms: C_9  and  C_10
REMARK    8  A    between atoms: C_10  and  C_11
REMARK    9  A    between atoms: C_11  and  C_12
REMARK   10  A    between atoms: C_12  and  C_13
REMARK   11  A    between atoms: C_13  and  C_14
REMARK   12  A    between atoms: C_14  and  C_15
REMARK   13  A    between atoms: C_15  and  C_16
REMARK   14  A    between atoms: C_16  and  O_17
REMARK                            x       y       z     vdW  Elec       q    Type
REMARK                         _______ _______ _______ _____ _____    ______ ____
ROOT
ATOM      1  C   UNL     1       9.980   1.960  23.699  0.00  0.00    +0.004 C 
ENDROOT
BRANCH   1   2
ATOM      2  C   UNL     1      10.855   0.919  24.395  0.00  0.00    +0.027 C 
BRANCH   2   4
ATOM      3  C   UNL     1      10.113  -1.409  23.850  0.00  0.00    -0.005 C 
ATOM      4  C   UNL     1      10.086  -0.341  24.661  0.00  0.00    -0.027 C 
BRANCH   3   6
ATOM      5  C   UNL     1       8.395  -3.062  23.317  0.00  0.00    -0.027 C 
ATOM      6  C   UNL     1       9.369  -2.614  24.121  0.00  0.00    -0.005 C 
BRANCH   5   7
ATOM      7  C   UNL     1       7.606  -4.309  23.589  0.00  0.00    +0.027 C 
BRANCH   7   9
ATOM      8  C   UNL     1       7.075  -6.060  21.862  0.00  0.00    +0.004 C 
ATOM      9  C   UNL     1       6.724  -4.680  22.397  0.00  0.00    +0.001 C 
ENDBRANCH   7   9
ENDBRANCH   5   7
ENDBRANCH   3   6
ENDBRANCH   2   4
ENDBRANCH   1   2
BRANCH   1  10
ATOM     10  C   UNL     1      10.100   1.847  22.181  0.00  0.00    +0.000 C 
BRANCH  10  11
ATOM     11  C   UNL     1       8.834   1.249  21.569  0.00  0.00    +0.000 C 
BRANCH  11  12
ATOM     12  C   UNL     1       7.625   1.486  22.470  0.00  0.00    +0.000 C 
BRANCH  12  13
ATOM     13  C   UNL     1       6.869   0.185  22.733  0.00  0.00    +0.000 C 
BRANCH  13  14
ATOM     14  C   UNL     1       6.502   0.052  24.211  0.00  0.00    +0.002 C 
BRANCH  14  15
ATOM     15  C   UNL     1       6.425   1.419  24.886  0.00  0.00    +0.028 C 
BRANCH  15  16
ATOM     16  C   UNL     1       7.124   1.410  26.238  0.00  0.00    +0.156 C 
BRANCH  16  17
ATOM     17  O   UNL     1       7.817   2.636  26.429  0.00  0.00    -0.395 OA
ATOM     18  H   UNL     1       7.764   3.135  25.597  0.00  0.00    +0.209 HD
ENDBRANCH  16  17
ENDBRANCH  15  16
ENDBRANCH  14  15
ENDBRANCH  13  14
ENDBRANCH  12  13
ENDBRANCH  11  12
ENDBRANCH  10  11
ENDBRANCH   1  10
TORSDOF 13
ENDMDL
MODEL 4
REMARK VINA RESULT:      -4.7      1.054      1.844
REMARK  Name = 
REMARK  14 active torsions:
REMARK  status: ('A' for Active; 'I' for Inactive)
REMARK    1  A    between atoms: C_1  and  C_2
REMARK    2  A    between atoms: C_2  and  C_3
REMARK    3  A    between atoms: C_3  and  C_4
REMARK    4  A    between atoms: C_5  and  C_6
REMARK    5  A    between atoms: C_7  and  C_8
REMARK    6  A    between atoms: C_8  and  C_9
REMARK    7  A    between atoms: C_9  and  C_10
REMARK    8  A    between atoms: C_10  and  C_11
REMARK    9  A    between atoms: C_11  and  C_12
REMARK   10  A    between atoms: C_12  and  C_13
REMARK   11  A    between atoms: C_13  and  C_14
REMARK   12  A    between atoms: C_14  and  C_15
REMARK   13  A    between atoms: C_15  and  C_16
REMARK   14  A    between atoms: C_16  and  O_17
REMARK                            x       y       z     vdW  Elec       q    Type
REMARK                         _______ _______ _______ _____ _____    ______ ____
ROOT
ATOM      1  C   UNL     1       9.410   0.350  21.452  0.00  0.00    +0.004 C 
ENDROOT
BRANCH   1   2
ATOM      2  C   UNL     1      10.112  -0.797  22.178  0.00  0.00    +0.027 C 
BRANCH   2   4
ATOM      3  C   UNL     1       9.006  -2.574  23.550  0.00  0.00    -0.005 C 
ATOM      4  C   UNL     1       9.185  -1.960  22.372  0.00  0.00    -0.027 C 
BRANCH   3   6
ATOM      5  C   UNL     1       7.603  -4.379  22.687  0.00  0.00    -0.027 C 
ATOM      6  C   UNL     1       8.108  -3.690  23.720  0.00  0.00    -0.005 C 
BRANCH   5   7
ATOM      7  C   UNL     1       6.662  -5.536  22.846  0.00  0.00    +0.027 C 
BRANCH   7   9
ATOM      8  C   UNL     1       4.514  -4.296  23.271  0.00  0.00    +0.004 C 
ATOM      9  C   UNL     1       5.564  -5.225  23.863  0.00  0.00    +0.001 C 
ENDBRANCH   7   9
ENDBRANCH   5   7
ENDBRANCH   3   6
ENDBRANCH   2   4
ENDBRANCH   1   2
BRANCH   1  10
ATOM     10  C   UNL     1       9.778   1.696  22.073  0.00  0.00    +0.000 C 
BRANCH  10  11
ATOM     11  C   UNL     1       8.981   1.952  23.351  0.00  0.00    +0.000 C 
BRANCH  11  12
ATOM     12  C   UNL     1       9.134   3.400  23.812  0.00  0.00    +0.000 C 
BRANCH  12  13
ATOM     13  C   UNL     1      10.564   3.897  23.603  0.00  0.00    +0.000 C 
BRANCH  13  14
ATOM     14  C   UNL     1      10.682   5.383  23.939  0.00  0.00    +0.002 C 
BRANCH  14  15
ATOM     15  C   UNL     1      12.091   5.902  23.659  0.00  0.00    +0.028 C 
BRANCH  15  16
ATOM     16  C   UNL     1      12.930   4.865  22.928  0.00  0.00    +0.156 C 
BRANCH  16  17
ATOM     17  O   UNL     1      14.309   5.101  23.175  0.00  0.00    -0.395 OA
ATOM     18  H   UNL     1      14.550   4.610  23.979  0.00  0.00    +0.209 HD
ENDBRANCH  16  17
ENDBRANCH  15  16
ENDBRANCH  14  15
ENDBRANCH  13  14
ENDBRANCH  12  13
ENDBRANCH  11  12
ENDBRANCH  10  11
ENDBRANCH   1  10
TORSDOF 13
ENDMDL
MODEL 5
REMARK VINA RESULT:      -4.7      3.376      4.420
REMARK  Name = 
REMARK  14 active torsions:
REMARK  status: ('A' for Active; 'I' for Inactive)
REMARK    1  A    between atoms: C_1  and  C_2
REMARK    2  A    between atoms: C_2  and  C_3
REMARK    3  A    between atoms: C_3  and  C_4
REMARK    4  A    between atoms: C_5  and  C_6
REMARK    5  A    between atoms: C_7  and  C_8
REMARK    6  A    between atoms: C_8  and  C_9
REMARK    7  A    between atoms: C_9  and  C_10
REMARK    8  A    between atoms: C_10  and  C_11
REMARK    9  A    between atoms: C_11  and  C_12
REMARK   10  A    between atoms: C_12  and  C_13
REMARK   11  A    between atoms: C_13  and  C_14
REMARK   12  A    between atoms: C_14  and  C_15
REMARK   13  A    between atoms: C_15  and  C_16
REMARK   14  A    between atoms: C_16  and  O_17
REMARK                            x       y       z     vdW  Elec       q    Type
REMARK                         _______ _______ _______ _____ _____    ______ ____
ROOT
ATOM      1  C   UNL     1      10.758   0.513  24.200  0.00  0.00    +0.004 C 
ENDROOT
BRANCH   1   2
ATOM      2  C   UNL     1       9.690  -0.040  25.141  0.00  0.00    +0.027 C 
BRANCH   2   4
ATOM      3  C   UNL     1       8.318  -1.544  23.683  0.00  0.00    -0.005 C 
ATOM      4  C   UNL     1       9.205  -1.382  24.675  0.00  0.00    -0.027 C 
BRANCH   3   6
ATOM      5  C   UNL     1       8.207  -3.978  23.869  0.00  0.00    -0.027 C 
ATOM      6  C   UNL     1       7.864  -2.841  23.246  0.00  0.00    -0.005 C 
BRANCH   5   7
ATOM      7  C   UNL     1       7.750  -5.335  23.424  0.00  0.00    +0.027 C 
BRANCH   7   9
ATOM      8  C   UNL     1       5.803  -5.791  21.896  0.00  0.00    +0.004 C 
ATOM      9  C   UNL     1       7.242  -5.305  21.982  0.00  0.00    +0.001 C 
ENDBRANCH   7   9
ENDBRANCH   5   7
ENDBRANCH   3   6
ENDBRANCH   2   4
ENDBRANCH   1   2
BRANCH   1  10
ATOM     10  C   UNL     1      10.345   1.875  23.645  0.00  0.00    +0.000 C 
BRANCH  10  11
ATOM     11  C   UNL     1      10.265   1.849  22.120  0.00  0.00    +0.000 C 
BRANCH  11  12
ATOM     12  C   UNL     1       8.923   1.292  21.651  0.00  0.00    +0.000 C 
BRANCH  12  13
ATOM     13  C   UNL     1       7.789   2.278  21.928  0.00  0.00    +0.000 C 
BRANCH  13  14
ATOM     14  C   UNL     1       6.683   1.625  22.756  0.00  0.00    +0.002 C 
BRANCH  14  15
ATOM     15  C   UNL     1       6.737   2.085  24.211  0.00  0.00    +0.028 C 
BRANCH  15  16
ATOM     16  C   UNL     1       5.759   1.306  25.076  0.00  0.00    +0.156 C 
BRANCH  16  17
ATOM     17  O   UNL     1       5.387   0.102  24.419  0.00  0.00    -0.395 OA
ATOM     18  H   UNL     1       5.680  -0.638  24.976  0.00  0.00    +0.209 HD
ENDBRANCH  16  17
ENDBRANCH  15  16
ENDBRANCH  14  15
ENDBRANCH  13  14
ENDBRANCH  12  13
ENDBRANCH  11  12
ENDBRANCH  10  11
ENDBRANCH   1  10
TORSDOF 13
ENDMDL
MODEL 6
REMARK VINA RESULT:      -4.7      2.326      3.204
REMARK  Name = 
REMARK  14 active torsions:
REMARK  status: ('A' for Active; 'I' for Inactive)
REMARK    1  A    between atoms: C_1  and  C_2
REMARK    2  A    between atoms: C_2  and  C_3
REMARK    3  A    between atoms: C_3  and  C_4
REMARK    4  A    between atoms: C_5  and  C_6
REMARK    5  A    between atoms: C_7  and  C_8
REMARK    6  A    between atoms: C_8  and  C_9
REMARK    7  A    between atoms: C_9  and  C_10
REMARK    8  A    between atoms: C_10  and  C_11
REMARK    9  A    between atoms: C_11  and  C_12
REMARK   10  A    between atoms: C_12  and  C_13
REMARK   11  A    between atoms: C_13  and  C_14
REMARK   12  A    between atoms: C_14  and  C_15
REMARK   13  A    between atoms: C_15  and  C_16
REMARK   14  A    between atoms: C_16  and  O_17
REMARK                            x       y       z     vdW  Elec       q    Type
REMARK                         _______ _______ _______ _____ _____    ______ ____
ROOT
ATOM      1  C   UNL     1      10.880   0.744  24.335  0.00  0.00    +0.004 C 
ENDROOT
BRANCH   1   2
ATOM      2  C   UNL     1       9.925  -0.072  25.205  0.00  0.00    +0.027 C 
BRANCH   2   4
ATOM      3  C   UNL     1       9.437  -1.601  23.283  0.00  0.00    -0.005 C 
ATOM      4  C   UNL     1       9.020  -0.920  24.361  0.00  0.00    -0.027 C 
BRANCH   3   6
ATOM      5  C   UNL     1       7.236  -2.496  22.715  0.00  0.00    -0.027 C 
ATOM      6  C   UNL     1       8.554  -2.414  22.485  0.00  0.00    -0.005 C 
BRANCH   5   7
ATOM      7  C   UNL     1       6.306  -3.344  21.898  0.00  0.00    +0.027 C 
BRANCH   7   9
ATOM      8  C   UNL     1       6.727  -5.809  21.628  0.00  0.00    +0.004 C 
ATOM      9  C   UNL     1       6.129  -4.730  22.517  0.00  0.00    +0.001 C 
ENDBRANCH   7   9
ENDBRANCH   5   7
ENDBRANCH   3   6
ENDBRANCH   2   4
ENDBRANCH   1   2
BRANCH   1  10
ATOM     10  C   UNL     1      10.182   1.978  23.766  0.00  0.00    +0.000 C 
BRANCH  10  11
ATOM     11  C   UNL     1      10.200   1.967  22.238  0.00  0.00    +0.000 C 
BRANCH  11  12
ATOM     12  C   UNL     1       8.832   1.583  21.677  0.00  0.00    +0.000 C 
BRANCH  12  13
ATOM     13  C   UNL     1       7.705   2.115  22.560  0.00  0.00    +0.000 C 
BRANCH  13  14
ATOM     14  C   UNL     1       7.247   3.496  22.094  0.00  0.00    +0.002 C 
BRANCH  14  15
ATOM     15  C   UNL     1       7.067   4.447  23.274  0.00  0.00    +0.028 C 
BRANCH  15  16
ATOM     16  C   UNL     1       8.334   5.246  23.542  0.00  0.00    +0.156 C 
BRANCH  16  17
ATOM     17  O   UNL     1       8.657   6.032  22.404  0.00  0.00    -0.395 OA
ATOM     18  H   UNL     1       7.962   6.705  22.307  0.00  0.00    +0.209 HD
ENDBRANCH  16  17
ENDBRANCH  15  16
ENDBRANCH  14  15
ENDBRANCH  13  14
ENDBRANCH  12  13
ENDBRANCH  11  12
ENDBRANCH  10  11
ENDBRANCH   1  10
TORSDOF 13
ENDMDL
MODEL 7
REMARK VINA RESULT:      -4.6      3.360      4.826
REMARK  Name = 
REMARK  14 active torsions:
REMARK  status: ('A' for Active; 'I' for Inactive)
REMARK    1  A    between atoms: C_1  and  C_2
REMARK    2  A    between atoms: C_2  and  C_3
REMARK    3  A    between atoms: C_3  and  C_4
REMARK    4  A    between atoms: C_5  and  C_6
REMARK    5  A    between atoms: C_7  and  C_8
REMARK    6  A    between atoms: C_8  and  C_9
REMARK    7  A    between atoms: C_9  and  C_10
REMARK    8  A    between atoms: C_10  and  C_11
REMARK    9  A    between atoms: C_11  and  C_12
REMARK   10  A    between atoms: C_12  and  C_13
REMARK   11  A    between atoms: C_13  and  C_14
REMARK   12  A    between atoms: C_14  and  C_15
REMARK   13  A    between atoms: C_15  and  C_16
REMARK   14  A    between atoms: C_16  and  O_17
REMARK                            x       y       z     vdW  Elec       q    Type
REMARK                         _______ _______ _______ _____ _____    ______ ____
ROOT
ATOM      1  C   UNL     1       8.921   0.686  21.607  0.00  0.00    +0.004 C 
ENDROOT
BRANCH   1   2
ATOM      2  C   UNL     1       9.615  -0.642  21.306  0.00  0.00    +0.027 C 
BRANCH   2   4
ATOM      3  C   UNL     1       7.748  -1.749  22.554  0.00  0.00    -0.005 C 
ATOM      4  C   UNL     1       9.012  -1.758  22.107  0.00  0.00    -0.027 C 
BRANCH   3   6
ATOM      5  C   UNL     1       7.926  -3.825  23.828  0.00  0.00    -0.027 C 
ATOM      6  C   UNL     1       7.183  -2.832  23.320  0.00  0.00    -0.005 C 
BRANCH   5   7
ATOM      7  C   UNL     1       7.353  -4.963  24.621  0.00  0.00    +0.027 C 
BRANCH   7   9
ATOM      8  C   UNL     1       9.007  -4.425  26.440  0.00  0.00    +0.004 C 
ATOM      9  C   UNL     1       7.555  -4.752  26.122  0.00  0.00    +0.001 C 
ENDBRANCH   7   9
ENDBRANCH   5   7
ENDBRANCH   3   6
ENDBRANCH   2   4
ENDBRANCH   1   2
BRANCH   1  10
ATOM     10  C   UNL     1       9.923   1.725  22.105  0.00  0.00    +0.000 C 
BRANCH  10  11
ATOM     11  C   UNL     1       9.840   1.891  23.621  0.00  0.00    +0.000 C 
BRANCH  11  12
ATOM     12  C   UNL     1      10.910   1.059  24.324  0.00  0.00    +0.000 C 
BRANCH  12  13
ATOM     13  C   UNL     1      10.282  -0.055  25.161  0.00  0.00    +0.000 C 
BRANCH  13  14
ATOM     14  C   UNL     1       8.807   0.231  25.437  0.00  0.00    +0.002 C 
BRANCH  14  15
ATOM     15  C   UNL     1       8.231  -0.759  26.446  0.00  0.00    +0.028 C 
BRANCH  15  16
ATOM     16  C   UNL     1       6.719  -0.866  26.319  0.00  0.00    +0.156 C 
BRANCH  16  17
ATOM     17  O   UNL     1       6.255   0.034  25.322  0.00  0.00    -0.395 OA
ATOM     18  H   UNL     1       6.014   0.864  25.766  0.00  0.00    +0.209 HD
ENDBRANCH  16  17
ENDBRANCH  15  16
ENDBRANCH  14  15
ENDBRANCH  13  14
ENDBRANCH  12  13
ENDBRANCH  11  12
ENDBRANCH  10  11
ENDBRANCH   1  10
TORSDOF 13
ENDMDL
MODEL 8
REMARK VINA RESULT:      -4.6      4.136      8.443
REMARK  Name = 
REMARK  14 active torsions:
REMARK  status: ('A' for Active; 'I' for Inactive)
REMARK    1  A    between atoms: C_1  and  C_2
REMARK    2  A    between atoms: C_2  and  C_3
REMARK    3  A    between atoms: C_3  and  C_4
REMARK    4  A    between atoms: C_5  and  C_6
REMARK    5  A    between atoms: C_7  and  C_8
REMARK    6  A    between atoms: C_8  and  C_9
REMARK    7  A    between atoms: C_9  and  C_10
REMARK    8  A    between atoms: C_10  and  C_11
REMARK    9  A    between atoms: C_11  and  C_12
REMARK   10  A    between atoms: C_12  and  C_13
REMARK   11  A    between atoms: C_13  and  C_14
REMARK   12  A    between atoms: C_14  and  C_15
REMARK   13  A    between atoms: C_15  and  C_16
REMARK   14  A    between atoms: C_16  and  O_17
REMARK                            x       y       z     vdW  Elec       q    Type
REMARK                         _______ _______ _______ _____ _____    ______ ____
ROOT
ATOM      1  C   UNL     1       5.031  -5.397  22.760  0.00  0.00    +0.004 C 
ENDROOT
BRANCH   1   2
ATOM      2  C   UNL     1       6.326  -5.588  21.972  0.00  0.00    +0.027 C 
BRANCH   2   4
ATOM      3  C   UNL     1       7.269  -3.318  22.448  0.00  0.00    -0.005 C 
ATOM      4  C   UNL     1       7.395  -4.653  22.458  0.00  0.00    -0.027 C 
BRANCH   3   6
ATOM      5  C   UNL     1       8.972  -1.598  22.112  0.00  0.00    -0.027 C 
ATOM      6  C   UNL     1       8.306  -2.434  22.921  0.00  0.00    -0.005 C 
BRANCH   5   7
ATOM      7  C   UNL     1      10.058  -0.678  22.587  0.00  0.00    +0.027 C 
BRANCH   7   9
ATOM      8  C   UNL     1       8.514   1.042  21.591  0.00  0.00    +0.004 C 
ATOM      9  C   UNL     1       9.959   0.692  21.915  0.00  0.00    +0.001 C 
ENDBRANCH   7   9
ENDBRANCH   5   7
ENDBRANCH   3   6
ENDBRANCH   2   4
ENDBRANCH   1   2
BRANCH   1  10
ATOM     10  C   UNL     1       4.798  -6.565  23.716  0.00  0.00    +0.000 C 
BRANCH  10  11
ATOM     11  C   UNL     1       4.439  -6.068  25.116  0.00  0.00    +0.000 C 
BRANCH  11  12
ATOM     12  C   UNL     1       5.186  -4.779  25.449  0.00  0.00    +0.000 C 
BRANCH  12  13
ATOM     13  C   UNL     1       6.544  -5.077  26.085  0.00  0.00    +0.000 C 
BRANCH  13  14
ATOM     14  C   UNL     1       7.296  -3.786  26.403  0.00  0.00    +0.002 C 
BRANCH  14  15
ATOM     15  C   UNL     1       8.805  -3.980  26.275  0.00  0.00    +0.028 C 
BRANCH  15  16
ATOM     16  C   UNL     1       9.143  -5.348  25.703  0.00  0.00    +0.156 C 
BRANCH  16  17
ATOM     17  O   UNL     1      10.235  -5.236  24.800  0.00  0.00    -0.395 OA
ATOM     18  H   UNL     1      11.044  -5.461  25.291  0.00  0.00    +0.209 HD
ENDBRANCH  16  17
ENDBRANCH  15  16
ENDBRANCH  14  15
ENDBRANCH  13  14
ENDBRANCH  12  13
ENDBRANCH  11  12
ENDBRANCH  10  11
ENDBRANCH   1  10
TORSDOF 13
ENDMDL
MODEL 9
REMARK VINA RESULT:      -4.6      3.758      8.756
REMARK  Name = 
REMARK  14 active torsions:
REMARK  status: ('A' for Active; 'I' for Inactive)
REMARK    1  A    between atoms: C_1  and  C_2
REMARK    2  A    between atoms: C_2  and  C_3
REMARK    3  A    between atoms: C_3  and  C_4
REMARK    4  A    between atoms: C_5  and  C_6
REMARK    5  A    between atoms: C_7  and  C_8
REMARK    6  A    between atoms: C_8  and  C_9
REMARK    7  A    between atoms: C_9  and  C_10
REMARK    8  A    between atoms: C_10  and  C_11
REMARK    9  A    between atoms: C_11  and  C_12
REMARK   10  A    between atoms: C_12  and  C_13
REMARK   11  A    between atoms: C_13  and  C_14
REMARK   12  A    between atoms: C_14  and  C_15
REMARK   13  A    between atoms: C_15  and  C_16
REMARK   14  A    between atoms: C_16  and  O_17
REMARK                            x       y       z     vdW  Elec       q    Type
REMARK                         _______ _______ _______ _____ _____    ______ ____
ROOT
ATOM      1  C   UNL     1      10.002  -1.244  22.304  0.00  0.00    +0.004 C 
ENDROOT
BRANCH   1   2
ATOM      2  C   UNL     1       9.539  -0.162  21.330  0.00  0.00    +0.027 C 
BRANCH   2   4
ATOM      3  C   UNL     1      10.223   1.424  23.142  0.00  0.00    -0.005 C 
ATOM      4  C   UNL     1       9.693   1.204  21.930  0.00  0.00    -0.027 C 
BRANCH   3   6
ATOM      5  C   UNL     1      11.010   3.736  23.070  0.00  0.00    -0.027 C 
ATOM      6  C   UNL     1      10.366   2.745  23.702  0.00  0.00    -0.005 C 
BRANCH   5   7
ATOM      7  C   UNL     1      11.174   5.113  23.643  0.00  0.00    +0.027 C 
BRANCH   7   9
ATOM      8  C   UNL     1      13.238   5.570  22.276  0.00  0.00    +0.004 C 
ATOM      9  C   UNL     1      12.645   5.529  23.677  0.00  0.00    +0.001 C 
ENDBRANCH   7   9
ENDBRANCH   5   7
ENDBRANCH   3   6
ENDBRANCH   2   4
ENDBRANCH   1   2
BRANCH   1  10
ATOM     10  C   UNL     1       8.866  -2.213  22.625  0.00  0.00    +0.000 C 
BRANCH  10  11
ATOM     11  C   UNL     1       8.065  -1.741  23.838  0.00  0.00    +0.000 C 
BRANCH  11  12
ATOM     12  C   UNL     1       8.773  -2.110  25.140  0.00  0.00    +0.000 C 
BRANCH  12  13
ATOM     13  C   UNL     1       8.824  -3.626  25.329  0.00  0.00    +0.000 C 
BRANCH  13  14
ATOM     14  C   UNL     1       7.418  -4.213  25.439  0.00  0.00    +0.002 C 
BRANCH  14  15
ATOM     15  C   UNL     1       6.827  -3.980  26.827  0.00  0.00    +0.028 C 
BRANCH  15  16
ATOM     16  C   UNL     1       6.509  -5.294  27.524  0.00  0.00    +0.156 C 
BRANCH  16  17
ATOM     17  O   UNL     1       7.708  -6.025  27.743  0.00  0.00    -0.395 OA
ATOM     18  H   UNL     1       8.350  -5.418  28.147  0.00  0.00    +0.209 HD
ENDBRANCH  16  17
ENDBRANCH  15  16
ENDBRANCH  14  15
ENDBRANCH  13  14
ENDBRANCH  12  13
ENDBRANCH  11  12
ENDBRANCH  10  11
ENDBRANCH   1  10
TORSDOF 13
ENDMDL
