MODEL 1
REMARK VINA RESULT:      -7.0      0.000      0.000
REMARK  Name = 
REMARK  8 active torsions:
REMARK  status: ('A' for Active; 'I' for Inactive)
REMARK    1  A    between atoms: C_1  and  O_2
REMARK    2  A    between atoms: O_2  and  C_3
REMARK    3  A    between atoms: N_5  and  C_6
REMARK    4  A    between atoms: N_5  and  C_7
REMARK    5  A    between atoms: C_8  and  N_9
REMARK    6  A    between atoms: C_11  and  C_15
REMARK    7  A    between atoms: N_17  and  C_18
REMARK    8  A    between atoms: C_18  and  C_19
REMARK                            x       y       z     vdW  Elec       q    Type
REMARK                         _______ _______ _______ _____ _____    ______ ____
ROOT
ATOM      1  C   UNL     1       5.988  -4.369  24.553  0.00  0.00    +0.118 A 
ATOM      2  C   UNL     1       7.164  -4.231  23.823  0.00  0.00    +0.144 A 
ATOM      3  N   UNL     1       7.905  -5.346  23.414  0.00  0.00    -0.342 N 
ATOM      4  H   UNL     1       8.077  -6.001  24.164  0.00  0.00    +0.144 HD
ATOM      5  H   UNL     1       8.749  -5.017  22.957  0.00  0.00    +0.144 HD
ATOM      6  N   UNL     1       7.631  -3.043  23.415  0.00  0.00    -0.209 NA
ATOM      7  C   UNL     1       6.886  -1.965  23.729  0.00  0.00    +0.184 A 
ATOM      8  N   UNL     1       5.710  -1.998  24.394  0.00  0.00    -0.209 NA
ATOM      9  C   UNL     1       5.281  -3.196  24.801  0.00  0.00    +0.144 A 
ENDROOT
BRANCH   7  10
ATOM     10  C   UNL     1       7.415  -0.623  23.414  0.00  0.00    +0.139 A 
ATOM     11  C   UNL     1       8.645  -0.071  23.896  0.00  0.00    +0.050 A 
ATOM     12  C   UNL     1       9.649  -0.428  24.813  0.00  0.00    +0.015 A 
ATOM     13  C   UNL     1      10.757   0.412  24.918  0.00  0.00    +0.020 A 
ATOM     14  C   UNL     1      10.830   1.535  24.104  0.00  0.00    +0.113 A 
ATOM     15  N   UNL     1       9.876   1.941  23.236  0.00  0.00    -0.236 NA
ATOM     16  C   UNL     1       8.812   1.114  23.200  0.00  0.00    +0.159 A 
ATOM     17  N   UNL     1       7.655   1.292  22.494  0.00  0.00    -0.241 N 
ATOM     18  N   UNL     1       6.811   0.232  22.555  0.00  0.00    -0.165 NA
BRANCH  17  19
ATOM     19  C   UNL     1       7.327   2.456  21.685  0.00  0.00    +0.183 C 
BRANCH  19  20
ATOM     20  C   UNL     1       6.470   3.469  22.407  0.00  0.00    +0.009 A 
ATOM     21  C   UNL     1       5.071   3.358  22.459  0.00  0.00    +0.008 A 
ATOM     22  C   UNL     1       4.294   4.394  22.988  0.00  0.00    +0.000 A 
ATOM     23  C   UNL     1       4.899   5.555  23.465  0.00  0.00    +0.003 A 
ATOM     24  C   UNL     1       6.287   5.663  23.453  0.00  0.00    +0.039 A 
ATOM     25  C   UNL     1       7.057   4.622  22.937  0.00  0.00    +0.128 A 
ATOM     26  F   UNL     1       8.391   4.762  22.924  0.00  0.00    -0.205 F 
ENDBRANCH  19  20
ENDBRANCH  17  19
ENDBRANCH   7  10
BRANCH   1  28
ATOM     27  C   UNL     1       4.668  -6.435  24.408  0.00  0.00    +0.407 C 
ATOM     28  N   UNL     1       5.566  -5.620  25.080  0.00  0.00    -0.234 N 
ATOM     29  C   UNL     1       6.037  -5.974  26.407  0.00  0.00    +0.142 C 
ATOM     30  O   UNL     1       4.245  -7.493  24.864  0.00  0.00    -0.226 OA
BRANCH  27  32
ATOM     31  C   UNL     1       2.894  -5.800  23.019  0.00  0.00    +0.282 C 
ATOM     32  O   UNL     1       4.302  -5.942  23.191  0.00  0.00    -0.453 OA
ENDBRANCH  27  32
ENDBRANCH   1  28
BRANCH   9  33
ATOM     33  N   UNL     1       4.038  -3.203  25.441  0.00  0.00    -0.342 N 
ATOM     34  H   UNL     1       3.316  -3.382  24.751  0.00  0.00    +0.144 HD
ATOM     35  H   UNL     1       3.872  -2.369  25.990  0.00  0.00    +0.144 HD
ENDBRANCH   9  33
TORSDOF 6
ENDMDL
MODEL 2
REMARK VINA RESULT:      -7.0      2.020      3.013
REMARK  Name = 
REMARK  8 active torsions:
REMARK  status: ('A' for Active; 'I' for Inactive)
REMARK    1  A    between atoms: C_1  and  O_2
REMARK    2  A    between atoms: O_2  and  C_3
REMARK    3  A    between atoms: N_5  and  C_6
REMARK    4  A    between atoms: N_5  and  C_7
REMARK    5  A    between atoms: C_8  and  N_9
REMARK    6  A    between atoms: C_11  and  C_15
REMARK    7  A    between atoms: N_17  and  C_18
REMARK    8  A    between atoms: C_18  and  C_19
REMARK                            x       y       z     vdW  Elec       q    Type
REMARK                         _______ _______ _______ _____ _____    ______ ____
ROOT
ATOM      1  C   UNL     1       4.210  -5.239  23.469  0.00  0.00    +0.118 A 
ATOM      2  C   UNL     1       5.344  -5.298  22.665  0.00  0.00    +0.144 A 
ATOM      3  N   UNL     1       5.582  -6.388  21.819  0.00  0.00    -0.342 N 
ATOM      4  H   UNL     1       5.483  -7.278  22.286  0.00  0.00    +0.144 HD
ATOM      5  H   UNL     1       6.488  -6.256  21.379  0.00  0.00    +0.144 HD
ATOM      6  N   UNL     1       6.242  -4.306  22.601  0.00  0.00    -0.209 NA
ATOM      7  C   UNL     1       5.985  -3.214  23.346  0.00  0.00    +0.184 A 
ATOM      8  N   UNL     1       4.892  -3.041  24.123  0.00  0.00    -0.209 NA
ATOM      9  C   UNL     1       4.024  -4.056  24.178  0.00  0.00    +0.144 A 
ENDROOT
BRANCH   7  10
ATOM     10  C   UNL     1       7.001  -2.144  23.411  0.00  0.00    +0.139 A 
ATOM     11  C   UNL     1       7.636  -1.661  24.599  0.00  0.00    +0.050 A 
ATOM     12  C   UNL     1       7.513  -1.848  25.987  0.00  0.00    +0.015 A 
ATOM     13  C   UNL     1       8.432  -1.200  26.811  0.00  0.00    +0.020 A 
ATOM     14  C   UNL     1       9.429  -0.428  26.230  0.00  0.00    +0.113 A 
ATOM     15  N   UNL     1       9.567  -0.186  24.907  0.00  0.00    -0.236 NA
ATOM     16  C   UNL     1       8.633  -0.807  24.159  0.00  0.00    +0.159 A 
ATOM     17  N   UNL     1       8.452  -0.694  22.809  0.00  0.00    -0.241 N 
ATOM     18  N   UNL     1       7.509  -1.534  22.314  0.00  0.00    -0.165 NA
BRANCH  17  19
ATOM     19  C   UNL     1       9.206   0.179  21.923  0.00  0.00    +0.183 C 
BRANCH  19  20
ATOM     20  C   UNL     1       9.171   1.632  22.334  0.00  0.00    +0.009 A 
ATOM     21  C   UNL     1      10.283   2.270  22.906  0.00  0.00    +0.008 A 
ATOM     22  C   UNL     1      10.171   3.564  23.428  0.00  0.00    +0.000 A 
ATOM     23  C   UNL     1       8.949   4.233  23.394  0.00  0.00    +0.003 A 
ATOM     24  C   UNL     1       7.848   3.626  22.797  0.00  0.00    +0.039 A 
ATOM     25  C   UNL     1       7.969   2.343  22.266  0.00  0.00    +0.128 A 
ATOM     26  F   UNL     1       6.886   1.778  21.713  0.00  0.00    -0.205 F 
ENDBRANCH  19  20
ENDBRANCH  17  19
ENDBRANCH   7  10
BRANCH   1  28
ATOM     27  C   UNL     1       3.570  -7.360  24.527  0.00  0.00    +0.407 C 
ATOM     28  N   UNL     1       3.328  -6.343  23.617  0.00  0.00    -0.234 N 
ATOM     29  C   UNL     1       2.202  -6.419  22.703  0.00  0.00    +0.142 C 
ATOM     30  O   UNL     1       2.854  -8.351  24.638  0.00  0.00    -0.226 OA
BRANCH  27  32
ATOM     31  C   UNL     1       4.409  -6.884  26.659  0.00  0.00    +0.282 C 
ATOM     32  O   UNL     1       4.683  -7.149  25.286  0.00  0.00    -0.453 OA
ENDBRANCH  27  32
ENDBRANCH   1  28
BRANCH   9  33
ATOM     33  N   UNL     1       2.880  -3.827  24.948  0.00  0.00    -0.342 N 
ATOM     34  H   UNL     1       2.742  -4.617  25.570  0.00  0.00    +0.144 HD
ATOM     35  H   UNL     1       2.066  -3.608  24.389  0.00  0.00    +0.144 HD
ENDBRANCH   9  33
TORSDOF 6
ENDMDL
MODEL 3
REMARK VINA RESULT:      -7.0      0.671      1.645
REMARK  Name = 
REMARK  8 active torsions:
REMARK  status: ('A' for Active; 'I' for Inactive)
REMARK    1  A    between atoms: C_1  and  O_2
REMARK    2  A    between atoms: O_2  and  C_3
REMARK    3  A    between atoms: N_5  and  C_6
REMARK    4  A    between atoms: N_5  and  C_7
REMARK    5  A    between atoms: C_8  and  N_9
REMARK    6  A    between atoms: C_11  and  C_15
REMARK    7  A    between atoms: N_17  and  C_18
REMARK    8  A    between atoms: C_18  and  C_19
REMARK                            x       y       z     vdW  Elec       q    Type
REMARK                         _______ _______ _______ _____ _____    ______ ____
ROOT
ATOM      1  C   UNL     1       6.072  -4.224  24.740  0.00  0.00    +0.118 A 
ATOM      2  C   UNL     1       5.261  -3.096  24.804  0.00  0.00    +0.144 A 
ATOM      3  N   UNL     1       3.938  -3.171  25.255  0.00  0.00    -0.342 N 
ATOM      4  H   UNL     1       3.412  -3.910  24.810  0.00  0.00    +0.144 HD
ATOM      5  H   UNL     1       3.516  -2.253  25.157  0.00  0.00    +0.144 HD
ATOM      6  N   UNL     1       5.701  -1.866  24.499  0.00  0.00    -0.209 NA
ATOM      7  C   UNL     1       6.996  -1.764  24.142  0.00  0.00    +0.184 A 
ATOM      8  N   UNL     1       7.874  -2.790  24.094  0.00  0.00    -0.209 NA
ATOM      9  C   UNL     1       7.400  -4.004  24.387  0.00  0.00    +0.144 A 
ENDROOT
BRANCH   7  10
ATOM     10  C   UNL     1       7.500  -0.457  23.676  0.00  0.00    +0.139 A 
ATOM     11  C   UNL     1       8.767   0.122  24.010  0.00  0.00    +0.050 A 
ATOM     12  C   UNL     1       9.841  -0.167  24.870  0.00  0.00    +0.015 A 
ATOM     13  C   UNL     1      10.956   0.669  24.814  0.00  0.00    +0.020 A 
ATOM     14  C   UNL     1      10.965   1.720  23.907  0.00  0.00    +0.113 A 
ATOM     15  N   UNL     1       9.945   2.061  23.088  0.00  0.00    -0.236 NA
ATOM     16  C   UNL     1       8.879   1.244  23.206  0.00  0.00    +0.159 A 
ATOM     17  N   UNL     1       7.670   1.373  22.583  0.00  0.00    -0.241 N 
ATOM     18  N   UNL     1       6.831   0.330  22.800  0.00  0.00    -0.165 NA
BRANCH  17  19
ATOM     19  C   UNL     1       7.280   2.469  21.710  0.00  0.00    +0.183 C 
BRANCH  19  20
ATOM     20  C   UNL     1       6.390   3.488  22.382  0.00  0.00    +0.009 A 
ATOM     21  C   UNL     1       4.995   3.337  22.436  0.00  0.00    +0.008 A 
ATOM     22  C   UNL     1       4.185   4.372  22.915  0.00  0.00    +0.000 A 
ATOM     23  C   UNL     1       4.753   5.572  23.338  0.00  0.00    +0.003 A 
ATOM     24  C   UNL     1       6.137   5.722  23.324  0.00  0.00    +0.039 A 
ATOM     25  C   UNL     1       6.940   4.682  22.859  0.00  0.00    +0.128 A 
ATOM     26  F   UNL     1       8.268   4.862  22.842  0.00  0.00    -0.205 F 
ENDBRANCH  19  20
ENDBRANCH  17  19
ENDBRANCH   7  10
BRANCH   1  28
ATOM     27  C   UNL     1       4.982  -6.272  23.934  0.00  0.00    +0.407 C 
ATOM     28  N   UNL     1       5.564  -5.535  24.953  0.00  0.00    -0.234 N 
ATOM     29  C   UNL     1       5.589  -6.042  26.313  0.00  0.00    +0.142 C 
ATOM     30  O   UNL     1       4.488  -7.382  24.101  0.00  0.00    -0.226 OA
BRANCH  27  32
ATOM     31  C   UNL     1       5.947  -6.192  21.803  0.00  0.00    +0.282 C 
ATOM     32  O   UNL     1       5.014  -5.638  22.727  0.00  0.00    -0.453 OA
ENDBRANCH  27  32
ENDBRANCH   1  28
BRANCH   9  33
ATOM     33  N   UNL     1       8.344  -5.036  24.378  0.00  0.00    -0.342 N 
ATOM     34  H   UNL     1       9.022  -4.851  23.646  0.00  0.00    +0.144 HD
ATOM     35  H   UNL     1       7.923  -5.954  24.314  0.00  0.00    +0.144 HD
ENDBRANCH   9  33
TORSDOF 6
ENDMDL
MODEL 4
REMARK VINA RESULT:      -6.9      4.215      8.368
REMARK  Name = 
REMARK  8 active torsions:
REMARK  status: ('A' for Active; 'I' for Inactive)
REMARK    1  A    between atoms: C_1  and  O_2
REMARK    2  A    between atoms: O_2  and  C_3
REMARK    3  A    between atoms: N_5  and  C_6
REMARK    4  A    between atoms: N_5  and  C_7
REMARK    5  A    between atoms: C_8  and  N_9
REMARK    6  A    between atoms: C_11  and  C_15
REMARK    7  A    between atoms: N_17  and  C_18
REMARK    8  A    between atoms: C_18  and  C_19
REMARK                            x       y       z     vdW  Elec       q    Type
REMARK                         _______ _______ _______ _____ _____    ______ ____
ROOT
ATOM      1  C   UNL     1       8.157   2.272  23.647  0.00  0.00    +0.118 A 
ATOM      2  C   UNL     1       8.206   1.577  22.443  0.00  0.00    +0.144 A 
ATOM      3  N   UNL     1       8.545   2.216  21.244  0.00  0.00    -0.342 N 
ATOM      4  H   UNL     1       8.024   3.069  21.092  0.00  0.00    +0.144 HD
ATOM      5  H   UNL     1       8.455   1.543  20.489  0.00  0.00    +0.144 HD
ATOM      6  N   UNL     1       7.995   0.256  22.357  0.00  0.00    -0.209 NA
ATOM      7  C   UNL     1       7.750  -0.389  23.514  0.00  0.00    +0.184 A 
ATOM      8  N   UNL     1       7.726   0.187  24.737  0.00  0.00    -0.209 NA
ATOM      9  C   UNL     1       7.923   1.508  24.786  0.00  0.00    +0.144 A 
ENDROOT
BRANCH   7  10
ATOM     10  C   UNL     1       7.388  -1.819  23.465  0.00  0.00    +0.139 A 
ATOM     11  C   UNL     1       8.182  -2.904  23.958  0.00  0.00    +0.050 A 
ATOM     12  C   UNL     1       9.471  -3.084  24.487  0.00  0.00    +0.015 A 
ATOM     13  C   UNL     1       9.818  -4.362  24.924  0.00  0.00    +0.020 A 
ATOM     14  C   UNL     1       8.877  -5.380  24.842  0.00  0.00    +0.113 A 
ATOM     15  N   UNL     1       7.640  -5.267  24.308  0.00  0.00    -0.236 NA
ATOM     16  C   UNL     1       7.369  -4.022  23.868  0.00  0.00    +0.159 A 
ATOM     17  N   UNL     1       6.247  -3.609  23.207  0.00  0.00    -0.241 N 
ATOM     18  N   UNL     1       6.199  -2.269  22.998  0.00  0.00    -0.165 NA
BRANCH  17  19
ATOM     19  C   UNL     1       5.145  -4.463  22.793  0.00  0.00    +0.183 C 
BRANCH  19  20
ATOM     20  C   UNL     1       4.233  -4.864  23.929  0.00  0.00    +0.009 A 
ATOM     21  C   UNL     1       3.465  -3.924  24.633  0.00  0.00    +0.008 A 
ATOM     22  C   UNL     1       2.760  -4.298  25.783  0.00  0.00    +0.000 A 
ATOM     23  C   UNL     1       2.819  -5.609  26.249  0.00  0.00    +0.003 A 
ATOM     24  C   UNL     1       3.547  -6.560  25.539  0.00  0.00    +0.039 A 
ATOM     25  C   UNL     1       4.236  -6.185  24.387  0.00  0.00    +0.128 A 
ATOM     26  F   UNL     1       4.942  -7.120  23.735  0.00  0.00    -0.205 F 
ENDBRANCH  19  20
ENDBRANCH  17  19
ENDBRANCH   7  10
BRANCH   1  28
ATOM     27  C   UNL     1       9.495   4.331  23.732  0.00  0.00    +0.407 C 
ATOM     28  N   UNL     1       8.267   3.688  23.709  0.00  0.00    -0.234 N 
ATOM     29  C   UNL     1       7.034   4.443  23.848  0.00  0.00    +0.142 C 
ATOM     30  O   UNL     1       9.619   5.547  23.840  0.00  0.00    -0.226 OA
BRANCH  27  32
ATOM     31  C   UNL     1      11.796   4.117  23.360  0.00  0.00    +0.282 C 
ATOM     32  O   UNL     1      10.551   3.475  23.623  0.00  0.00    -0.453 OA
ENDBRANCH  27  32
ENDBRANCH   1  28
BRANCH   9  33
ATOM     33  N   UNL     1       7.943   2.065  26.068  0.00  0.00    -0.342 N 
ATOM     34  H   UNL     1       7.201   2.754  26.136  0.00  0.00    +0.144 HD
ATOM     35  H   UNL     1       8.852   2.427  26.327  0.00  0.00    +0.144 HD
ENDBRANCH   9  33
TORSDOF 6
ENDMDL
MODEL 5
REMARK VINA RESULT:      -6.9      4.123      8.321
REMARK  Name = 
REMARK  8 active torsions:
REMARK  status: ('A' for Active; 'I' for Inactive)
REMARK    1  A    between atoms: C_1  and  O_2
REMARK    2  A    between atoms: O_2  and  C_3
REMARK    3  A    between atoms: N_5  and  C_6
REMARK    4  A    between atoms: N_5  and  C_7
REMARK    5  A    between atoms: C_8  and  N_9
REMARK    6  A    between atoms: C_11  and  C_15
REMARK    7  A    between atoms: N_17  and  C_18
REMARK    8  A    between atoms: C_18  and  C_19
REMARK                            x       y       z     vdW  Elec       q    Type
REMARK                         _______ _______ _______ _____ _____    ______ ____
ROOT
ATOM      1  C   UNL     1       8.806   2.083  23.566  0.00  0.00    +0.118 A 
ATOM      2  C   UNL     1       8.290   1.504  24.720  0.00  0.00    +0.144 A 
ATOM      3  N   UNL     1       8.226   2.211  25.927  0.00  0.00    -0.342 N 
ATOM      4  H   UNL     1       9.099   2.662  26.166  0.00  0.00    +0.144 HD
ATOM      5  H   UNL     1       7.881   1.583  26.646  0.00  0.00    +0.144 HD
ATOM      6  N   UNL     1       7.771   0.268  24.745  0.00  0.00    -0.209 NA
ATOM      7  C   UNL     1       7.748  -0.396  23.573  0.00  0.00    +0.184 A 
ATOM      8  N   UNL     1       8.182   0.095  22.391  0.00  0.00    -0.209 NA
ATOM      9  C   UNL     1       8.710   1.323  22.405  0.00  0.00    +0.144 A 
ENDROOT
BRANCH   7  10
ATOM     10  C   UNL     1       7.304  -1.804  23.565  0.00  0.00    +0.139 A 
ATOM     11  C   UNL     1       8.044  -2.920  24.070  0.00  0.00    +0.050 A 
ATOM     12  C   UNL     1       9.332  -3.162  24.581  0.00  0.00    +0.015 A 
ATOM     13  C   UNL     1       9.613  -4.447  25.043  0.00  0.00    +0.020 A 
ATOM     14  C   UNL     1       8.615  -5.411  25.003  0.00  0.00    +0.113 A 
ATOM     15  N   UNL     1       7.376  -5.240  24.488  0.00  0.00    -0.236 NA
ATOM     16  C   UNL     1       7.168  -3.992  24.023  0.00  0.00    +0.159 A 
ATOM     17  N   UNL     1       6.058  -3.531  23.371  0.00  0.00    -0.241 N 
ATOM     18  N   UNL     1       6.083  -2.196  23.131  0.00  0.00    -0.165 NA
BRANCH  17  19
ATOM     19  C   UNL     1       4.902  -4.331  22.998  0.00  0.00    +0.183 C 
BRANCH  19  20
ATOM     20  C   UNL     1       4.001  -4.667  24.163  0.00  0.00    +0.009 A 
ATOM     21  C   UNL     1       3.314  -3.676  24.883  0.00  0.00    +0.008 A 
ATOM     22  C   UNL     1       2.621  -3.999  26.055  0.00  0.00    +0.000 A 
ATOM     23  C   UNL     1       2.611  -5.310  26.528  0.00  0.00    +0.003 A 
ATOM     24  C   UNL     1       3.256  -6.308  25.804  0.00  0.00    +0.039 A 
ATOM     25  C   UNL     1       3.933  -5.984  24.630  0.00  0.00    +0.128 A 
ATOM     26  F   UNL     1       4.559  -6.964  23.963  0.00  0.00    -0.205 F 
ENDBRANCH  19  20
ENDBRANCH  17  19
ENDBRANCH   7  10
BRANCH   1  28
ATOM     27  C   UNL     1       8.754   4.539  23.532  0.00  0.00    +0.407 C 
ATOM     28  N   UNL     1       9.459   3.346  23.579  0.00  0.00    -0.234 N 
ATOM     29  C   UNL     1      10.910   3.342  23.542  0.00  0.00    +0.142 C 
ATOM     30  O   UNL     1       9.292   5.640  23.487  0.00  0.00    -0.226 OA
BRANCH  27  32
ATOM     31  C   UNL     1       6.726   4.996  22.457  0.00  0.00    +0.282 C 
ATOM     32  O   UNL     1       7.401   4.364  23.541  0.00  0.00    -0.453 OA
ENDBRANCH  27  32
ENDBRANCH   1  28
BRANCH   9  33
ATOM     33  N   UNL     1       9.102   1.822  21.159  0.00  0.00    -0.342 N 
ATOM     34  H   UNL     1       9.143   1.054  20.497  0.00  0.00    +0.144 HD
ATOM     35  H   UNL     1       9.958   2.361  21.202  0.00  0.00    +0.144 HD
ENDBRANCH   9  33
TORSDOF 6
ENDMDL
MODEL 6
REMARK VINA RESULT:      -6.8      4.012      8.708
REMARK  Name = 
REMARK  8 active torsions:
REMARK  status: ('A' for Active; 'I' for Inactive)
REMARK    1  A    between atoms: C_1  and  O_2
REMARK    2  A    between atoms: O_2  and  C_3
REMARK    3  A    between atoms: N_5  and  C_6
REMARK    4  A    between atoms: N_5  and  C_7
REMARK    5  A    between atoms: C_8  and  N_9
REMARK    6  A    between atoms: C_11  and  C_15
REMARK    7  A    between atoms: N_17  and  C_18
REMARK    8  A    between atoms: C_18  and  C_19
REMARK                            x       y       z     vdW  Elec       q    Type
REMARK                         _______ _______ _______ _____ _____    ______ ____
ROOT
ATOM      1  C   UNL     1       7.405   1.552  23.083  0.00  0.00    +0.118 A 
ATOM      2  C   UNL     1       6.518   1.078  24.043  0.00  0.00    +0.144 A 
ATOM      3  N   UNL     1       5.720   1.950  24.795  0.00  0.00    -0.342 N 
ATOM      4  H   UNL     1       6.245   2.712  25.202  0.00  0.00    +0.144 HD
ATOM      5  H   UNL     1       5.203   1.401  25.474  0.00  0.00    +0.144 HD
ATOM      6  N   UNL     1       6.325  -0.228  24.272  0.00  0.00    -0.209 NA
ATOM      7  C   UNL     1       7.024  -1.083  23.500  0.00  0.00    +0.184 A 
ATOM      8  N   UNL     1       7.874  -0.723  22.513  0.00  0.00    -0.209 NA
ATOM      9  C   UNL     1       8.056   0.587  22.322  0.00  0.00    +0.144 A 
ENDROOT
BRANCH   7  10
ATOM     10  C   UNL     1       6.945  -2.528  23.792  0.00  0.00    +0.139 A 
ATOM     11  C   UNL     1       6.626  -3.558  22.851  0.00  0.00    +0.050 A 
ATOM     12  C   UNL     1       6.195  -3.641  21.515  0.00  0.00    +0.015 A 
ATOM     13  C   UNL     1       6.075  -4.911  20.952  0.00  0.00    +0.020 A 
ATOM     14  C   UNL     1       6.406  -6.021  21.718  0.00  0.00    +0.113 A 
ATOM     15  N   UNL     1       6.788  -5.997  23.014  0.00  0.00    -0.236 NA
ATOM     16  C   UNL     1       6.854  -4.749  23.521  0.00  0.00    +0.159 A 
ATOM     17  N   UNL     1       7.123  -4.398  24.813  0.00  0.00    -0.241 N 
ATOM     18  N   UNL     1       7.243  -3.060  25.001  0.00  0.00    -0.165 NA
BRANCH  17  19
ATOM     19  C   UNL     1       7.332  -5.323  25.916  0.00  0.00    +0.183 C 
BRANCH  19  20
ATOM     20  C   UNL     1       6.143  -5.440  26.840  0.00  0.00    +0.009 A 
ATOM     21  C   UNL     1       6.077  -4.745  28.058  0.00  0.00    +0.008 A 
ATOM     22  C   UNL     1       5.043  -4.999  28.967  0.00  0.00    +0.000 A 
ATOM     23  C   UNL     1       4.070  -5.953  28.678  0.00  0.00    +0.003 A 
ATOM     24  C   UNL     1       4.103  -6.623  27.458  0.00  0.00    +0.039 A 
ATOM     25  C   UNL     1       5.127  -6.355  26.550  0.00  0.00    +0.128 A 
ATOM     26  F   UNL     1       5.141  -7.028  25.390  0.00  0.00    -0.205 F 
ENDBRANCH  19  20
ENDBRANCH  17  19
ENDBRANCH   7  10
BRANCH   1  28
ATOM     27  C   UNL     1       8.739   3.551  23.593  0.00  0.00    +0.407 C 
ATOM     28  N   UNL     1       7.687   2.938  22.930  0.00  0.00    -0.234 N 
ATOM     29  C   UNL     1       6.765   3.717  22.123  0.00  0.00    +0.142 C 
ATOM     30  O   UNL     1       8.972   4.754  23.521  0.00  0.00    -0.226 OA
BRANCH  27  32
ATOM     31  C   UNL     1      10.825   2.524  23.864  0.00  0.00    +0.282 C 
ATOM     32  O   UNL     1       9.488   2.683  24.331  0.00  0.00    -0.453 OA
ENDBRANCH  27  32
ENDBRANCH   1  28
BRANCH   9  33
ATOM     33  N   UNL     1       8.901   0.927  21.261  0.00  0.00    -0.342 N 
ATOM     34  H   UNL     1       9.713   0.319  21.282  0.00  0.00    +0.144 HD
ATOM     35  H   UNL     1       9.136   1.911  21.243  0.00  0.00    +0.144 HD
ENDBRANCH   9  33
TORSDOF 6
ENDMDL
MODEL 7
REMARK VINA RESULT:      -6.8      4.194      8.657
REMARK  Name = 
REMARK  8 active torsions:
REMARK  status: ('A' for Active; 'I' for Inactive)
REMARK    1  A    between atoms: C_1  and  O_2
REMARK    2  A    between atoms: O_2  and  C_3
REMARK    3  A    between atoms: N_5  and  C_6
REMARK    4  A    between atoms: N_5  and  C_7
REMARK    5  A    between atoms: C_8  and  N_9
REMARK    6  A    between atoms: C_11  and  C_15
REMARK    7  A    between atoms: N_17  and  C_18
REMARK    8  A    between atoms: C_18  and  C_19
REMARK                            x       y       z     vdW  Elec       q    Type
REMARK                         _______ _______ _______ _____ _____    ______ ____
ROOT
ATOM      1  C   UNL     1       8.545   0.831  23.810  0.00  0.00    +0.118 A 
ATOM      2  C   UNL     1       9.136  -0.101  24.657  0.00  0.00    +0.144 A 
ATOM      3  N   UNL     1      10.302   0.197  25.372  0.00  0.00    -0.342 N 
ATOM      4  H   UNL     1      11.027   0.597  24.793  0.00  0.00    +0.144 HD
ATOM      5  H   UNL     1      10.592  -0.639  25.870  0.00  0.00    +0.144 HD
ATOM      6  N   UNL     1       8.605  -1.310  24.890  0.00  0.00    -0.209 NA
ATOM      7  C   UNL     1       7.438  -1.582  24.275  0.00  0.00    +0.184 A 
ATOM      8  N   UNL     1       6.764  -0.730  23.471  0.00  0.00    -0.209 NA
ATOM      9  C   UNL     1       7.329   0.461  23.246  0.00  0.00    +0.144 A 
ENDROOT
BRANCH   7  10
ATOM     10  C   UNL     1       6.874  -2.941  24.396  0.00  0.00    +0.139 A 
ATOM     11  C   UNL     1       6.551  -3.816  23.309  0.00  0.00    +0.050 A 
ATOM     12  C   UNL     1       6.505  -3.748  21.906  0.00  0.00    +0.015 A 
ATOM     13  C   UNL     1       6.192  -4.917  21.212  0.00  0.00    +0.020 A 
ATOM     14  C   UNL     1       5.966  -6.085  21.928  0.00  0.00    +0.113 A 
ATOM     15  N   UNL     1       5.961  -6.193  23.276  0.00  0.00    -0.236 NA
ATOM     16  C   UNL     1       6.234  -5.029  23.898  0.00  0.00    +0.159 A 
ATOM     17  N   UNL     1       6.220  -4.792  25.244  0.00  0.00    -0.241 N 
ATOM     18  N   UNL     1       6.658  -3.554  25.584  0.00  0.00    -0.165 NA
BRANCH  17  19
ATOM     19  C   UNL     1       5.840  -5.752  26.269  0.00  0.00    +0.183 C 
BRANCH  19  20
ATOM     20  C   UNL     1       4.366  -5.733  26.597  0.00  0.00    +0.009 A 
ATOM     21  C   UNL     1       3.807  -4.770  27.453  0.00  0.00    +0.008 A 
ATOM     22  C   UNL     1       2.475  -4.875  27.869  0.00  0.00    +0.000 A 
ATOM     23  C   UNL     1       1.688  -5.944  27.446  0.00  0.00    +0.003 A 
ATOM     24  C   UNL     1       2.219  -6.885  26.569  0.00  0.00    +0.039 A 
ATOM     25  C   UNL     1       3.542  -6.768  26.146  0.00  0.00    +0.128 A 
ATOM     26  F   UNL     1       4.030  -7.699  25.314  0.00  0.00    -0.205 F 
ENDBRANCH  19  20
ENDBRANCH  17  19
ENDBRANCH   7  10
BRANCH   1  28
ATOM     27  C   UNL     1       8.973   3.214  24.223  0.00  0.00    +0.407 C 
ATOM     28  N   UNL     1       9.176   2.061  23.480  0.00  0.00    -0.234 N 
ATOM     29  C   UNL     1       9.974   2.092  22.267  0.00  0.00    +0.142 C 
ATOM     30  O   UNL     1       9.462   4.301  23.929  0.00  0.00    -0.226 OA
BRANCH  27  32
ATOM     31  C   UNL     1       7.700   4.222  25.908  0.00  0.00    +0.282 C 
ATOM     32  O   UNL     1       8.175   3.018  25.311  0.00  0.00    -0.453 OA
ENDBRANCH  27  32
ENDBRANCH   1  28
BRANCH   9  33
ATOM     33  N   UNL     1       6.583   1.338  22.453  0.00  0.00    -0.342 N 
ATOM     34  H   UNL     1       7.204   2.051  22.082  0.00  0.00    +0.144 HD
ATOM     35  H   UNL     1       5.778   1.717  22.934  0.00  0.00    +0.144 HD
ENDBRANCH   9  33
TORSDOF 6
ENDMDL
MODEL 8
REMARK VINA RESULT:      -6.7      3.719      8.093
REMARK  Name = 
REMARK  8 active torsions:
REMARK  status: ('A' for Active; 'I' for Inactive)
REMARK    1  A    between atoms: C_1  and  O_2
REMARK    2  A    between atoms: O_2  and  C_3
REMARK    3  A    between atoms: N_5  and  C_6
REMARK    4  A    between atoms: N_5  and  C_7
REMARK    5  A    between atoms: C_8  and  N_9
REMARK    6  A    between atoms: C_11  and  C_15
REMARK    7  A    between atoms: N_17  and  C_18
REMARK    8  A    between atoms: C_18  and  C_19
REMARK                            x       y       z     vdW  Elec       q    Type
REMARK                         _______ _______ _______ _____ _____    ______ ____
ROOT
ATOM      1  C   UNL     1       8.366   2.275  23.415  0.00  0.00    +0.118 A 
ATOM      2  C   UNL     1       8.861   1.426  22.431  0.00  0.00    +0.144 A 
ATOM      3  N   UNL     1       9.709   1.896  21.420  0.00  0.00    -0.342 N 
ATOM      4  H   UNL     1       9.358   2.729  20.968  0.00  0.00    +0.144 HD
ATOM      5  H   UNL     1       9.894   1.131  20.779  0.00  0.00    +0.144 HD
ATOM      6  N   UNL     1       8.615   0.109  22.415  0.00  0.00    -0.209 NA
ATOM      7  C   UNL     1       7.869  -0.374  23.427  0.00  0.00    +0.184 A 
ATOM      8  N   UNL     1       7.380   0.358  24.453  0.00  0.00    -0.209 NA
ATOM      9  C   UNL     1       7.630   1.671  24.430  0.00  0.00    +0.144 A 
ENDROOT
BRANCH   7  10
ATOM     10  C   UNL     1       7.462  -1.793  23.393  0.00  0.00    +0.139 A 
ATOM     11  C   UNL     1       8.213  -2.894  23.917  0.00  0.00    +0.050 A 
ATOM     12  C   UNL     1       9.486  -3.106  24.473  0.00  0.00    +0.015 A 
ATOM     13  C   UNL     1       9.784  -4.388  24.937  0.00  0.00    +0.020 A 
ATOM     14  C   UNL     1       8.813  -5.377  24.852  0.00  0.00    +0.113 A 
ATOM     15  N   UNL     1       7.591  -5.234  24.294  0.00  0.00    -0.236 NA
ATOM     16  C   UNL     1       7.367  -3.988  23.830  0.00  0.00    +0.159 A 
ATOM     17  N   UNL     1       6.271  -3.550  23.141  0.00  0.00    -0.241 N 
ATOM     18  N   UNL     1       6.269  -2.213  22.911  0.00  0.00    -0.165 NA
BRANCH  17  19
ATOM     19  C   UNL     1       5.150  -4.377  22.720  0.00  0.00    +0.183 C 
BRANCH  19  20
ATOM     20  C   UNL     1       4.440  -5.059  23.865  0.00  0.00    +0.009 A 
ATOM     21  C   UNL     1       4.367  -6.458  23.967  0.00  0.00    +0.008 A 
ATOM     22  C   UNL     1       3.565  -7.060  24.943  0.00  0.00    +0.000 A 
ATOM     23  C   UNL     1       2.821  -6.277  25.823  0.00  0.00    +0.003 A 
ATOM     24  C   UNL     1       2.913  -4.889  25.757  0.00  0.00    +0.039 A 
ATOM     25  C   UNL     1       3.724  -4.295  24.792  0.00  0.00    +0.128 A 
ATOM     26  F   UNL     1       3.779  -2.957  24.742  0.00  0.00    -0.205 F 
ENDBRANCH  19  20
ENDBRANCH  17  19
ENDBRANCH   7  10
BRANCH   1  28
ATOM     27  C   UNL     1       7.621   4.511  22.723  0.00  0.00    +0.407 C 
ATOM     28  N   UNL     1       8.536   3.685  23.356  0.00  0.00    -0.234 N 
ATOM     29  C   UNL     1       9.768   4.227  23.903  0.00  0.00    +0.142 C 
ATOM     30  O   UNL     1       7.770   5.723  22.611  0.00  0.00    -0.226 OA
BRANCH  27  32
ATOM     31  C   UNL     1       5.295   4.258  22.797  0.00  0.00    +0.282 C 
ATOM     32  O   UNL     1       6.537   3.839  22.238  0.00  0.00    -0.453 OA
ENDBRANCH  27  32
ENDBRANCH   1  28
BRANCH   9  33
ATOM     33  N   UNL     1       7.155   2.392  25.529  0.00  0.00    -0.342 N 
ATOM     34  H   UNL     1       6.976   3.348  25.240  0.00  0.00    +0.144 HD
ATOM     35  H   UNL     1       7.760   2.322  26.338  0.00  0.00    +0.144 HD
ENDBRANCH   9  33
TORSDOF 6
ENDMDL
MODEL 9
REMARK VINA RESULT:      -6.7      3.887      8.447
REMARK  Name = 
REMARK  8 active torsions:
REMARK  status: ('A' for Active; 'I' for Inactive)
REMARK    1  A    between atoms: C_1  and  O_2
REMARK    2  A    between atoms: O_2  and  C_3
REMARK    3  A    between atoms: N_5  and  C_6
REMARK    4  A    between atoms: N_5  and  C_7
REMARK    5  A    between atoms: C_8  and  N_9
REMARK    6  A    between atoms: C_11  and  C_15
REMARK    7  A    between atoms: N_17  and  C_18
REMARK    8  A    between atoms: C_18  and  C_19
REMARK                            x       y       z     vdW  Elec       q    Type
REMARK                         _______ _______ _______ _____ _____    ______ ____
ROOT
ATOM      1  C   UNL     1       8.047   1.687  23.481  0.00  0.00    +0.118 A 
ATOM      2  C   UNL     1       8.515   0.742  22.575  0.00  0.00    +0.144 A 
ATOM      3  N   UNL     1       9.241   1.116  21.438  0.00  0.00    -0.342 N 
ATOM      4  H   UNL     1       8.798   1.859  20.915  0.00  0.00    +0.144 HD
ATOM      5  H   UNL     1       9.424   0.283  20.888  0.00  0.00    +0.144 HD
ATOM      6  N   UNL     1       8.358  -0.578  22.754  0.00  0.00    -0.209 NA
ATOM      7  C   UNL     1       7.734  -0.959  23.885  0.00  0.00    +0.184 A 
ATOM      8  N   UNL     1       7.283  -0.123  24.847  0.00  0.00    -0.209 NA
ATOM      9  C   UNL     1       7.441   1.186  24.629  0.00  0.00    +0.144 A 
ENDROOT
BRANCH   7  10
ATOM     10  C   UNL     1       7.423  -2.390  24.074  0.00  0.00    +0.139 A 
ATOM     11  C   UNL     1       6.903  -3.275  23.075  0.00  0.00    +0.050 A 
ATOM     12  C   UNL     1       6.419  -3.179  21.759  0.00  0.00    +0.015 A 
ATOM     13  C   UNL     1       6.068  -4.363  21.111  0.00  0.00    +0.020 A 
ATOM     14  C   UNL     1       6.234  -5.569  21.777  0.00  0.00    +0.113 A 
ATOM     15  N   UNL     1       6.658  -5.712  23.053  0.00  0.00    -0.236 NA
ATOM     16  C   UNL     1       6.950  -4.537  23.645  0.00  0.00    +0.159 A 
ATOM     17  N   UNL     1       7.318  -4.339  24.946  0.00  0.00    -0.241 N 
ATOM     18  N   UNL     1       7.668  -3.059  25.226  0.00  0.00    -0.165 NA
BRANCH  17  19
ATOM     19  C   UNL     1       7.406  -5.372  25.967  0.00  0.00    +0.183 C 
BRANCH  19  20
ATOM     20  C   UNL     1       6.175  -5.465  26.838  0.00  0.00    +0.009 A 
ATOM     21  C   UNL     1       6.069  -4.770  28.053  0.00  0.00    +0.008 A 
ATOM     22  C   UNL     1       4.992  -5.004  28.916  0.00  0.00    +0.000 A 
ATOM     23  C   UNL     1       4.014  -5.938  28.583  0.00  0.00    +0.003 A 
ATOM     24  C   UNL     1       4.087  -6.608  27.364  0.00  0.00    +0.039 A 
ATOM     25  C   UNL     1       5.154  -6.360  26.503  0.00  0.00    +0.128 A 
ATOM     26  F   UNL     1       5.207  -7.033  25.344  0.00  0.00    -0.205 F 
ENDBRANCH  19  20
ENDBRANCH  17  19
ENDBRANCH   7  10
BRANCH   1  28
ATOM     27  C   UNL     1       7.142   3.745  22.491  0.00  0.00    +0.407 C 
ATOM     28  N   UNL     1       8.116   3.083  23.223  0.00  0.00    -0.234 N 
ATOM     29  C   UNL     1       9.306   3.782  23.674  0.00  0.00    +0.142 C 
ATOM     30  O   UNL     1       7.204   4.937  22.208  0.00  0.00    -0.226 OA
BRANCH  27  32
ATOM     31  C   UNL     1       4.837   3.355  22.607  0.00  0.00    +0.282 C 
ATOM     32  O   UNL     1       6.109   2.937  22.118  0.00  0.00    -0.453 OA
ENDBRANCH  27  32
ENDBRANCH   1  28
BRANCH   9  33
ATOM     33  N   UNL     1       7.011   2.023  25.664  0.00  0.00    -0.342 N 
ATOM     34  H   UNL     1       7.542   2.887  25.627  0.00  0.00    +0.144 HD
ATOM     35  H   UNL     1       7.038   1.574  26.570  0.00  0.00    +0.144 HD
ENDBRANCH   9  33
TORSDOF 6
ENDMDL
