MODEL 1
REMARK VINA RESULT:      -7.3      0.000      0.000
REMARK  Name = 
REMARK  9 active torsions:
REMARK  status: ('A' for Active; 'I' for Inactive)
REMARK    1  A    between atoms: O_1  and  C_2
REMARK    2  A    between atoms: C_2  and  C_4
REMARK    3  A    between atoms: C_7  and  N_8
REMARK    4  A    between atoms: C_9  and  C_11
REMARK    5  A    between atoms: C_11  and  C_13
REMARK    6  A    between atoms: C_11  and  N_21
REMARK    7  A    between atoms: C_13  and  C_14
REMARK    8  A    between atoms: C_17  and  O_18
REMARK    9  A    between atoms: C_22  and  C_24
REMARK                            x       y       z     vdW  Elec       q    Type
REMARK                         _______ _______ _______ _____ _____    ______ ____
ROOT
ATOM      1  C   UNL     1       8.769  -2.679  23.845  0.00  0.00    +0.164 C 
ENDROOT
BRANCH   1   4
ATOM      2  N   UNL     1       8.835  -0.211  23.427  0.00  0.00    -0.284 N 
ATOM      3  H   UNL     1       8.341  -0.425  22.572  0.00  0.00    +0.155 HD
ATOM      4  C   UNL     1       8.992  -1.225  24.361  0.00  0.00    +0.238 C 
ATOM      5  O   UNL     1       9.343  -1.036  25.529  0.00  0.00    -0.273 OA
BRANCH   2   9
ATOM      6  C   UNL     1       9.659   3.918  23.885  0.00  0.00    +0.059 A 
ATOM      7  C   UNL     1       8.421   3.378  24.258  0.00  0.00    +0.017 A 
ATOM      8  C   UNL     1       8.170   2.007  24.113  0.00  0.00    +0.024 A 
ATOM      9  C   UNL     1       9.160   1.152  23.615  0.00  0.00    +0.033 A 
ATOM     10  C   UNL     1      10.399   1.693  23.263  0.00  0.00    +0.024 A 
ATOM     11  C   UNL     1      10.646   3.068  23.378  0.00  0.00    +0.017 A 
BRANCH   6  12
ATOM     12  C   UNL     1       9.836   5.394  23.976  0.00  0.00    +0.337 C 
ATOM     13  O   UNL     1       9.270   6.068  24.821  0.00  0.00    -0.245 OA
BRANCH  12  14
ATOM     14  O   UNL     1      10.680   5.924  23.068  0.00  0.00    -0.477 OA
ATOM     15  H   UNL     1      11.394   6.481  23.423  0.00  0.00    +0.295 HD
ENDBRANCH  12  14
ENDBRANCH   6  12
ENDBRANCH   2   9
ENDBRANCH   1   4
BRANCH   1  16
ATOM     16  N   UNL     1       7.962  -3.372  24.862  0.00  0.00    -0.300 N 
ATOM     17  H   UNL     1       7.146  -2.873  25.203  0.00  0.00    +0.150 HD
ATOM     18  C   UNL     1       8.190  -4.674  25.228  0.00  0.00    +0.245 C 
ATOM     19  O   UNL     1       9.105  -5.343  24.765  0.00  0.00    -0.270 OA
BRANCH  18  20
ATOM     20  C   UNL     1       7.221  -5.289  26.176  0.00  0.00    +0.037 A 
ATOM     21  C   UNL     1       7.477  -5.392  27.549  0.00  0.00    +0.013 A 
ATOM     22  C   UNL     1       6.546  -6.021  28.383  0.00  0.00    +0.001 A 
ATOM     23  C   UNL     1       5.362  -6.537  27.854  0.00  0.00    +0.000 A 
ATOM     24  C   UNL     1       5.100  -6.429  26.490  0.00  0.00    +0.001 A 
ATOM     25  C   UNL     1       6.029  -5.811  25.651  0.00  0.00    +0.013 A 
ENDBRANCH  18  20
ENDBRANCH   1  16
BRANCH   1  26
ATOM     26  C   UNL     1       8.180  -2.810  22.422  0.00  0.00    +0.067 C 
BRANCH  26  27
ATOM     27  C   UNL     1       6.958  -3.695  22.340  0.00  0.00    -0.045 A 
ATOM     28  C   UNL     1       7.082  -5.014  21.880  0.00  0.00    +0.007 A 
ATOM     29  C   UNL     1       5.992  -5.883  21.916  0.00  0.00    +0.045 A 
ATOM     30  C   UNL     1       4.773  -5.431  22.400  0.00  0.00    +0.117 A 
ATOM     31  C   UNL     1       4.611  -4.109  22.802  0.00  0.00    +0.045 A 
ATOM     32  C   UNL     1       5.703  -3.240  22.764  0.00  0.00    +0.007 A 
BRANCH  30  33
ATOM     33  O   UNL     1       3.746  -6.324  22.473  0.00  0.00    -0.507 OA
ATOM     34  H   UNL     1       3.504  -6.436  23.407  0.00  0.00    +0.292 HD
ENDBRANCH  30  33
ENDBRANCH  26  27
ENDBRANCH   1  26
TORSDOF 9
ENDMDL
MODEL 2
REMARK VINA RESULT:      -7.1      1.133      1.185
REMARK  Name = 
REMARK  9 active torsions:
REMARK  status: ('A' for Active; 'I' for Inactive)
REMARK    1  A    between atoms: O_1  and  C_2
REMARK    2  A    between atoms: C_2  and  C_4
REMARK    3  A    between atoms: C_7  and  N_8
REMARK    4  A    between atoms: C_9  and  C_11
REMARK    5  A    between atoms: C_11  and  C_13
REMARK    6  A    between atoms: C_11  and  N_21
REMARK    7  A    between atoms: C_13  and  C_14
REMARK    8  A    between atoms: C_17  and  O_18
REMARK    9  A    between atoms: C_22  and  C_24
REMARK                            x       y       z     vdW  Elec       q    Type
REMARK                         _______ _______ _______ _____ _____    ______ ____
ROOT
ATOM      1  C   UNL     1       8.921  -2.316  24.557  0.00  0.00    +0.164 C 
ENDROOT
BRANCH   1   4
ATOM      2  N   UNL     1       9.072   0.076  23.835  0.00  0.00    -0.284 N 
ATOM      3  H   UNL     1       8.653  -0.243  22.972  0.00  0.00    +0.155 HD
ATOM      4  C   UNL     1       9.125  -0.810  24.901  0.00  0.00    +0.238 C 
ATOM      5  O   UNL     1       9.374  -0.473  26.062  0.00  0.00    -0.273 OA
BRANCH   2   9
ATOM      6  C   UNL     1       9.925   4.225  23.841  0.00  0.00    +0.059 A 
ATOM      7  C   UNL     1       8.672   3.739  24.241  0.00  0.00    +0.017 A 
ATOM      8  C   UNL     1       8.412   2.362  24.246  0.00  0.00    +0.024 A 
ATOM      9  C   UNL     1       9.406   1.449  23.875  0.00  0.00    +0.033 A 
ATOM     10  C   UNL     1      10.659   1.938  23.496  0.00  0.00    +0.024 A 
ATOM     11  C   UNL     1      10.915   3.316  23.460  0.00  0.00    +0.017 A 
BRANCH   6  12
ATOM     12  C   UNL     1      10.114   5.700  23.768  0.00  0.00    +0.337 C 
ATOM     13  O   UNL     1      10.966   6.281  24.420  0.00  0.00    -0.245 OA
BRANCH  12  14
ATOM     14  O   UNL     1       9.287   6.339  22.916  0.00  0.00    -0.477 OA
ATOM     15  H   UNL     1       9.131   7.281  23.099  0.00  0.00    +0.295 HD
ENDBRANCH  12  14
ENDBRANCH   6  12
ENDBRANCH   2   9
ENDBRANCH   1   4
BRANCH   1  16
ATOM     16  N   UNL     1       7.850  -2.811  25.437  0.00  0.00    -0.300 N 
ATOM     17  H   UNL     1       6.919  -2.448  25.259  0.00  0.00    +0.150 HD
ATOM     18  C   UNL     1       8.045  -3.820  26.348  0.00  0.00    +0.245 C 
ATOM     19  O   UNL     1       9.133  -4.354  26.523  0.00  0.00    -0.270 OA
BRANCH  18  20
ATOM     20  C   UNL     1       6.846  -4.307  27.084  0.00  0.00    +0.037 A 
ATOM     21  C   UNL     1       6.796  -5.572  27.681  0.00  0.00    +0.013 A 
ATOM     22  C   UNL     1       5.625  -5.991  28.321  0.00  0.00    +0.001 A 
ATOM     23  C   UNL     1       4.511  -5.151  28.373  0.00  0.00    +0.000 A 
ATOM     24  C   UNL     1       4.561  -3.887  27.787  0.00  0.00    +0.001 A 
ATOM     25  C   UNL     1       5.724  -3.467  27.139  0.00  0.00    +0.013 A 
ENDBRANCH  18  20
ENDBRANCH   1  16
BRANCH   1  26
ATOM     26  C   UNL     1       8.671  -2.644  23.068  0.00  0.00    +0.067 C 
BRANCH  26  27
ATOM     27  C   UNL     1       7.462  -3.517  22.823  0.00  0.00    -0.045 A 
ATOM     28  C   UNL     1       7.608  -4.911  22.768  0.00  0.00    +0.007 A 
ATOM     29  C   UNL     1       6.490  -5.738  22.671  0.00  0.00    +0.045 A 
ATOM     30  C   UNL     1       5.225  -5.172  22.613  0.00  0.00    +0.117 A 
ATOM     31  C   UNL     1       5.061  -3.791  22.601  0.00  0.00    +0.045 A 
ATOM     32  C   UNL     1       6.181  -2.965  22.699  0.00  0.00    +0.007 A 
BRANCH  30  33
ATOM     33  O   UNL     1       4.153  -6.013  22.574  0.00  0.00    -0.507 OA
ATOM     34  H   UNL     1       4.189  -6.592  23.353  0.00  0.00    +0.292 HD
ENDBRANCH  30  33
ENDBRANCH  26  27
ENDBRANCH   1  26
TORSDOF 9
ENDMDL
MODEL 3
REMARK VINA RESULT:      -6.9      2.019      4.193
REMARK  Name = 
REMARK  9 active torsions:
REMARK  status: ('A' for Active; 'I' for Inactive)
REMARK    1  A    between atoms: O_1  and  C_2
REMARK    2  A    between atoms: C_2  and  C_4
REMARK    3  A    between atoms: C_7  and  N_8
REMARK    4  A    between atoms: C_9  and  C_11
REMARK    5  A    between atoms: C_11  and  C_13
REMARK    6  A    between atoms: C_11  and  N_21
REMARK    7  A    between atoms: C_13  and  C_14
REMARK    8  A    between atoms: C_17  and  O_18
REMARK    9  A    between atoms: C_22  and  C_24
REMARK                            x       y       z     vdW  Elec       q    Type
REMARK                         _______ _______ _______ _____ _____    ______ ____
ROOT
ATOM      1  C   UNL     1       6.494  -0.624  24.656  0.00  0.00    +0.164 C 
ENDROOT
BRANCH   1   4
ATOM      2  N   UNL     1       8.395   1.003  24.587  0.00  0.00    -0.284 N 
ATOM      3  H   UNL     1       8.856   0.367  25.223  0.00  0.00    +0.155 HD
ATOM      4  C   UNL     1       7.214   0.588  23.991  0.00  0.00    +0.238 C 
ATOM      5  O   UNL     1       6.697   1.153  23.022  0.00  0.00    -0.273 OA
BRANCH   2   9
ATOM      6  C   UNL     1      10.709   4.450  23.745  0.00  0.00    +0.059 A 
ATOM      7  C   UNL     1      11.145   3.172  23.371  0.00  0.00    +0.017 A 
ATOM      8  C   UNL     1      10.361   2.044  23.645  0.00  0.00    +0.024 A 
ATOM      9  C   UNL     1       9.118   2.177  24.275  0.00  0.00    +0.033 A 
ATOM     10  C   UNL     1       8.679   3.456  24.628  0.00  0.00    +0.024 A 
ATOM     11  C   UNL     1       9.473   4.585  24.384  0.00  0.00    +0.017 A 
BRANCH   6  12
ATOM     12  C   UNL     1      11.625   5.600  23.511  0.00  0.00    +0.337 C 
ATOM     13  O   UNL     1      11.849   6.440  24.369  0.00  0.00    -0.245 OA
BRANCH  12  14
ATOM     14  O   UNL     1      12.199   5.634  22.292  0.00  0.00    -0.477 OA
ATOM     15  H   UNL     1      12.879   4.959  22.122  0.00  0.00    +0.295 HD
ENDBRANCH  12  14
ENDBRANCH   6  12
ENDBRANCH   2   9
ENDBRANCH   1   4
BRANCH   1  16
ATOM     16  N   UNL     1       6.749  -1.793  23.799  0.00  0.00    -0.300 N 
ATOM     17  H   UNL     1       7.716  -1.948  23.529  0.00  0.00    +0.150 HD
ATOM     18  C   UNL     1       5.781  -2.718  23.498  0.00  0.00    +0.245 C 
ATOM     19  O   UNL     1       4.625  -2.618  23.889  0.00  0.00    -0.270 OA
BRANCH  18  20
ATOM     20  C   UNL     1       6.208  -3.916  22.725  0.00  0.00    +0.037 A 
ATOM     21  C   UNL     1       5.699  -4.208  21.453  0.00  0.00    +0.013 A 
ATOM     22  C   UNL     1       6.106  -5.372  20.794  0.00  0.00    +0.001 A 
ATOM     23  C   UNL     1       7.020  -6.239  21.395  0.00  0.00    +0.000 A 
ATOM     24  C   UNL     1       7.535  -5.947  22.656  0.00  0.00    +0.001 A 
ATOM     25  C   UNL     1       7.126  -4.791  23.323  0.00  0.00    +0.013 A 
ENDBRANCH  18  20
ENDBRANCH   1  16
BRANCH   1  26
ATOM     26  C   UNL     1       6.837  -0.884  26.140  0.00  0.00    +0.067 C 
BRANCH  26  27
ATOM     27  C   UNL     1       7.008  -2.345  26.486  0.00  0.00    -0.045 A 
ATOM     28  C   UNL     1       8.252  -2.965  26.298  0.00  0.00    +0.007 A 
ATOM     29  C   UNL     1       8.465  -4.274  26.728  0.00  0.00    +0.045 A 
ATOM     30  C   UNL     1       7.430  -4.970  27.335  0.00  0.00    +0.117 A 
ATOM     31  C   UNL     1       6.170  -4.398  27.474  0.00  0.00    +0.045 A 
ATOM     32  C   UNL     1       5.959  -3.088  27.043  0.00  0.00    +0.007 A 
BRANCH  30  33
ATOM     33  O   UNL     1       7.691  -6.227  27.793  0.00  0.00    -0.507 OA
ATOM     34  H   UNL     1       7.391  -6.286  28.714  0.00  0.00    +0.292 HD
ENDBRANCH  30  33
ENDBRANCH  26  27
ENDBRANCH   1  26
TORSDOF 9
ENDMDL
MODEL 4
REMARK VINA RESULT:      -6.9      1.898      2.553
REMARK  Name = 
REMARK  9 active torsions:
REMARK  status: ('A' for Active; 'I' for Inactive)
REMARK    1  A    between atoms: O_1  and  C_2
REMARK    2  A    between atoms: C_2  and  C_4
REMARK    3  A    between atoms: C_7  and  N_8
REMARK    4  A    between atoms: C_9  and  C_11
REMARK    5  A    between atoms: C_11  and  C_13
REMARK    6  A    between atoms: C_11  and  N_21
REMARK    7  A    between atoms: C_13  and  C_14
REMARK    8  A    between atoms: C_17  and  O_18
REMARK    9  A    between atoms: C_22  and  C_24
REMARK                            x       y       z     vdW  Elec       q    Type
REMARK                         _______ _______ _______ _____ _____    ______ ____
ROOT
ATOM      1  C   UNL     1       7.524  -4.204  24.181  0.00  0.00    +0.164 C 
ENDROOT
BRANCH   1   4
ATOM      2  N   UNL     1       9.066  -2.302  23.662  0.00  0.00    -0.284 N 
ATOM      3  H   UNL     1       9.774  -3.014  23.547  0.00  0.00    +0.155 HD
ATOM      4  C   UNL     1       7.748  -2.709  23.801  0.00  0.00    +0.238 C 
ATOM      5  O   UNL     1       6.779  -1.951  23.695  0.00  0.00    -0.273 OA
BRANCH   2   9
ATOM      6  C   UNL     1      10.276   1.742  23.309  0.00  0.00    +0.059 A 
ATOM      7  C   UNL     1      10.226   1.105  24.556  0.00  0.00    +0.017 A 
ATOM      8  C   UNL     1       9.837  -0.238  24.653  0.00  0.00    +0.024 A 
ATOM      9  C   UNL     1       9.515  -0.970  23.504  0.00  0.00    +0.033 A 
ATOM     10  C   UNL     1       9.585  -0.334  22.262  0.00  0.00    +0.024 A 
ATOM     11  C   UNL     1       9.944   1.016  22.162  0.00  0.00    +0.017 A 
BRANCH   6  12
ATOM     12  C   UNL     1      10.606   3.194  23.276  0.00  0.00    +0.337 C 
ATOM     13  O   UNL     1      11.740   3.608  23.458  0.00  0.00    -0.245 OA
BRANCH  12  14
ATOM     14  O   UNL     1       9.566   4.010  23.013  0.00  0.00    -0.477 OA
ATOM     15  H   UNL     1       8.979   3.734  22.289  0.00  0.00    +0.295 HD
ENDBRANCH  12  14
ENDBRANCH   6  12
ENDBRANCH   2   9
ENDBRANCH   1   4
BRANCH   1  16
ATOM     16  N   UNL     1       6.806  -4.212  25.466  0.00  0.00    -0.300 N 
ATOM     17  H   UNL     1       5.965  -3.645  25.513  0.00  0.00    +0.150 HD
ATOM     18  C   UNL     1       7.144  -5.050  26.499  0.00  0.00    +0.245 C 
ATOM     19  O   UNL     1       8.092  -5.823  26.443  0.00  0.00    -0.270 OA
BRANCH  18  20
ATOM     20  C   UNL     1       6.256  -5.042  27.694  0.00  0.00    +0.037 A 
ATOM     21  C   UNL     1       6.290  -6.054  28.661  0.00  0.00    +0.013 A 
ATOM     22  C   UNL     1       5.400  -6.014  29.739  0.00  0.00    +0.001 A 
ATOM     23  C   UNL     1       4.485  -4.967  29.858  0.00  0.00    +0.000 A 
ATOM     24  C   UNL     1       4.454  -3.954  28.902  0.00  0.00    +0.001 A 
ATOM     25  C   UNL     1       5.334  -3.993  27.819  0.00  0.00    +0.013 A 
ENDBRANCH  18  20
ENDBRANCH   1  16
BRANCH   1  26
ATOM     26  C   UNL     1       6.841  -5.081  23.108  0.00  0.00    +0.067 C 
BRANCH  26  27
ATOM     27  C   UNL     1       5.406  -5.435  23.422  0.00  0.00    -0.045 A 
ATOM     28  C   UNL     1       5.100  -6.692  23.966  0.00  0.00    +0.007 A 
ATOM     29  C   UNL     1       3.803  -6.989  24.380  0.00  0.00    +0.045 A 
ATOM     30  C   UNL     1       2.805  -6.035  24.238  0.00  0.00    +0.117 A 
ATOM     31  C   UNL     1       3.072  -4.806  23.643  0.00  0.00    +0.045 A 
ATOM     32  C   UNL     1       4.371  -4.511  23.229  0.00  0.00    +0.007 A 
BRANCH  30  33
ATOM     33  O   UNL     1       1.562  -6.341  24.705  0.00  0.00    -0.507 OA
ATOM     34  H   UNL     1       1.631  -7.129  25.268  0.00  0.00    +0.292 HD
ENDBRANCH  30  33
ENDBRANCH  26  27
ENDBRANCH   1  26
TORSDOF 9
ENDMDL
MODEL 5
REMARK VINA RESULT:      -6.9      2.700      5.222
REMARK  Name = 
REMARK  9 active torsions:
REMARK  status: ('A' for Active; 'I' for Inactive)
REMARK    1  A    between atoms: O_1  and  C_2
REMARK    2  A    between atoms: C_2  and  C_4
REMARK    3  A    between atoms: C_7  and  N_8
REMARK    4  A    between atoms: C_9  and  C_11
REMARK    5  A    between atoms: C_11  and  C_13
REMARK    6  A    between atoms: C_11  and  N_21
REMARK    7  A    between atoms: C_13  and  C_14
REMARK    8  A    between atoms: C_17  and  O_18
REMARK    9  A    between atoms: C_22  and  C_24
REMARK                            x       y       z     vdW  Elec       q    Type
REMARK                         _______ _______ _______ _____ _____    ______ ____
ROOT
ATOM      1  C   UNL     1       9.792  -1.591  23.614  0.00  0.00    +0.164 C 
ENDROOT
BRANCH   1   4
ATOM      2  N   UNL     1       8.190  -0.464  25.172  0.00  0.00    -0.284 N 
ATOM      3  H   UNL     1       7.513  -1.130  24.828  0.00  0.00    +0.155 HD
ATOM      4  C   UNL     1       9.520  -0.645  24.822  0.00  0.00    +0.238 C 
ATOM      5  O   UNL     1      10.461  -0.065  25.371  0.00  0.00    -0.273 OA
BRANCH   2   9
ATOM      6  C   UNL     1       6.859   2.462  27.931  0.00  0.00    +0.059 A 
ATOM      7  C   UNL     1       7.142   2.794  26.599  0.00  0.00    +0.017 A 
ATOM      8  C   UNL     1       7.569   1.811  25.696  0.00  0.00    +0.024 A 
ATOM      9  C   UNL     1       7.695   0.478  26.104  0.00  0.00    +0.033 A 
ATOM     10  C   UNL     1       7.392   0.150  27.428  0.00  0.00    +0.024 A 
ATOM     11  C   UNL     1       6.995   1.134  28.343  0.00  0.00    +0.017 A 
BRANCH   6  12
ATOM     12  C   UNL     1       6.500   3.563  28.867  0.00  0.00    +0.337 C 
ATOM     13  O   UNL     1       5.341   3.856  29.115  0.00  0.00    -0.245 OA
BRANCH  12  14
ATOM     14  O   UNL     1       7.547   4.198  29.431  0.00  0.00    -0.477 OA
ATOM     15  H   UNL     1       8.427   3.843  29.215  0.00  0.00    +0.295 HD
ENDBRANCH  12  14
ENDBRANCH   6  12
ENDBRANCH   2   9
ENDBRANCH   1   4
BRANCH   1  16
ATOM     16  N   UNL     1       8.658  -2.527  23.543  0.00  0.00    -0.300 N 
ATOM     17  H   UNL     1       7.845  -2.208  23.023  0.00  0.00    +0.150 HD
ATOM     18  C   UNL     1       8.729  -3.816  24.008  0.00  0.00    +0.245 C 
ATOM     19  O   UNL     1       9.728  -4.270  24.553  0.00  0.00    -0.270 OA
BRANCH  18  20
ATOM     20  C   UNL     1       7.550  -4.691  23.760  0.00  0.00    +0.037 A 
ATOM     21  C   UNL     1       7.305  -5.283  22.516  0.00  0.00    +0.013 A 
ATOM     22  C   UNL     1       6.157  -6.060  22.332  0.00  0.00    +0.001 A 
ATOM     23  C   UNL     1       5.260  -6.252  23.385  0.00  0.00    +0.000 A 
ATOM     24  C   UNL     1       5.506  -5.671  24.627  0.00  0.00    +0.001 A 
ATOM     25  C   UNL     1       6.646  -4.887  24.814  0.00  0.00    +0.013 A 
ENDBRANCH  18  20
ENDBRANCH   1  16
BRANCH   1  26
ATOM     26  C   UNL     1      10.081  -0.899  22.262  0.00  0.00    +0.067 C 
BRANCH  26  27
ATOM     27  C   UNL     1       9.510   0.496  22.150  0.00  0.00    -0.045 A 
ATOM     28  C   UNL     1       8.169   0.673  21.779  0.00  0.00    +0.007 A 
ATOM     29  C   UNL     1       7.590   1.941  21.792  0.00  0.00    +0.045 A 
ATOM     30  C   UNL     1       8.356   3.037  22.162  0.00  0.00    +0.117 A 
ATOM     31  C   UNL     1       9.704   2.894  22.472  0.00  0.00    +0.045 A 
ATOM     32  C   UNL     1      10.282   1.624  22.458  0.00  0.00    +0.007 A 
BRANCH  30  33
ATOM     33  O   UNL     1       7.741   4.252  22.218  0.00  0.00    -0.507 OA
ATOM     34  H   UNL     1       7.416   4.390  23.123  0.00  0.00    +0.292 HD
ENDBRANCH  30  33
ENDBRANCH  26  27
ENDBRANCH   1  26
TORSDOF 9
ENDMDL
MODEL 6
REMARK VINA RESULT:      -6.8      2.175      4.304
REMARK  Name = 
REMARK  9 active torsions:
REMARK  status: ('A' for Active; 'I' for Inactive)
REMARK    1  A    between atoms: O_1  and  C_2
REMARK    2  A    between atoms: C_2  and  C_4
REMARK    3  A    between atoms: C_7  and  N_8
REMARK    4  A    between atoms: C_9  and  C_11
REMARK    5  A    between atoms: C_11  and  C_13
REMARK    6  A    between atoms: C_11  and  N_21
REMARK    7  A    between atoms: C_13  and  C_14
REMARK    8  A    between atoms: C_17  and  O_18
REMARK    9  A    between atoms: C_22  and  C_24
REMARK                            x       y       z     vdW  Elec       q    Type
REMARK                         _______ _______ _______ _____ _____    ______ ____
ROOT
ATOM      1  C   UNL     1       5.571  -1.187  25.480  0.00  0.00    +0.164 C 
ENDROOT
BRANCH   1   4
ATOM      2  N   UNL     1       6.898   0.558  24.273  0.00  0.00    -0.284 N 
ATOM      3  H   UNL     1       7.492  -0.207  23.988  0.00  0.00    +0.155 HD
ATOM      4  C   UNL     1       5.700   0.254  24.902  0.00  0.00    +0.238 C 
ATOM      5  O   UNL     1       4.785   1.066  25.068  0.00  0.00    -0.273 OA
BRANCH   2   9
ATOM      6  C   UNL     1       8.038   4.471  23.119  0.00  0.00    +0.059 A 
ATOM      7  C   UNL     1       8.333   3.975  24.396  0.00  0.00    +0.017 A 
ATOM      8  C   UNL     1       7.961   2.673  24.757  0.00  0.00    +0.024 A 
ATOM      9  C   UNL     1       7.309   1.840  23.839  0.00  0.00    +0.033 A 
ATOM     10  C   UNL     1       7.036   2.334  22.561  0.00  0.00    +0.024 A 
ATOM     11  C   UNL     1       7.378   3.645  22.205  0.00  0.00    +0.017 A 
BRANCH   6  12
ATOM     12  C   UNL     1       8.375   5.891  22.824  0.00  0.00    +0.337 C 
ATOM     13  O   UNL     1       9.162   6.530  23.506  0.00  0.00    -0.245 OA
BRANCH  12  14
ATOM     14  O   UNL     1       7.763   6.410  21.741  0.00  0.00    -0.477 OA
ATOM     15  H   UNL     1       7.063   5.864  21.344  0.00  0.00    +0.295 HD
ENDBRANCH  12  14
ENDBRANCH   6  12
ENDBRANCH   2   9
ENDBRANCH   1   4
BRANCH   1  16
ATOM     16  N   UNL     1       5.782  -2.116  24.358  0.00  0.00    -0.300 N 
ATOM     17  H   UNL     1       6.588  -1.931  23.769  0.00  0.00    +0.150 HD
ATOM     18  C   UNL     1       5.040  -3.258  24.190  0.00  0.00    +0.245 C 
ATOM     19  O   UNL     1       4.121  -3.568  24.938  0.00  0.00    -0.270 OA
BRANCH  18  20
ATOM     20  C   UNL     1       5.442  -4.169  23.084  0.00  0.00    +0.037 A 
ATOM     21  C   UNL     1       5.629  -5.543  23.275  0.00  0.00    +0.013 A 
ATOM     22  C   UNL     1       6.050  -6.341  22.206  0.00  0.00    +0.001 A 
ATOM     23  C   UNL     1       6.277  -5.775  20.951  0.00  0.00    +0.000 A 
ATOM     24  C   UNL     1       6.084  -4.409  20.755  0.00  0.00    +0.001 A 
ATOM     25  C   UNL     1       5.672  -3.606  21.820  0.00  0.00    +0.013 A 
ENDBRANCH  18  20
ENDBRANCH   1  16
BRANCH   1  26
ATOM     26  C   UNL     1       6.463  -1.511  26.700  0.00  0.00    +0.067 C 
BRANCH  26  27
ATOM     27  C   UNL     1       7.396  -2.681  26.489  0.00  0.00    -0.045 A 
ATOM     28  C   UNL     1       7.107  -3.919  27.083  0.00  0.00    +0.007 A 
ATOM     29  C   UNL     1       7.884  -5.041  26.798  0.00  0.00    +0.045 A 
ATOM     30  C   UNL     1       8.959  -4.924  25.930  0.00  0.00    +0.117 A 
ATOM     31  C   UNL     1       9.302  -3.694  25.379  0.00  0.00    +0.045 A 
ATOM     32  C   UNL     1       8.524  -2.572  25.666  0.00  0.00    +0.007 A 
BRANCH  30  33
ATOM     33  O   UNL     1       9.662  -6.053  25.631  0.00  0.00    -0.507 OA
ATOM     34  H   UNL     1      10.255  -6.251  26.374  0.00  0.00    +0.292 HD
ENDBRANCH  30  33
ENDBRANCH  26  27
ENDBRANCH   1  26
TORSDOF 9
ENDMDL
MODEL 7
REMARK VINA RESULT:      -6.7      2.901      9.085
REMARK  Name = 
REMARK  9 active torsions:
REMARK  status: ('A' for Active; 'I' for Inactive)
REMARK    1  A    between atoms: O_1  and  C_2
REMARK    2  A    between atoms: C_2  and  C_4
REMARK    3  A    between atoms: C_7  and  N_8
REMARK    4  A    between atoms: C_9  and  C_11
REMARK    5  A    between atoms: C_11  and  C_13
REMARK    6  A    between atoms: C_11  and  N_21
REMARK    7  A    between atoms: C_13  and  C_14
REMARK    8  A    between atoms: C_17  and  O_18
REMARK    9  A    between atoms: C_22  and  C_24
REMARK                            x       y       z     vdW  Elec       q    Type
REMARK                         _______ _______ _______ _____ _____    ______ ____
ROOT
ATOM      1  C   UNL     1       8.140  -3.943  24.315  0.00  0.00    +0.164 C 
ENDROOT
BRANCH   1   4
ATOM      2  N   UNL     1       5.769  -4.738  24.439  0.00  0.00    -0.284 N 
ATOM      3  H   UNL     1       5.636  -3.983  25.097  0.00  0.00    +0.155 HD
ATOM      4  C   UNL     1       6.965  -4.789  23.738  0.00  0.00    +0.238 C 
ATOM      5  O   UNL     1       7.149  -5.496  22.742  0.00  0.00    -0.273 OA
BRANCH   2   9
ATOM      6  C   UNL     1       2.489  -7.320  23.720  0.00  0.00    +0.059 A 
ATOM      7  C   UNL     1       3.481  -7.648  24.654  0.00  0.00    +0.017 A 
ATOM      8  C   UNL     1       4.553  -6.775  24.889  0.00  0.00    +0.024 A 
ATOM      9  C   UNL     1       4.636  -5.552  24.213  0.00  0.00    +0.033 A 
ATOM     10  C   UNL     1       3.633  -5.222  23.298  0.00  0.00    +0.024 A 
ATOM     11  C   UNL     1       2.575  -6.104  23.037  0.00  0.00    +0.017 A 
BRANCH   6  12
ATOM     12  C   UNL     1       1.426  -8.325  23.445  0.00  0.00    +0.337 C 
ATOM     13  O   UNL     1       0.690  -8.753  24.320  0.00  0.00    -0.245 OA
BRANCH  12  14
ATOM     14  O   UNL     1       1.325  -8.711  22.157  0.00  0.00    -0.477 OA
ATOM     15  H   UNL     1       0.927  -9.584  22.003  0.00  0.00    +0.295 HD
ENDBRANCH  12  14
ENDBRANCH   6  12
ENDBRANCH   2   9
ENDBRANCH   1   4
BRANCH   1  16
ATOM     16  N   UNL     1       8.061  -2.618  23.680  0.00  0.00    -0.300 N 
ATOM     17  H   UNL     1       7.158  -2.155  23.719  0.00  0.00    +0.150 HD
ATOM     18  C   UNL     1       9.165  -1.960  23.197  0.00  0.00    +0.245 C 
ATOM     19  O   UNL     1      10.289  -2.444  23.222  0.00  0.00    -0.270 OA
BRANCH  18  20
ATOM     20  C   UNL     1       8.959  -0.574  22.694  0.00  0.00    +0.037 A 
ATOM     21  C   UNL     1      10.013   0.214  22.216  0.00  0.00    +0.013 A 
ATOM     22  C   UNL     1       9.764   1.525  21.797  0.00  0.00    +0.001 A 
ATOM     23  C   UNL     1       8.470   2.047  21.847  0.00  0.00    +0.000 A 
ATOM     24  C   UNL     1       7.418   1.262  22.314  0.00  0.00    +0.001 A 
ATOM     25  C   UNL     1       7.662  -0.044  22.742  0.00  0.00    +0.013 A 
ENDBRANCH  18  20
ENDBRANCH   1  16
BRANCH   1  26
ATOM     26  C   UNL     1       8.225  -3.864  25.856  0.00  0.00    +0.067 C 
BRANCH  26  27
ATOM     27  C   UNL     1       7.756  -2.549  26.433  0.00  0.00    -0.045 A 
ATOM     28  C   UNL     1       8.682  -1.522  26.672  0.00  0.00    +0.007 A 
ATOM     29  C   UNL     1       8.253  -0.262  27.083  0.00  0.00    +0.045 A 
ATOM     30  C   UNL     1       6.898  -0.029  27.270  0.00  0.00    +0.117 A 
ATOM     31  C   UNL     1       5.968  -1.049  27.101  0.00  0.00    +0.045 A 
ATOM     32  C   UNL     1       6.400  -2.311  26.690  0.00  0.00    +0.007 A 
BRANCH  30  33
ATOM     33  O   UNL     1       6.511   1.231  27.618  0.00  0.00    -0.507 OA
ATOM     34  H   UNL     1       5.998   1.178  28.441  0.00  0.00    +0.292 HD
ENDBRANCH  30  33
ENDBRANCH  26  27
ENDBRANCH   1  26
TORSDOF 9
ENDMDL
MODEL 8
REMARK VINA RESULT:      -6.6      3.141      9.692
REMARK  Name = 
REMARK  9 active torsions:
REMARK  status: ('A' for Active; 'I' for Inactive)
REMARK    1  A    between atoms: O_1  and  C_2
REMARK    2  A    between atoms: C_2  and  C_4
REMARK    3  A    between atoms: C_7  and  N_8
REMARK    4  A    between atoms: C_9  and  C_11
REMARK    5  A    between atoms: C_11  and  C_13
REMARK    6  A    between atoms: C_11  and  N_21
REMARK    7  A    between atoms: C_13  and  C_14
REMARK    8  A    between atoms: C_17  and  O_18
REMARK    9  A    between atoms: C_22  and  C_24
REMARK                            x       y       z     vdW  Elec       q    Type
REMARK                         _______ _______ _______ _____ _____    ______ ____
ROOT
ATOM      1  C   UNL     1       7.792   2.555  23.479  0.00  0.00    +0.164 C 
ENDROOT
BRANCH   1   4
ATOM      2  N   UNL     1       8.302   0.387  24.623  0.00  0.00    -0.284 N 
ATOM      3  H   UNL     1       8.565   0.960  25.413  0.00  0.00    +0.155 HD
ATOM      4  C   UNL     1       7.668   1.003  23.554  0.00  0.00    +0.238 C 
ATOM      5  O   UNL     1       7.079   0.391  22.658  0.00  0.00    -0.273 OA
BRANCH   2   9
ATOM      6  C   UNL     1       8.879  -3.750  25.325  0.00  0.00    +0.059 A 
ATOM      7  C   UNL     1       7.978  -3.001  26.093  0.00  0.00    +0.017 A 
ATOM      8  C   UNL     1       7.789  -1.636  25.838  0.00  0.00    +0.024 A 
ATOM      9  C   UNL     1       8.479  -1.004  24.797  0.00  0.00    +0.033 A 
ATOM     10  C   UNL     1       9.362  -1.761  24.022  0.00  0.00    +0.024 A 
ATOM     11  C   UNL     1       9.578  -3.119  24.291  0.00  0.00    +0.017 A 
BRANCH   6  12
ATOM     12  C   UNL     1       9.108  -5.172  25.700  0.00  0.00    +0.337 C 
ATOM     13  O   UNL     1       8.244  -5.854  26.229  0.00  0.00    -0.245 OA
BRANCH  12  14
ATOM     14  O   UNL     1      10.330  -5.654  25.395  0.00  0.00    -0.477 OA
ATOM     15  H   UNL     1      10.348  -6.437  24.819  0.00  0.00    +0.295 HD
ENDBRANCH  12  14
ENDBRANCH   6  12
ENDBRANCH   2   9
ENDBRANCH   1   4
BRANCH   1  16
ATOM     16  N   UNL     1       6.427   3.083  23.332  0.00  0.00    -0.300 N 
ATOM     17  H   UNL     1       5.703   2.609  23.864  0.00  0.00    +0.150 HD
ATOM     18  C   UNL     1       6.148   4.241  22.649  0.00  0.00    +0.245 C 
ATOM     19  O   UNL     1       7.010   4.897  22.077  0.00  0.00    -0.270 OA
BRANCH  18  20
ATOM     20  C   UNL     1       4.741   4.726  22.686  0.00  0.00    +0.037 A 
ATOM     21  C   UNL     1       4.414   6.055  22.977  0.00  0.00    +0.013 A 
ATOM     22  C   UNL     1       3.071   6.441  23.040  0.00  0.00    +0.001 A 
ATOM     23  C   UNL     1       2.059   5.510  22.807  0.00  0.00    +0.000 A 
ATOM     24  C   UNL     1       2.381   4.187  22.508  0.00  0.00    +0.001 A 
ATOM     25  C   UNL     1       3.720   3.794  22.453  0.00  0.00    +0.013 A 
ENDBRANCH  18  20
ENDBRANCH   1  16
BRANCH   1  26
ATOM     26  C   UNL     1       8.575   3.229  24.629  0.00  0.00    +0.067 C 
BRANCH  26  27
ATOM     27  C   UNL     1       9.763   4.043  24.172  0.00  0.00    -0.045 A 
ATOM     28  C   UNL     1       9.810   5.419  24.442  0.00  0.00    +0.007 A 
ATOM     29  C   UNL     1      10.951   6.162  24.142  0.00  0.00    +0.045 A 
ATOM     30  C   UNL     1      12.041   5.534  23.558  0.00  0.00    +0.117 A 
ATOM     31  C   UNL     1      11.992   4.185  23.223  0.00  0.00    +0.045 A 
ATOM     32  C   UNL     1      10.850   3.443  23.524  0.00  0.00    +0.007 A 
BRANCH  30  33
ATOM     33  O   UNL     1      13.159   6.280  23.330  0.00  0.00    -0.507 OA
ATOM     34  H   UNL     1      13.104   7.086  23.869  0.00  0.00    +0.292 HD
ENDBRANCH  30  33
ENDBRANCH  26  27
ENDBRANCH   1  26
TORSDOF 9
ENDMDL
MODEL 9
REMARK VINA RESULT:      -6.6      2.953      8.768
REMARK  Name = 
REMARK  9 active torsions:
REMARK  status: ('A' for Active; 'I' for Inactive)
REMARK    1  A    between atoms: O_1  and  C_2
REMARK    2  A    between atoms: C_2  and  C_4
REMARK    3  A    between atoms: C_7  and  N_8
REMARK    4  A    between atoms: C_9  and  C_11
REMARK    5  A    between atoms: C_11  and  C_13
REMARK    6  A    between atoms: C_11  and  N_21
REMARK    7  A    between atoms: C_13  and  C_14
REMARK    8  A    between atoms: C_17  and  O_18
REMARK    9  A    between atoms: C_22  and  C_24
REMARK                            x       y       z     vdW  Elec       q    Type
REMARK                         _______ _______ _______ _____ _____    ______ ____
ROOT
ATOM      1  C   UNL     1       7.096  -1.684  23.013  0.00  0.00    +0.164 C 
ENDROOT
BRANCH   1   4
ATOM      2  N   UNL     1       5.429  -3.391  23.769  0.00  0.00    -0.284 N 
ATOM      3  H   UNL     1       5.172  -2.711  24.471  0.00  0.00    +0.155 HD
ATOM      4  C   UNL     1       6.287  -2.991  22.756  0.00  0.00    +0.238 C 
ATOM      5  O   UNL     1       6.473  -3.633  21.718  0.00  0.00    -0.273 OA
BRANCH   2   9
ATOM      6  C   UNL     1       3.225  -6.996  24.071  0.00  0.00    +0.059 A 
ATOM      7  C   UNL     1       2.666  -5.848  23.494  0.00  0.00    +0.017 A 
ATOM      8  C   UNL     1       3.414  -4.667  23.390  0.00  0.00    +0.024 A 
ATOM      9  C   UNL     1       4.739  -4.623  23.838  0.00  0.00    +0.033 A 
ATOM     10  C   UNL     1       5.297  -5.777  24.395  0.00  0.00    +0.024 A 
ATOM     11  C   UNL     1       4.545  -6.951  24.530  0.00  0.00    +0.017 A 
BRANCH   6  12
ATOM     12  C   UNL     1       2.354  -8.192  24.240  0.00  0.00    +0.337 C 
ATOM     13  O   UNL     1       1.437  -8.443  23.475  0.00  0.00    -0.245 OA
BRANCH  12  14
ATOM     14  O   UNL     1       2.666  -8.983  25.286  0.00  0.00    -0.477 OA
ATOM     15  H   UNL     1       3.489  -8.764  25.756  0.00  0.00    +0.295 HD
ENDBRANCH  12  14
ENDBRANCH   6  12
ENDBRANCH   2   9
ENDBRANCH   1   4
BRANCH   1  16
ATOM     16  N   UNL     1       6.746  -1.228  24.368  0.00  0.00    -0.300 N 
ATOM     17  H   UNL     1       6.923  -1.884  25.122  0.00  0.00    +0.150 HD
ATOM     18  C   UNL     1       6.351   0.058  24.640  0.00  0.00    +0.245 C 
ATOM     19  O   UNL     1       6.222   0.910  23.769  0.00  0.00    -0.270 OA
BRANCH  18  20
ATOM     20  C   UNL     1       6.149   0.416  26.070  0.00  0.00    +0.037 A 
ATOM     21  C   UNL     1       7.074   1.182  26.790  0.00  0.00    +0.013 A 
ATOM     22  C   UNL     1       6.849   1.449  28.144  0.00  0.00    +0.001 A 
ATOM     23  C   UNL     1       5.705   0.961  28.778  0.00  0.00    +0.000 A 
ATOM     24  C   UNL     1       4.778   0.206  28.062  0.00  0.00    +0.001 A 
ATOM     25  C   UNL     1       5.001  -0.071  26.712  0.00  0.00    +0.013 A 
ENDBRANCH  18  20
ENDBRANCH   1  16
BRANCH   1  26
ATOM     26  C   UNL     1       8.622  -1.776  22.788  0.00  0.00    +0.067 C 
BRANCH  26  27
ATOM     27  C   UNL     1       9.334  -0.443  22.834  0.00  0.00    -0.045 A 
ATOM     28  C   UNL     1       9.233   0.438  21.746  0.00  0.00    +0.007 A 
ATOM     29  C   UNL     1       9.775   1.720  21.820  0.00  0.00    +0.045 A 
ATOM     30  C   UNL     1      10.432   2.118  22.976  0.00  0.00    +0.117 A 
ATOM     31  C   UNL     1      10.599   1.240  24.041  0.00  0.00    +0.045 A 
ATOM     32  C   UNL     1      10.056  -0.043  23.965  0.00  0.00    +0.007 A 
BRANCH  30  33
ATOM     33  O   UNL     1      10.900   3.397  23.033  0.00  0.00    -0.507 OA
ATOM     34  H   UNL     1      11.056   3.708  22.126  0.00  0.00    +0.292 HD
ENDBRANCH  30  33
ENDBRANCH  26  27
ENDBRANCH   1  26
TORSDOF 9
ENDMDL
