MODEL 1
REMARK VINA RESULT:      -6.5      0.000      0.000
REMARK  Name = 
REMARK  3 active torsions:
REMARK  status: ('A' for Active; 'I' for Inactive)
REMARK    1  A    between atoms: C_1  and  O_2
REMARK    2  A    between atoms: O_2  and  C_3
REMARK    3  A    between atoms: C_11  and  C_12
REMARK                            x       y       z     vdW  Elec       q    Type
REMARK                         _______ _______ _______ _____ _____    ______ ____
ROOT
ATOM      1  C   UNL     1       7.479   1.304  22.321  0.00  0.00    +0.121 A 
ATOM      2  C   UNL     1       7.243   0.205  23.152  0.00  0.00    +0.056 A 
ATOM      3  C   UNL     1       8.241  -0.743  23.283  0.00  0.00    +0.012 A 
ATOM      4  C   UNL     1       9.459  -0.585  22.621  0.00  0.00    +0.042 A 
ATOM      5  N   UNL     1      10.297  -1.659  22.890  0.00  0.00    -0.281 N 
ATOM      6  H   UNL     1      11.231  -1.784  22.527  0.00  0.00    +0.155 HD
ATOM      7  C   UNL     1       9.692  -2.574  23.733  0.00  0.00    +0.249 C 
ATOM      8  O   UNL     1      10.182  -3.611  24.137  0.00  0.00    -0.270 OA
ATOM      9  C   UNL     1       9.735   0.503  21.820  0.00  0.00    +0.027 A 
ATOM     10  C   UNL     1       8.319  -2.015  24.022  0.00  0.00    +0.048 C 
ATOM     11  C   UNL     1       7.304  -2.496  24.762  0.00  0.00    +0.041 C 
ATOM     12  C   UNL     1       8.724   1.459  21.680  0.00  0.00    +0.047 A 
ENDROOT
BRANCH  11  13
ATOM     13  C   UNL     1       7.239  -3.707  25.495  0.00  0.00    +0.059 A 
ATOM     14  N   UNL     1       8.059  -4.003  26.553  0.00  0.00    -0.345 N 
ATOM     15  H   UNL     1       8.790  -3.412  26.936  0.00  0.00    +0.167 HD
ATOM     16  C   UNL     1       7.734  -5.245  27.014  0.00  0.00    +0.196 A 
ATOM     17  N   UNL     1       6.750  -5.772  26.324  0.00  0.00    -0.244 NA
ATOM     18  C   UNL     1       6.435  -4.827  25.382  0.00  0.00    +0.138 A 
ENDBRANCH  11  13
BRANCH   1  20
ATOM     19  C   UNL     1       7.082   3.624  22.172  0.00  0.00    +0.277 C 
ATOM     20  O   UNL     1       6.565   2.297  22.080  0.00  0.00    -0.495 OA
ENDBRANCH   1  20
TORSDOF 2
ENDMDL
MODEL 2
REMARK VINA RESULT:      -6.4      2.125      2.275
REMARK  Name = 
REMARK  3 active torsions:
REMARK  status: ('A' for Active; 'I' for Inactive)
REMARK    1  A    between atoms: C_1  and  O_2
REMARK    2  A    between atoms: O_2  and  C_3
REMARK    3  A    between atoms: C_11  and  C_12
REMARK                            x       y       z     vdW  Elec       q    Type
REMARK                         _______ _______ _______ _____ _____    ______ ____
ROOT
ATOM      1  C   UNL     1      10.295   1.030  23.566  0.00  0.00    +0.121 A 
ATOM      2  C   UNL     1       9.861  -0.002  24.404  0.00  0.00    +0.056 A 
ATOM      3  C   UNL     1       9.168  -1.056  23.837  0.00  0.00    +0.012 A 
ATOM      4  C   UNL     1       8.934  -1.093  22.463  0.00  0.00    +0.042 A 
ATOM      5  N   UNL     1       8.214  -2.232  22.127  0.00  0.00    -0.281 N 
ATOM      6  H   UNL     1       7.914  -2.488  21.196  0.00  0.00    +0.155 HD
ATOM      7  C   UNL     1       7.935  -3.001  23.242  0.00  0.00    +0.249 C 
ATOM      8  O   UNL     1       7.317  -4.049  23.255  0.00  0.00    -0.270 OA
ATOM      9  C   UNL     1       9.375  -0.107  21.606  0.00  0.00    +0.027 A 
ATOM     10  C   UNL     1       8.543  -2.262  24.409  0.00  0.00    +0.048 C 
ATOM     11  C   UNL     1       8.559  -2.541  25.725  0.00  0.00    +0.041 C 
ATOM     12  C   UNL     1      10.071   0.964  22.177  0.00  0.00    +0.047 A 
ENDROOT
BRANCH  11  13
ATOM     13  C   UNL     1       7.980  -3.642  26.403  0.00  0.00    +0.059 A 
ATOM     14  N   UNL     1       6.717  -3.632  26.936  0.00  0.00    -0.345 N 
ATOM     15  H   UNL     1       6.056  -2.861  26.911  0.00  0.00    +0.167 HD
ATOM     16  C   UNL     1       6.488  -4.842  27.522  0.00  0.00    +0.196 A 
ATOM     17  N   UNL     1       7.522  -5.641  27.397  0.00  0.00    -0.244 NA
ATOM     18  C   UNL     1       8.451  -4.908  26.705  0.00  0.00    +0.138 A 
ENDBRANCH  11  13
BRANCH   1  20
ATOM     19  C   UNL     1      10.567   3.365  23.379  0.00  0.00    +0.277 C 
ATOM     20  O   UNL     1      10.964   2.145  24.002  0.00  0.00    -0.495 OA
ENDBRANCH   1  20
TORSDOF 2
ENDMDL
MODEL 3
REMARK VINA RESULT:      -6.1      2.341      2.650
REMARK  Name = 
REMARK  3 active torsions:
REMARK  status: ('A' for Active; 'I' for Inactive)
REMARK    1  A    between atoms: C_1  and  O_2
REMARK    2  A    between atoms: O_2  and  C_3
REMARK    3  A    between atoms: C_11  and  C_12
REMARK                            x       y       z     vdW  Elec       q    Type
REMARK                         _______ _______ _______ _____ _____    ______ ____
ROOT
ATOM      1  C   UNL     1       8.877   1.562  22.785  0.00  0.00    +0.121 A 
ATOM      2  C   UNL     1       8.048   0.446  22.639  0.00  0.00    +0.056 A 
ATOM      3  C   UNL     1       8.506  -0.775  23.101  0.00  0.00    +0.012 A 
ATOM      4  C   UNL     1       9.753  -0.876  23.717  0.00  0.00    +0.042 A 
ATOM      5  N   UNL     1      10.004  -2.191  24.085  0.00  0.00    -0.281 N 
ATOM      6  H   UNL     1      10.840  -2.527  24.543  0.00  0.00    +0.155 HD
ATOM      7  C   UNL     1       8.953  -3.022  23.739  0.00  0.00    +0.249 C 
ATOM      8  O   UNL     1       8.893  -4.222  23.932  0.00  0.00    -0.270 OA
ATOM      9  C   UNL     1      10.581   0.211  23.904  0.00  0.00    +0.027 A 
ATOM     10  C   UNL     1       7.931  -2.131  23.076  0.00  0.00    +0.048 C 
ATOM     11  C   UNL     1       6.733  -2.409  22.531  0.00  0.00    +0.041 C 
ATOM     12  C   UNL     1      10.123   1.445  23.432  0.00  0.00    +0.047 A 
ENDROOT
BRANCH  11  13
ATOM     13  C   UNL     1       6.081  -3.662  22.419  0.00  0.00    +0.059 A 
ATOM     14  N   UNL     1       6.610  -4.741  21.760  0.00  0.00    -0.345 N 
ATOM     15  H   UNL     1       7.508  -4.781  21.288  0.00  0.00    +0.167 HD
ATOM     16  C   UNL     1       5.719  -5.771  21.837  0.00  0.00    +0.196 A 
ATOM     17  N   UNL     1       4.645  -5.429  22.510  0.00  0.00    -0.244 NA
ATOM     18  C   UNL     1       4.859  -4.125  22.876  0.00  0.00    +0.138 A 
ENDBRANCH  11  13
BRANCH   1  20
ATOM     19  C   UNL     1       7.161   3.071  22.205  0.00  0.00    +0.277 C 
ATOM     20  O   UNL     1       8.558   2.820  22.345  0.00  0.00    -0.495 OA
ENDBRANCH   1  20
TORSDOF 2
ENDMDL
MODEL 4
REMARK VINA RESULT:      -6.0      2.639      6.358
REMARK  Name = 
REMARK  3 active torsions:
REMARK  status: ('A' for Active; 'I' for Inactive)
REMARK    1  A    between atoms: C_1  and  O_2
REMARK    2  A    between atoms: O_2  and  C_3
REMARK    3  A    between atoms: C_11  and  C_12
REMARK                            x       y       z     vdW  Elec       q    Type
REMARK                         _______ _______ _______ _____ _____    ______ ____
ROOT
ATOM      1  C   UNL     1       8.197  -3.716  25.896  0.00  0.00    +0.121 A 
ATOM      2  C   UNL     1       8.501  -2.362  25.727  0.00  0.00    +0.056 A 
ATOM      3  C   UNL     1       8.650  -1.882  24.438  0.00  0.00    +0.012 A 
ATOM      4  C   UNL     1       8.473  -2.727  23.342  0.00  0.00    +0.042 A 
ATOM      5  N   UNL     1       8.684  -2.032  22.159  0.00  0.00    -0.281 N 
ATOM      6  H   UNL     1       8.621  -2.420  21.228  0.00  0.00    +0.155 HD
ATOM      7  C   UNL     1       9.004  -0.708  22.400  0.00  0.00    +0.249 C 
ATOM      8  O   UNL     1       9.245   0.137  21.558  0.00  0.00    -0.270 OA
ATOM      9  C   UNL     1       8.143  -4.059  23.476  0.00  0.00    +0.027 A 
ATOM     10  C   UNL     1       9.000  -0.555  23.902  0.00  0.00    +0.048 C 
ATOM     11  C   UNL     1       9.261   0.507  24.685  0.00  0.00    +0.041 C 
ATOM     12  C   UNL     1       8.000  -4.549  24.778  0.00  0.00    +0.047 A 
ENDROOT
BRANCH  11  13
ATOM     13  C   UNL     1       9.632   1.819  24.303  0.00  0.00    +0.059 A 
ATOM     14  N   UNL     1      10.808   2.126  23.669  0.00  0.00    -0.345 N 
ATOM     15  H   UNL     1      11.537   1.473  23.398  0.00  0.00    +0.167 HD
ATOM     16  C   UNL     1      10.846   3.473  23.461  0.00  0.00    +0.196 A 
ATOM     17  N   UNL     1       9.765   4.061  23.916  0.00  0.00    -0.244 NA
ATOM     18  C   UNL     1       9.005   3.046  24.439  0.00  0.00    +0.138 A 
ENDBRANCH  11  13
BRANCH   1  20
ATOM     19  C   UNL     1       7.046  -5.334  27.170  0.00  0.00    +0.277 C 
ATOM     20  O   UNL     1       8.054  -4.325  27.116  0.00  0.00    -0.495 OA
ENDBRANCH   1  20
TORSDOF 2
ENDMDL
MODEL 5
REMARK VINA RESULT:      -5.9      2.409      2.706
REMARK  Name = 
REMARK  3 active torsions:
REMARK  status: ('A' for Active; 'I' for Inactive)
REMARK    1  A    between atoms: C_1  and  O_2
REMARK    2  A    between atoms: O_2  and  C_3
REMARK    3  A    between atoms: C_11  and  C_12
REMARK                            x       y       z     vdW  Elec       q    Type
REMARK                         _______ _______ _______ _____ _____    ______ ____
ROOT
ATOM      1  C   UNL     1      10.191  -0.147  23.680  0.00  0.00    +0.121 A 
ATOM      2  C   UNL     1       9.580  -1.109  24.491  0.00  0.00    +0.056 A 
ATOM      3  C   UNL     1       8.779  -2.060  23.887  0.00  0.00    +0.012 A 
ATOM      4  C   UNL     1       8.611  -2.069  22.502  0.00  0.00    +0.042 A 
ATOM      5  N   UNL     1       7.760  -3.100  22.127  0.00  0.00    -0.281 N 
ATOM      6  H   UNL     1       7.475  -3.316  21.181  0.00  0.00    +0.155 HD
ATOM      7  C   UNL     1       7.324  -3.822  23.223  0.00  0.00    +0.249 C 
ATOM      8  O   UNL     1       6.570  -4.776  23.202  0.00  0.00    -0.270 OA
ATOM      9  C   UNL     1       9.223  -1.155  21.673  0.00  0.00    +0.027 A 
ATOM     10  C   UNL     1       7.969  -3.169  24.422  0.00  0.00    +0.048 C 
ATOM     11  C   UNL     1       7.881  -3.444  25.736  0.00  0.00    +0.041 C 
ATOM     12  C   UNL     1      10.028  -0.186  22.282  0.00  0.00    +0.047 A 
ENDROOT
BRANCH  11  13
ATOM     13  C   UNL     1       7.125  -4.455  26.380  0.00  0.00    +0.059 A 
ATOM     14  N   UNL     1       5.765  -4.584  26.260  0.00  0.00    -0.345 N 
ATOM     15  H   UNL     1       5.148  -3.994  25.710  0.00  0.00    +0.167 HD
ATOM     16  C   UNL     1       5.366  -5.647  27.016  0.00  0.00    +0.196 A 
ATOM     17  N   UNL     1       6.383  -6.220  27.615  0.00  0.00    -0.244 NA
ATOM     18  C   UNL     1       7.477  -5.490  27.228  0.00  0.00    +0.138 A 
ENDBRANCH  11  13
BRANCH   1  20
ATOM     19  C   UNL     1      10.670   2.161  23.640  0.00  0.00    +0.277 C 
ATOM     20  O   UNL     1      10.982   0.867  24.153  0.00  0.00    -0.495 OA
ENDBRANCH   1  20
TORSDOF 2
ENDMDL
MODEL 6
REMARK VINA RESULT:      -5.9      2.965      7.056
REMARK  Name = 
REMARK  3 active torsions:
REMARK  status: ('A' for Active; 'I' for Inactive)
REMARK    1  A    between atoms: C_1  and  O_2
REMARK    2  A    between atoms: O_2  and  C_3
REMARK    3  A    between atoms: C_11  and  C_12
REMARK                            x       y       z     vdW  Elec       q    Type
REMARK                         _______ _______ _______ _____ _____    ______ ____
ROOT
ATOM      1  C   UNL     1       6.209  -5.643  28.022  0.00  0.00    +0.121 A 
ATOM      2  C   UNL     1       6.920  -4.806  27.157  0.00  0.00    +0.056 A 
ATOM      3  C   UNL     1       6.689  -4.920  25.798  0.00  0.00    +0.012 A 
ATOM      4  C   UNL     1       5.749  -5.830  25.314  0.00  0.00    +0.042 A 
ATOM      5  N   UNL     1       5.697  -5.778  23.928  0.00  0.00    -0.281 N 
ATOM      6  H   UNL     1       5.100  -6.341  23.337  0.00  0.00    +0.155 HD
ATOM      7  C   UNL     1       6.583  -4.843  23.423  0.00  0.00    +0.249 C 
ATOM      8  O   UNL     1       6.759  -4.581  22.248  0.00  0.00    -0.270 OA
ATOM      9  C   UNL     1       5.009  -6.647  26.142  0.00  0.00    +0.027 A 
ATOM     10  C   UNL     1       7.273  -4.246  24.625  0.00  0.00    +0.048 C 
ATOM     11  C   UNL     1       8.236  -3.311  24.722  0.00  0.00    +0.041 C 
ATOM     12  C   UNL     1       5.247  -6.539  27.516  0.00  0.00    +0.047 A 
ENDROOT
BRANCH  11  13
ATOM     13  C   UNL     1       8.896  -2.610  23.683  0.00  0.00    +0.059 A 
ATOM     14  N   UNL     1       8.247  -2.011  22.635  0.00  0.00    -0.345 N 
ATOM     15  H   UNL     1       7.244  -1.990  22.477  0.00  0.00    +0.167 HD
ATOM     16  C   UNL     1       9.181  -1.441  21.820  0.00  0.00    +0.196 A 
ATOM     17  N   UNL     1      10.397  -1.629  22.277  0.00  0.00    -0.244 NA
ATOM     18  C   UNL     1      10.232  -2.351  23.431  0.00  0.00    +0.138 A 
ENDBRANCH  11  13
BRANCH   1  20
ATOM     19  C   UNL     1       5.192  -5.993  30.120  0.00  0.00    +0.277 C 
ATOM     20  O   UNL     1       6.365  -5.653  29.384  0.00  0.00    -0.495 OA
ENDBRANCH   1  20
TORSDOF 2
ENDMDL
MODEL 7
REMARK VINA RESULT:      -5.9      1.947      2.163
REMARK  Name = 
REMARK  3 active torsions:
REMARK  status: ('A' for Active; 'I' for Inactive)
REMARK    1  A    between atoms: C_1  and  O_2
REMARK    2  A    between atoms: O_2  and  C_3
REMARK    3  A    between atoms: C_11  and  C_12
REMARK                            x       y       z     vdW  Elec       q    Type
REMARK                         _______ _______ _______ _____ _____    ______ ____
ROOT
ATOM      1  C   UNL     1       7.712   2.438  22.256  0.00  0.00    +0.121 A 
ATOM      2  C   UNL     1       7.413   1.075  22.339  0.00  0.00    +0.056 A 
ATOM      3  C   UNL     1       8.428   0.202  22.686  0.00  0.00    +0.012 A 
ATOM      4  C   UNL     1       9.707   0.681  22.970  0.00  0.00    +0.042 A 
ATOM      5  N   UNL     1      10.558  -0.372  23.279  0.00  0.00    -0.281 N 
ATOM      6  H   UNL     1      11.537  -0.290  23.516  0.00  0.00    +0.155 HD
ATOM      7  C   UNL     1       9.900  -1.588  23.222  0.00  0.00    +0.249 C 
ATOM      8  O   UNL     1      10.390  -2.680  23.440  0.00  0.00    -0.270 OA
ATOM      9  C   UNL     1      10.027   2.021  22.926  0.00  0.00    +0.027 A 
ATOM     10  C   UNL     1       8.480  -1.264  22.826  0.00  0.00    +0.048 C 
ATOM     11  C   UNL     1       7.417  -2.059  22.606  0.00  0.00    +0.041 C 
ATOM     12  C   UNL     1       9.004   2.905  22.568  0.00  0.00    +0.047 A 
ENDROOT
BRANCH  11  13
ATOM     13  C   UNL     1       7.339  -3.471  22.679  0.00  0.00    +0.059 A 
ATOM     14  N   UNL     1       7.849  -4.211  23.715  0.00  0.00    -0.345 N 
ATOM     15  H   UNL     1       8.329  -3.853  24.535  0.00  0.00    +0.167 HD
ATOM     16  C   UNL     1       7.611  -5.530  23.459  0.00  0.00    +0.196 A 
ATOM     17  N   UNL     1       6.972  -5.692  22.324  0.00  0.00    -0.244 NA
ATOM     18  C   UNL     1       6.798  -4.424  21.834  0.00  0.00    +0.138 A 
ENDBRANCH  11  13
BRANCH   1  20
ATOM     19  C   UNL     1       7.178   4.735  22.248  0.00  0.00    +0.277 C 
ATOM     20  O   UNL     1       6.809   3.403  21.893  0.00  0.00    -0.495 OA
ENDBRANCH   1  20
TORSDOF 2
ENDMDL
MODEL 8
REMARK VINA RESULT:      -5.8      2.803      6.961
REMARK  Name = 
REMARK  3 active torsions:
REMARK  status: ('A' for Active; 'I' for Inactive)
REMARK    1  A    between atoms: C_1  and  O_2
REMARK    2  A    between atoms: O_2  and  C_3
REMARK    3  A    between atoms: C_11  and  C_12
REMARK                            x       y       z     vdW  Elec       q    Type
REMARK                         _______ _______ _______ _____ _____    ______ ____
ROOT
ATOM      1  C   UNL     1       4.589  -6.846  25.033  0.00  0.00    +0.121 A 
ATOM      2  C   UNL     1       5.489  -5.986  24.398  0.00  0.00    +0.056 A 
ATOM      3  C   UNL     1       6.261  -5.151  25.185  0.00  0.00    +0.012 A 
ATOM      4  C   UNL     1       6.157  -5.191  26.575  0.00  0.00    +0.042 A 
ATOM      5  N   UNL     1       7.013  -4.262  27.150  0.00  0.00    -0.281 N 
ATOM      6  H   UNL     1       7.122  -4.092  28.140  0.00  0.00    +0.155 HD
ATOM      7  C   UNL     1       7.724  -3.565  26.188  0.00  0.00    +0.249 C 
ATOM      8  O   UNL     1       8.542  -2.689  26.394  0.00  0.00    -0.270 OA
ATOM      9  C   UNL     1       5.302  -6.049  27.232  0.00  0.00    +0.027 A 
ATOM     10  C   UNL     1       7.258  -4.114  24.861  0.00  0.00    +0.048 C 
ATOM     11  C   UNL     1       7.596  -3.792  23.600  0.00  0.00    +0.041 C 
ATOM     12  C   UNL     1       4.514  -6.890  26.439  0.00  0.00    +0.047 A 
ENDROOT
BRANCH  11  13
ATOM     13  C   UNL     1       8.512  -2.807  23.154  0.00  0.00    +0.059 A 
ATOM     14  N   UNL     1       9.776  -2.654  23.662  0.00  0.00    -0.345 N 
ATOM     15  H   UNL     1      10.205  -3.211  24.394  0.00  0.00    +0.167 HD
ATOM     16  C   UNL     1      10.375  -1.611  23.018  0.00  0.00    +0.196 A 
ATOM     17  N   UNL     1       9.580  -1.081  22.119  0.00  0.00    -0.244 NA
ATOM     18  C   UNL     1       8.423  -1.814  22.194  0.00  0.00    +0.138 A 
ENDBRANCH  11  13
BRANCH   1  20
ATOM     19  C   UNL     1       2.547  -8.025  25.075  0.00  0.00    +0.277 C 
ATOM     20  O   UNL     1       3.745  -7.701  24.372  0.00  0.00    -0.495 OA
ENDBRANCH   1  20
TORSDOF 2
ENDMDL
MODEL 9
REMARK VINA RESULT:      -5.8      2.600      6.410
REMARK  Name = 
REMARK  3 active torsions:
REMARK  status: ('A' for Active; 'I' for Inactive)
REMARK    1  A    between atoms: C_1  and  O_2
REMARK    2  A    between atoms: O_2  and  C_3
REMARK    3  A    between atoms: C_11  and  C_12
REMARK                            x       y       z     vdW  Elec       q    Type
REMARK                         _______ _______ _______ _____ _____    ______ ____
ROOT
ATOM      1  C   UNL     1       7.323  -4.725  26.656  0.00  0.00    +0.121 A 
ATOM      2  C   UNL     1       7.882  -3.479  26.358  0.00  0.00    +0.056 A 
ATOM      3  C   UNL     1       7.949  -3.092  25.032  0.00  0.00    +0.012 A 
ATOM      4  C   UNL     1       7.445  -3.917  24.027  0.00  0.00    +0.042 A 
ATOM      5  N   UNL     1       7.631  -3.330  22.783  0.00  0.00    -0.281 N 
ATOM      6  H   UNL     1       7.358  -3.729  21.895  0.00  0.00    +0.155 HD
ATOM      7  C   UNL     1       8.258  -2.102  22.891  0.00  0.00    +0.249 C 
ATOM      8  O   UNL     1       8.553  -1.363  21.972  0.00  0.00    -0.270 OA
ATOM      9  C   UNL     1       6.859  -5.137  24.290  0.00  0.00    +0.027 A 
ATOM     10  C   UNL     1       8.496  -1.896  24.368  0.00  0.00    +0.048 C 
ATOM     11  C   UNL     1       9.084  -0.889  25.039  0.00  0.00    +0.041 C 
ATOM     12  C   UNL     1       6.798  -5.535  25.630  0.00  0.00    +0.047 A 
ENDROOT
BRANCH  11  13
ATOM     13  C   UNL     1       9.670   0.294  24.525  0.00  0.00    +0.059 A 
ATOM     14  N   UNL     1       8.973   1.255  23.839  0.00  0.00    -0.345 N 
ATOM     15  H   UNL     1       7.981   1.243  23.623  0.00  0.00    +0.167 HD
ATOM     16  C   UNL     1       9.842   2.244  23.482  0.00  0.00    +0.196 A 
ATOM     17  N   UNL     1      11.060   1.988  23.899  0.00  0.00    -0.244 NA
ATOM     18  C   UNL     1      10.964   0.783  24.547  0.00  0.00    +0.138 A 
ENDBRANCH  11  13
BRANCH   1  20
ATOM     19  C   UNL     1       5.987  -5.889  28.212  0.00  0.00    +0.277 C 
ATOM     20  O   UNL     1       7.224  -5.242  27.922  0.00  0.00    -0.495 OA
ENDBRANCH   1  20
TORSDOF 2
ENDMDL
