MODEL 1
REMARK VINA RESULT:      -7.1      0.000      0.000
REMARK  Name = 
REMARK  11 active torsions:
REMARK  status: ('A' for Active; 'I' for Inactive)
REMARK    1  A    between atoms: C_1  and  C_2
REMARK    2  A    between atoms: C_2  and  C_6
REMARK    3  A    between atoms: C_3  and  C_4
REMARK    4  A    between atoms: C_4  and  O_5
REMARK    5  A    between atoms: C_7  and  C_8
REMARK    6  A    between atoms: C_9  and  C_10
REMARK    7  A    between atoms: C_9  and  C_11
REMARK    8  A    between atoms: C_12  and  C_13
REMARK    9  A    between atoms: C_14  and  C_15
REMARK   10  A    between atoms: C_20  and  C_21
REMARK   11  A    between atoms: C_20  and  C_22
REMARK                            x       y       z     vdW  Elec       q    Type
REMARK                         _______ _______ _______ _____ _____    ______ ____
ROOT
ATOM      1  C   UNL     1       8.322  -1.281  24.200  0.00  0.00    +0.003 C 
ATOM      2  C   UNL     1       8.377  -2.561  23.785  0.00  0.00    +0.005 C 
ENDROOT
BRANCH   2   3
ATOM      3  C   UNL     1       7.537  -3.652  24.291  0.00  0.00    -0.035 C 
ATOM      4  C   UNL     1       6.419  -4.113  23.338  0.00  0.00    -0.009 C 
ATOM      5  C   UNL     1       5.537  -2.904  22.927  0.00  0.00    +0.016 C 
ATOM      6  C   UNL     1       7.033  -4.705  22.043  0.00  0.00    +0.016 C 
ATOM      7  C   UNL     1       5.456  -5.179  23.924  0.00  0.00    +0.019 C 
ATOM      8  C   UNL     1       5.823  -5.868  25.222  0.00  0.00    +0.080 C 
ATOM      9  C   UNL     1       6.977  -5.329  26.012  0.00  0.00    +0.159 C 
ATOM     10  O   UNL     1       7.239  -5.824  27.111  0.00  0.00    -0.292 OA
ATOM     11  C   UNL     1       7.815  -4.222  25.482  0.00  0.00    -0.004 C 
ATOM     12  C   UNL     1       8.980  -3.882  26.383  0.00  0.00    +0.047 C 
ENDBRANCH   2   3
BRANCH   1  14
ATOM     13  C   UNL     1       9.136   1.019  24.318  0.00  0.00    +0.003 C 
ATOM     14  C   UNL     1       9.203  -0.200  23.731  0.00  0.00    -0.050 C 
ATOM     15  C   UNL     1      10.156  -0.560  22.612  0.00  0.00    +0.044 C 
BRANCH  13  17
ATOM     16  C   UNL     1       9.611   3.455  24.021  0.00  0.00    +0.003 C 
ATOM     17  C   UNL     1       9.959   2.160  23.963  0.00  0.00    +0.001 C 
BRANCH  16  19
ATOM     18  C   UNL     1       9.950   5.963  23.708  0.00  0.00    +0.043 C 
ATOM     19  C   UNL     1      10.510   4.559  23.645  0.00  0.00    -0.052 C 
ATOM     20  C   UNL     1      11.770   4.297  23.240  0.00  0.00    +0.004 C 
BRANCH  20  21
ATOM     21  C   UNL     1      12.802   5.303  22.833  0.00  0.00    +0.183 C 
BRANCH  21  22
ATOM     22  O   UNL     1      14.073   4.861  23.286  0.00  0.00    -0.391 OA
ATOM     23  H   UNL     1      13.923   4.031  23.769  0.00  0.00    +0.210 HD
ENDBRANCH  21  22
ENDBRANCH  20  21
ENDBRANCH  16  19
ENDBRANCH  13  17
ENDBRANCH   1  14
TORSDOF 6
ENDMDL
MODEL 2
REMARK VINA RESULT:      -7.1      1.313      2.450
REMARK  Name = 
REMARK  11 active torsions:
REMARK  status: ('A' for Active; 'I' for Inactive)
REMARK    1  A    between atoms: C_1  and  C_2
REMARK    2  A    between atoms: C_2  and  C_6
REMARK    3  A    between atoms: C_3  and  C_4
REMARK    4  A    between atoms: C_4  and  O_5
REMARK    5  A    between atoms: C_7  and  C_8
REMARK    6  A    between atoms: C_9  and  C_10
REMARK    7  A    between atoms: C_9  and  C_11
REMARK    8  A    between atoms: C_12  and  C_13
REMARK    9  A    between atoms: C_14  and  C_15
REMARK   10  A    between atoms: C_20  and  C_21
REMARK   11  A    between atoms: C_20  and  C_22
REMARK                            x       y       z     vdW  Elec       q    Type
REMARK                         _______ _______ _______ _____ _____    ______ ____
ROOT
ATOM      1  C   UNL     1       8.074  -0.916  23.595  0.00  0.00    +0.003 C 
ATOM      2  C   UNL     1       8.333  -2.222  23.396  0.00  0.00    +0.005 C 
ENDROOT
BRANCH   2   3
ATOM      3  C   UNL     1       7.461  -3.330  23.802  0.00  0.00    -0.035 C 
ATOM      4  C   UNL     1       7.860  -4.030  25.114  0.00  0.00    -0.009 C 
ATOM      5  C   UNL     1       9.334  -4.509  25.036  0.00  0.00    +0.016 C 
ATOM      6  C   UNL     1       7.753  -3.038  26.301  0.00  0.00    +0.016 C 
ATOM      7  C   UNL     1       7.012  -5.279  25.475  0.00  0.00    +0.019 C 
ATOM      8  C   UNL     1       5.736  -5.550  24.705  0.00  0.00    +0.080 C 
ATOM      9  C   UNL     1       5.465  -4.743  23.472  0.00  0.00    +0.159 C 
ATOM     10  O   UNL     1       4.474  -5.004  22.785  0.00  0.00    -0.292 OA
ATOM     11  C   UNL     1       6.362  -3.624  23.078  0.00  0.00    -0.004 C 
ATOM     12  C   UNL     1       5.870  -2.877  21.860  0.00  0.00    +0.047 C 
ENDBRANCH   2   3
BRANCH   1  14
ATOM     13  C   UNL     1       9.132   1.229  24.091  0.00  0.00    +0.003 C 
ATOM     14  C   UNL     1       8.975   0.190  23.236  0.00  0.00    -0.050 C 
ATOM     15  C   UNL     1       9.691   0.059  21.909  0.00  0.00    +0.044 C 
BRANCH  13  17
ATOM     16  C   UNL     1       9.648   3.664  23.855  0.00  0.00    +0.003 C 
ATOM     17  C   UNL     1      10.001   2.369  23.866  0.00  0.00    +0.001 C 
BRANCH  16  19
ATOM     18  C   UNL     1      10.074   6.177  23.786  0.00  0.00    +0.043 C 
ATOM     19  C   UNL     1      10.596   4.766  23.622  0.00  0.00    -0.052 C 
ATOM     20  C   UNL     1      11.865   4.500  23.252  0.00  0.00    +0.004 C 
BRANCH  20  21
ATOM     21  C   UNL     1      12.944   5.503  22.985  0.00  0.00    +0.183 C 
BRANCH  21  22
ATOM     22  O   UNL     1      14.203   4.899  23.245  0.00  0.00    -0.391 OA
ATOM     23  H   UNL     1      14.285   4.832  24.211  0.00  0.00    +0.210 HD
ENDBRANCH  21  22
ENDBRANCH  20  21
ENDBRANCH  16  19
ENDBRANCH  13  17
ENDBRANCH   1  14
TORSDOF 6
ENDMDL
MODEL 3
REMARK VINA RESULT:      -6.4      1.648      2.039
REMARK  Name = 
REMARK  11 active torsions:
REMARK  status: ('A' for Active; 'I' for Inactive)
REMARK    1  A    between atoms: C_1  and  C_2
REMARK    2  A    between atoms: C_2  and  C_6
REMARK    3  A    between atoms: C_3  and  C_4
REMARK    4  A    between atoms: C_4  and  O_5
REMARK    5  A    between atoms: C_7  and  C_8
REMARK    6  A    between atoms: C_9  and  C_10
REMARK    7  A    between atoms: C_9  and  C_11
REMARK    8  A    between atoms: C_12  and  C_13
REMARK    9  A    between atoms: C_14  and  C_15
REMARK   10  A    between atoms: C_20  and  C_21
REMARK   11  A    between atoms: C_20  and  C_22
REMARK                            x       y       z     vdW  Elec       q    Type
REMARK                         _______ _______ _______ _____ _____    ______ ____
ROOT
ATOM      1  C   UNL     1       8.490  -1.092  24.197  0.00  0.00    +0.003 C 
ATOM      2  C   UNL     1       8.286  -1.351  25.502  0.00  0.00    +0.005 C 
ENDROOT
BRANCH   2   3
ATOM      3  C   UNL     1       7.449  -2.433  26.031  0.00  0.00    -0.035 C 
ATOM      4  C   UNL     1       6.002  -2.034  26.374  0.00  0.00    -0.009 C 
ATOM      5  C   UNL     1       5.999  -0.829  27.351  0.00  0.00    +0.016 C 
ATOM      6  C   UNL     1       5.251  -1.597  25.089  0.00  0.00    +0.016 C 
ATOM      7  C   UNL     1       5.157  -3.148  27.049  0.00  0.00    +0.019 C 
ATOM      8  C   UNL     1       5.690  -4.565  27.070  0.00  0.00    +0.080 C 
ATOM      9  C   UNL     1       7.111  -4.797  26.654  0.00  0.00    +0.159 C 
ATOM     10  O   UNL     1       7.589  -5.931  26.743  0.00  0.00    -0.292 OA
ATOM     11  C   UNL     1       7.943  -3.686  26.121  0.00  0.00    -0.004 C 
ATOM     12  C   UNL     1       9.313  -4.139  25.674  0.00  0.00    +0.047 C 
ENDBRANCH   2   3
BRANCH   1  14
ATOM     13  C   UNL     1       9.463   1.136  24.426  0.00  0.00    +0.003 C 
ATOM     14  C   UNL     1       9.286   0.027  23.670  0.00  0.00    -0.050 C 
ATOM     15  C   UNL     1       9.878  -0.172  22.291  0.00  0.00    +0.044 C 
BRANCH  13  17
ATOM     16  C   UNL     1       9.836   3.579  24.045  0.00  0.00    +0.003 C 
ATOM     17  C   UNL     1      10.238   2.298  24.032  0.00  0.00    +0.001 C 
BRANCH  16  19
ATOM     18  C   UNL     1      10.050   6.075  23.573  0.00  0.00    +0.043 C 
ATOM     19  C   UNL     1      10.689   4.705  23.632  0.00  0.00    -0.052 C 
ATOM     20  C   UNL     1      11.979   4.491  23.299  0.00  0.00    +0.004 C 
BRANCH  20  21
ATOM     21  C   UNL     1      12.971   5.526  22.867  0.00  0.00    +0.183 C 
BRANCH  21  22
ATOM     22  O   UNL     1      14.280   5.021  23.083  0.00  0.00    -0.391 OA
ATOM     23  H   UNL     1      14.828   5.776  23.357  0.00  0.00    +0.210 HD
ENDBRANCH  21  22
ENDBRANCH  20  21
ENDBRANCH  16  19
ENDBRANCH  13  17
ENDBRANCH   1  14
TORSDOF 6
ENDMDL
MODEL 4
REMARK VINA RESULT:      -6.2      1.970      9.254
REMARK  Name = 
REMARK  11 active torsions:
REMARK  status: ('A' for Active; 'I' for Inactive)
REMARK    1  A    between atoms: C_1  and  C_2
REMARK    2  A    between atoms: C_2  and  C_6
REMARK    3  A    between atoms: C_3  and  C_4
REMARK    4  A    between atoms: C_4  and  O_5
REMARK    5  A    between atoms: C_7  and  C_8
REMARK    6  A    between atoms: C_9  and  C_10
REMARK    7  A    between atoms: C_9  and  C_11
REMARK    8  A    between atoms: C_12  and  C_13
REMARK    9  A    between atoms: C_14  and  C_15
REMARK   10  A    between atoms: C_20  and  C_21
REMARK   11  A    between atoms: C_20  and  C_22
REMARK                            x       y       z     vdW  Elec       q    Type
REMARK                         _______ _______ _______ _____ _____    ______ ____
ROOT
ATOM      1  C   UNL     1       9.894   1.562  23.861  0.00  0.00    +0.003 C 
ATOM      2  C   UNL     1       9.427   2.661  23.237  0.00  0.00    +0.005 C 
ENDROOT
BRANCH   2   3
ATOM      3  C   UNL     1       9.554   4.035  23.735  0.00  0.00    -0.035 C 
ATOM      4  C   UNL     1       8.261   4.647  24.304  0.00  0.00    -0.009 C 
ATOM      5  C   UNL     1       7.122   4.561  23.253  0.00  0.00    +0.016 C 
ATOM      6  C   UNL     1       7.803   3.855  25.556  0.00  0.00    +0.016 C 
ATOM      7  C   UNL     1       8.367   6.140  24.713  0.00  0.00    +0.019 C 
ATOM      8  C   UNL     1       9.734   6.788  24.787  0.00  0.00    +0.080 C 
ATOM      9  C   UNL     1      10.908   6.037  24.235  0.00  0.00    +0.159 C 
ATOM     10  O   UNL     1      12.015   6.581  24.210  0.00  0.00    -0.292 OA
ATOM     11  C   UNL     1      10.758   4.645  23.735  0.00  0.00    -0.004 C 
ATOM     12  C   UNL     1      12.069   4.030  23.304  0.00  0.00    +0.047 C 
ENDBRANCH   2   3
BRANCH   1  14
ATOM     13  C   UNL     1       9.462  -0.805  24.279  0.00  0.00    +0.003 C 
ATOM     14  C   UNL     1       9.718   0.181  23.386  0.00  0.00    -0.050 C 
ATOM     15  C   UNL     1       9.818  -0.025  21.890  0.00  0.00    +0.044 C 
BRANCH  13  17
ATOM     16  C   UNL     1       8.073  -2.837  23.844  0.00  0.00    +0.003 C 
ATOM     17  C   UNL     1       9.250  -2.200  23.941  0.00  0.00    +0.001 C 
BRANCH  16  19
ATOM     18  C   UNL     1       8.574  -5.269  24.423  0.00  0.00    +0.043 C 
ATOM     19  C   UNL     1       7.942  -4.260  23.489  0.00  0.00    -0.052 C 
ATOM     20  C   UNL     1       7.304  -4.620  22.356  0.00  0.00    +0.004 C 
BRANCH  20  21
ATOM     21  C   UNL     1       7.085  -6.016  21.862  0.00  0.00    +0.183 C 
BRANCH  21  22
ATOM     22  O   UNL     1       5.690  -6.285  21.858  0.00  0.00    -0.391 OA
ATOM     23  H   UNL     1       5.395  -6.206  20.935  0.00  0.00    +0.210 HD
ENDBRANCH  21  22
ENDBRANCH  20  21
ENDBRANCH  16  19
ENDBRANCH  13  17
ENDBRANCH   1  14
TORSDOF 6
ENDMDL
MODEL 5
REMARK VINA RESULT:      -6.1      1.781      2.377
REMARK  Name = 
REMARK  11 active torsions:
REMARK  status: ('A' for Active; 'I' for Inactive)
REMARK    1  A    between atoms: C_1  and  C_2
REMARK    2  A    between atoms: C_2  and  C_6
REMARK    3  A    between atoms: C_3  and  C_4
REMARK    4  A    between atoms: C_4  and  O_5
REMARK    5  A    between atoms: C_7  and  C_8
REMARK    6  A    between atoms: C_9  and  C_10
REMARK    7  A    between atoms: C_9  and  C_11
REMARK    8  A    between atoms: C_12  and  C_13
REMARK    9  A    between atoms: C_14  and  C_15
REMARK   10  A    between atoms: C_20  and  C_21
REMARK   11  A    between atoms: C_20  and  C_22
REMARK                            x       y       z     vdW  Elec       q    Type
REMARK                         _______ _______ _______ _____ _____    ______ ____
ROOT
ATOM      1  C   UNL     1       6.764  -2.543  24.447  0.00  0.00    +0.003 C 
ATOM      2  C   UNL     1       7.044  -3.855  24.332  0.00  0.00    +0.005 C 
ENDROOT
BRANCH   2   3
ATOM      3  C   UNL     1       6.165  -4.950  24.758  0.00  0.00    -0.035 C 
ATOM      4  C   UNL     1       5.236  -5.507  23.664  0.00  0.00    -0.009 C 
ATOM      5  C   UNL     1       4.398  -4.359  23.040  0.00  0.00    +0.016 C 
ATOM      6  C   UNL     1       6.076  -6.145  22.527  0.00  0.00    +0.016 C 
ATOM      7  C   UNL     1       4.222  -6.577  24.148  0.00  0.00    +0.019 C 
ATOM      8  C   UNL     1       4.388  -7.178  25.529  0.00  0.00    +0.080 C 
ATOM      9  C   UNL     1       5.377  -6.550  26.463  0.00  0.00    +0.159 C 
ATOM     10  O   UNL     1       5.467  -6.972  27.619  0.00  0.00    -0.292 OA
ATOM     11  C   UNL     1       6.258  -5.441  26.012  0.00  0.00    -0.004 C 
ATOM     12  C   UNL     1       7.245  -5.006  27.070  0.00  0.00    +0.047 C 
ENDBRANCH   2   3
BRANCH   1  14
ATOM     13  C   UNL     1       7.948  -0.471  24.966  0.00  0.00    +0.003 C 
ATOM     14  C   UNL     1       7.670  -1.448  24.070  0.00  0.00    -0.050 C 
ATOM     15  C   UNL     1       8.251  -1.518  22.674  0.00  0.00    +0.044 C 
BRANCH  13  17
ATOM     16  C   UNL     1       8.506   1.847  24.215  0.00  0.00    +0.003 C 
ATOM     17  C   UNL     1       8.836   0.650  24.727  0.00  0.00    +0.001 C 
BRANCH  16  19
ATOM     18  C   UNL     1      10.863   2.559  23.553  0.00  0.00    +0.043 C 
ATOM     19  C   UNL     1       9.471   2.939  24.007  0.00  0.00    -0.052 C 
ATOM     20  C   UNL     1       9.108   4.217  24.245  0.00  0.00    +0.004 C 
BRANCH  20  21
ATOM     21  C   UNL     1       9.967   5.432  24.077  0.00  0.00    +0.183 C 
BRANCH  21  22
ATOM     22  O   UNL     1       9.500   6.168  22.955  0.00  0.00    -0.391 OA
ATOM     23  H   UNL     1       9.801   5.690  22.164  0.00  0.00    +0.210 HD
ENDBRANCH  21  22
ENDBRANCH  20  21
ENDBRANCH  16  19
ENDBRANCH  13  17
ENDBRANCH   1  14
TORSDOF 6
ENDMDL
MODEL 6
REMARK VINA RESULT:      -6.0      1.712      2.204
REMARK  Name = 
REMARK  11 active torsions:
REMARK  status: ('A' for Active; 'I' for Inactive)
REMARK    1  A    between atoms: C_1  and  C_2
REMARK    2  A    between atoms: C_2  and  C_6
REMARK    3  A    between atoms: C_3  and  C_4
REMARK    4  A    between atoms: C_4  and  O_5
REMARK    5  A    between atoms: C_7  and  C_8
REMARK    6  A    between atoms: C_9  and  C_10
REMARK    7  A    between atoms: C_9  and  C_11
REMARK    8  A    between atoms: C_12  and  C_13
REMARK    9  A    between atoms: C_14  and  C_15
REMARK   10  A    between atoms: C_20  and  C_21
REMARK   11  A    between atoms: C_20  and  C_22
REMARK                            x       y       z     vdW  Elec       q    Type
REMARK                         _______ _______ _______ _____ _____    ______ ____
ROOT
ATOM      1  C   UNL     1       7.143  -1.342  24.645  0.00  0.00    +0.003 C 
ATOM      2  C   UNL     1       6.114  -1.870  23.955  0.00  0.00    +0.005 C 
ENDROOT
BRANCH   2   3
ATOM      3  C   UNL     1       5.699  -3.276  23.997  0.00  0.00    -0.035 C 
ATOM      4  C   UNL     1       6.432  -4.205  23.011  0.00  0.00    -0.009 C 
ATOM      5  C   UNL     1       6.308  -3.652  21.566  0.00  0.00    +0.016 C 
ATOM      6  C   UNL     1       7.941  -4.267  23.360  0.00  0.00    +0.016 C 
ATOM      7  C   UNL     1       5.904  -5.664  22.969  0.00  0.00    +0.019 C 
ATOM      8  C   UNL     1       4.943  -6.130  24.042  0.00  0.00    +0.080 C 
ATOM      9  C   UNL     1       4.353  -5.105  24.963  0.00  0.00    +0.159 C 
ATOM     10  O   UNL     1       3.506  -5.452  25.789  0.00  0.00    -0.292 OA
ATOM     11  C   UNL     1       4.788  -3.684  24.904  0.00  0.00    -0.004 C 
ATOM     12  C   UNL     1       4.144  -2.828  25.970  0.00  0.00    +0.047 C 
ENDBRANCH   2   3
BRANCH   1  14
ATOM     13  C   UNL     1       8.903   0.349  24.721  0.00  0.00    +0.003 C 
ATOM     14  C   UNL     1       7.591   0.057  24.559  0.00  0.00    -0.050 C 
ATOM     15  C   UNL     1       6.516   1.081  24.265  0.00  0.00    +0.044 C 
BRANCH  13  17
ATOM     16  C   UNL     1       9.940   2.296  23.543  0.00  0.00    +0.003 C 
ATOM     17  C   UNL     1       9.475   1.680  24.642  0.00  0.00    +0.001 C 
BRANCH  16  19
ATOM     18  C   UNL     1       9.538   4.806  23.735  0.00  0.00    +0.043 C 
ATOM     19  C   UNL     1      10.503   3.656  23.547  0.00  0.00    -0.052 C 
ATOM     20  C   UNL     1      11.826   3.842  23.360  0.00  0.00    +0.004 C 
BRANCH  20  21
ATOM     21  C   UNL     1      12.548   5.154  23.342  0.00  0.00    +0.183 C 
BRANCH  21  22
ATOM     22  O   UNL     1      13.942   4.906  23.227  0.00  0.00    -0.391 OA
ATOM     23  H   UNL     1      14.330   5.092  24.099  0.00  0.00    +0.210 HD
ENDBRANCH  21  22
ENDBRANCH  20  21
ENDBRANCH  16  19
ENDBRANCH  13  17
ENDBRANCH   1  14
TORSDOF 6
ENDMDL
MODEL 7
REMARK VINA RESULT:      -5.8      2.323      9.321
REMARK  Name = 
REMARK  11 active torsions:
REMARK  status: ('A' for Active; 'I' for Inactive)
REMARK    1  A    between atoms: C_1  and  C_2
REMARK    2  A    between atoms: C_2  and  C_6
REMARK    3  A    between atoms: C_3  and  C_4
REMARK    4  A    between atoms: C_4  and  O_5
REMARK    5  A    between atoms: C_7  and  C_8
REMARK    6  A    between atoms: C_9  and  C_10
REMARK    7  A    between atoms: C_9  and  C_11
REMARK    8  A    between atoms: C_12  and  C_13
REMARK    9  A    between atoms: C_14  and  C_15
REMARK   10  A    between atoms: C_20  and  C_21
REMARK   11  A    between atoms: C_20  and  C_22
REMARK                            x       y       z     vdW  Elec       q    Type
REMARK                         _______ _______ _______ _____ _____    ______ ____
ROOT
ATOM      1  C   UNL     1       7.530   0.367  23.834  0.00  0.00    +0.003 C 
ATOM      2  C   UNL     1       8.420   0.966  24.649  0.00  0.00    +0.005 C 
ENDROOT
BRANCH   2   3
ATOM      3  C   UNL     1       9.042   2.272  24.408  0.00  0.00    -0.035 C 
ATOM      4  C   UNL     1      10.313   2.242  23.539  0.00  0.00    -0.009 C 
ATOM      5  C   UNL     1      11.349   1.258  24.145  0.00  0.00    +0.016 C 
ATOM      6  C   UNL     1       9.970   1.741  22.112  0.00  0.00    +0.016 C 
ATOM      7  C   UNL     1      11.038   3.606  23.391  0.00  0.00    +0.019 C 
ATOM      8  C   UNL     1      10.337   4.867  23.851  0.00  0.00    +0.080 C 
ATOM      9  C   UNL     1       9.074   4.729  24.646  0.00  0.00    +0.159 C 
ATOM     10  O   UNL     1       8.533   5.739  25.100  0.00  0.00    -0.292 OA
ATOM     11  C   UNL     1       8.459   3.394  24.879  0.00  0.00    -0.004 C 
ATOM     12  C   UNL     1       7.147   3.474  25.624  0.00  0.00    +0.047 C 
ENDBRANCH   2   3
BRANCH   1  14
ATOM     13  C   UNL     1       7.546  -2.053  23.504  0.00  0.00    +0.003 C 
ATOM     14  C   UNL     1       6.949  -0.967  24.051  0.00  0.00    -0.050 C 
ATOM     15  C   UNL     1       5.706  -1.017  24.914  0.00  0.00    +0.044 C 
BRANCH  13  17
ATOM     16  C   UNL     1       6.187  -4.060  22.891  0.00  0.00    +0.003 C 
ATOM     17  C   UNL     1       7.086  -3.421  23.656  0.00  0.00    +0.001 C 
BRANCH  16  19
ATOM     18  C   UNL     1       6.318  -6.498  22.155  0.00  0.00    +0.043 C 
ATOM     19  C   UNL     1       5.776  -5.457  23.110  0.00  0.00    -0.052 C 
ATOM     20  C   UNL     1       4.928  -5.763  24.113  0.00  0.00    +0.004 C 
BRANCH  20  21
ATOM     21  C   UNL     1       4.423  -7.128  24.467  0.00  0.00    +0.183 C 
BRANCH  21  22
ATOM     22  O   UNL     1       3.386  -7.479  23.563  0.00  0.00    -0.391 OA
ATOM     23  H   UNL     1       2.878  -8.193  23.985  0.00  0.00    +0.210 HD
ENDBRANCH  21  22
ENDBRANCH  20  21
ENDBRANCH  16  19
ENDBRANCH  13  17
ENDBRANCH   1  14
TORSDOF 6
ENDMDL
MODEL 8
REMARK VINA RESULT:      -5.7      3.096      9.804
REMARK  Name = 
REMARK  11 active torsions:
REMARK  status: ('A' for Active; 'I' for Inactive)
REMARK    1  A    between atoms: C_1  and  C_2
REMARK    2  A    between atoms: C_2  and  C_6
REMARK    3  A    between atoms: C_3  and  C_4
REMARK    4  A    between atoms: C_4  and  O_5
REMARK    5  A    between atoms: C_7  and  C_8
REMARK    6  A    between atoms: C_9  and  C_10
REMARK    7  A    between atoms: C_9  and  C_11
REMARK    8  A    between atoms: C_12  and  C_13
REMARK    9  A    between atoms: C_14  and  C_15
REMARK   10  A    between atoms: C_20  and  C_21
REMARK   11  A    between atoms: C_20  and  C_22
REMARK                            x       y       z     vdW  Elec       q    Type
REMARK                         _______ _______ _______ _____ _____    ______ ____
ROOT
ATOM      1  C   UNL     1       6.551  -1.896  23.828  0.00  0.00    +0.003 C 
ATOM      2  C   UNL     1       6.953  -0.880  23.042  0.00  0.00    +0.005 C 
ENDROOT
BRANCH   2   3
ATOM      3  C   UNL     1       7.802   0.238  23.469  0.00  0.00    -0.035 C 
ATOM      4  C   UNL     1       9.268   0.161  23.006  0.00  0.00    -0.009 C 
ATOM      5  C   UNL     1       9.897  -1.188  23.447  0.00  0.00    +0.016 C 
ATOM      6  C   UNL     1       9.342   0.228  21.459  0.00  0.00    +0.016 C 
ATOM      7  C   UNL     1      10.190   1.278  23.564  0.00  0.00    +0.019 C 
ATOM      8  C   UNL     1       9.567   2.468  24.263  0.00  0.00    +0.080 C 
ATOM      9  C   UNL     1       8.108   2.410  24.600  0.00  0.00    +0.159 C 
ATOM     10  O   UNL     1       7.599   3.333  25.241  0.00  0.00    -0.292 OA
ATOM     11  C   UNL     1       7.265   1.267  24.157  0.00  0.00    -0.004 C 
ATOM     12  C   UNL     1       5.808   1.437  24.516  0.00  0.00    +0.047 C 
ENDBRANCH   2   3
BRANCH   1  14
ATOM     13  C   UNL     1       4.726  -3.456  24.277  0.00  0.00    +0.003 C 
ATOM     14  C   UNL     1       5.656  -2.987  23.411  0.00  0.00    -0.050 C 
ATOM     15  C   UNL     1       5.840  -3.492  21.996  0.00  0.00    +0.044 C 
BRANCH  13  17
ATOM     16  C   UNL     1       3.784  -5.764  24.466  0.00  0.00    +0.003 C 
ATOM     17  C   UNL     1       3.774  -4.511  23.985  0.00  0.00    +0.001 C 
BRANCH  16  19
ATOM     18  C   UNL     1       1.924  -6.524  22.896  0.00  0.00    +0.043 C 
ATOM     19  C   UNL     1       2.773  -6.778  24.123  0.00  0.00    -0.052 C 
ATOM     20  C   UNL     1       2.614  -7.867  24.903  0.00  0.00    +0.004 C 
BRANCH  20  21
ATOM     21  C   UNL     1       1.641  -8.983  24.686  0.00  0.00    +0.183 C 
BRANCH  21  22
ATOM     22  O   UNL     1       2.157 -10.162  25.288  0.00  0.00    -0.391 OA
ATOM     23  H   UNL     1       2.219 -10.829  24.583  0.00  0.00    +0.210 HD
ENDBRANCH  21  22
ENDBRANCH  20  21
ENDBRANCH  16  19
ENDBRANCH  13  17
ENDBRANCH   1  14
TORSDOF 6
ENDMDL
MODEL 9
REMARK VINA RESULT:      -5.6      2.293      9.372
REMARK  Name = 
REMARK  11 active torsions:
REMARK  status: ('A' for Active; 'I' for Inactive)
REMARK    1  A    between atoms: C_1  and  C_2
REMARK    2  A    between atoms: C_2  and  C_6
REMARK    3  A    between atoms: C_3  and  C_4
REMARK    4  A    between atoms: C_4  and  O_5
REMARK    5  A    between atoms: C_7  and  C_8
REMARK    6  A    between atoms: C_9  and  C_10
REMARK    7  A    between atoms: C_9  and  C_11
REMARK    8  A    between atoms: C_12  and  C_13
REMARK    9  A    between atoms: C_14  and  C_15
REMARK   10  A    between atoms: C_20  and  C_21
REMARK   11  A    between atoms: C_20  and  C_22
REMARK                            x       y       z     vdW  Elec       q    Type
REMARK                         _______ _______ _______ _____ _____    ______ ____
ROOT
ATOM      1  C   UNL     1       7.360   1.189  23.567  0.00  0.00    +0.003 C 
ATOM      2  C   UNL     1       8.019   1.878  24.518  0.00  0.00    +0.005 C 
ENDROOT
BRANCH   2   3
ATOM      3  C   UNL     1       8.700   3.162  24.315  0.00  0.00    -0.035 C 
ATOM      4  C   UNL     1       7.885   4.405  24.716  0.00  0.00    -0.009 C 
ATOM      5  C   UNL     1       6.516   4.404  23.985  0.00  0.00    +0.016 C 
ATOM      6  C   UNL     1       7.602   4.387  26.240  0.00  0.00    +0.016 C 
ATOM      7  C   UNL     1       8.558   5.764  24.385  0.00  0.00    +0.019 C 
ATOM      8  C   UNL     1      10.014   5.783  23.969  0.00  0.00    +0.080 C 
ATOM      9  C   UNL     1      10.683   4.477  23.663  0.00  0.00    +0.159 C 
ATOM     10  O   UNL     1      11.843   4.477  23.243  0.00  0.00    -0.292 OA
ATOM     11  C   UNL     1       9.975   3.187  23.874  0.00  0.00    -0.004 C 
ATOM     12  C   UNL     1      10.846   1.985  23.594  0.00  0.00    +0.047 C 
ENDBRANCH   2   3
BRANCH   1  14
ATOM     13  C   UNL     1       7.086  -1.163  22.969  0.00  0.00    +0.003 C 
ATOM     14  C   UNL     1       6.725  -0.124  23.759  0.00  0.00    -0.050 C 
ATOM     15  C   UNL     1       5.707  -0.211  24.876  0.00  0.00    +0.044 C 
BRANCH  13  17
ATOM     16  C   UNL     1       6.974  -3.596  22.403  0.00  0.00    +0.003 C 
ATOM     17  C   UNL     1       6.552  -2.509  23.068  0.00  0.00    +0.001 C 
BRANCH  16  19
ATOM     18  C   UNL     1       6.848  -6.020  21.622  0.00  0.00    +0.043 C 
ATOM     19  C   UNL     1       6.379  -4.933  22.564  0.00  0.00    -0.052 C 
ATOM     20  C   UNL     1       5.435  -5.144  23.504  0.00  0.00    +0.004 C 
BRANCH  20  21
ATOM     21  C   UNL     1       4.742  -6.440  23.794  0.00  0.00    +0.183 C 
BRANCH  21  22
ATOM     22  O   UNL     1       3.648  -6.582  22.899  0.00  0.00    -0.391 OA
ATOM     23  H   UNL     1       2.871  -6.797  23.442  0.00  0.00    +0.210 HD
ENDBRANCH  21  22
ENDBRANCH  20  21
ENDBRANCH  16  19
ENDBRANCH  13  17
ENDBRANCH   1  14
TORSDOF 6
ENDMDL
