MODEL 1
REMARK VINA RESULT:      -7.5      0.000      0.000
REMARK  Name = 
REMARK  3 active torsions:
REMARK  status: ('A' for Active; 'I' for Inactive)
REMARK    1  A    between atoms: C_1  and  C_2
REMARK    2  A    between atoms: C_3  and  S_12
REMARK    3  A    between atoms: S_12  and  C_15
REMARK                            x       y       z     vdW  Elec       q    Type
REMARK                         _______ _______ _______ _____ _____    ______ ____
ROOT
ATOM      1  C   UNL     1       6.921  -1.805  25.812  0.00  0.00    +0.050 C 
ATOM      2  C   UNL     1       7.960  -2.030  24.772  0.00  0.00    +0.022 A 
ATOM      3  C   UNL     1       8.335  -1.113  23.750  0.00  0.00    +0.026 A 
ATOM      4  C   UNL     1       9.334  -1.741  23.024  0.00  0.00    +0.138 A 
ATOM      5  C   UNL     1       9.972  -1.170  21.923  0.00  0.00    +0.048 A 
ATOM      6  C   UNL     1       9.557   0.117  21.555  0.00  0.00    +0.023 A 
ATOM      7  C   UNL     1       8.556   0.779  22.269  0.00  0.00    +0.042 A 
ATOM      8 CL   UNL     1       8.078   2.363  21.791  0.00  0.00    -0.084 Cl
ATOM      9  O   UNL     1       9.596  -2.969  23.544  0.00  0.00    -0.437 OA
ATOM     10  C   UNL     1       7.931   0.181  23.370  0.00  0.00    +0.032 A 
ATOM     11  C   UNL     1       8.754  -3.173  24.617  0.00  0.00    +0.252 A 
ENDROOT
BRANCH  11  12
ATOM     12  S   UNL     1       8.769  -4.666  25.597  0.00  0.00    +0.077 S 
ATOM     13  O   UNL     1       9.103  -4.246  26.945  0.00  0.00    -0.160 OA
ATOM     14  O   UNL     1       9.617  -5.583  24.856  0.00  0.00    -0.160 OA
BRANCH  12  15
ATOM     15  C   UNL     1       7.153  -5.409  25.672  0.00  0.00    +0.205 A 
ATOM     16  C   UNL     1       6.345  -5.343  24.425  0.00  0.00    +0.055 A 
ATOM     17  C   UNL     1       5.171  -5.978  24.412  0.00  0.00    +0.075 A 
ATOM     18  C   UNL     1       4.707  -6.699  25.611  0.00  0.00    +0.265 A 
ATOM     19  O   UNL     1       3.645  -7.307  25.603  0.00  0.00    -0.266 OA
ATOM     20  N   UNL     1       5.533  -6.628  26.708  0.00  0.00    -0.241 N 
ATOM     21  H   UNL     1       5.235  -7.125  27.542  0.00  0.00    +0.192 HD
ATOM     22  N   UNL     1       6.763  -6.019  26.755  0.00  0.00    -0.152 NA
ENDBRANCH  12  15
ENDBRANCH  11  12
TORSDOF 2
ENDMDL
MODEL 2
REMARK VINA RESULT:      -7.3      2.757      2.976
REMARK  Name = 
REMARK  3 active torsions:
REMARK  status: ('A' for Active; 'I' for Inactive)
REMARK    1  A    between atoms: C_1  and  C_2
REMARK    2  A    between atoms: C_3  and  S_12
REMARK    3  A    between atoms: S_12  and  C_15
REMARK                            x       y       z     vdW  Elec       q    Type
REMARK                         _______ _______ _______ _____ _____    ______ ____
ROOT
ATOM      1  C   UNL     1       9.067  -0.638  26.674  0.00  0.00    +0.050 C 
ATOM      2  C   UNL     1       9.131  -0.711  25.190  0.00  0.00    +0.022 A 
ATOM      3  C   UNL     1       9.547   0.334  24.316  0.00  0.00    +0.026 A 
ATOM      4  C   UNL     1       9.450  -0.181  23.034  0.00  0.00    +0.138 A 
ATOM      5  C   UNL     1       9.767   0.537  21.881  0.00  0.00    +0.048 A 
ATOM      6  C   UNL     1      10.209   1.854  22.063  0.00  0.00    +0.023 A 
ATOM      7  C   UNL     1      10.322   2.401  23.343  0.00  0.00    +0.042 A 
ATOM      8 CL   UNL     1      10.876   4.022  23.527  0.00  0.00    -0.084 Cl
ATOM      9  O   UNL     1       9.015  -1.468  23.073  0.00  0.00    -0.437 OA
ATOM     10  C   UNL     1       9.996   1.658  24.484  0.00  0.00    +0.032 A 
ATOM     11  C   UNL     1       8.803  -1.814  24.391  0.00  0.00    +0.252 A 
ENDROOT
BRANCH  11  12
ATOM     12  S   UNL     1       8.231  -3.428  24.895  0.00  0.00    +0.077 S 
ATOM     13  O   UNL     1       7.189  -3.186  25.877  0.00  0.00    -0.160 OA
ATOM     14  O   UNL     1       9.440  -4.156  25.237  0.00  0.00    -0.160 OA
BRANCH  12  15
ATOM     15  C   UNL     1       7.472  -4.300  23.541  0.00  0.00    +0.205 A 
ATOM     16  C   UNL     1       6.292  -3.641  22.920  0.00  0.00    +0.055 A 
ATOM     17  C   UNL     1       5.759  -4.214  21.838  0.00  0.00    +0.075 A 
ATOM     18  C   UNL     1       6.330  -5.465  21.308  0.00  0.00    +0.265 A 
ATOM     19  O   UNL     1       5.868  -5.986  20.300  0.00  0.00    -0.266 OA
ATOM     20  N   UNL     1       7.386  -5.988  22.016  0.00  0.00    -0.241 N 
ATOM     21  H   UNL     1       7.799  -6.846  21.663  0.00  0.00    +0.192 HD
ATOM     22  N   UNL     1       7.987  -5.415  23.110  0.00  0.00    -0.152 NA
ENDBRANCH  12  15
ENDBRANCH  11  12
TORSDOF 2
ENDMDL
MODEL 3
REMARK VINA RESULT:      -7.2      1.970      2.423
REMARK  Name = 
REMARK  3 active torsions:
REMARK  status: ('A' for Active; 'I' for Inactive)
REMARK    1  A    between atoms: C_1  and  C_2
REMARK    2  A    between atoms: C_3  and  S_12
REMARK    3  A    between atoms: S_12  and  C_15
REMARK                            x       y       z     vdW  Elec       q    Type
REMARK                         _______ _______ _______ _____ _____    ______ ____
ROOT
ATOM      1  C   UNL     1       5.658  -1.801  24.584  0.00  0.00    +0.050 C 
ATOM      2  C   UNL     1       6.780  -1.931  23.617  0.00  0.00    +0.022 A 
ATOM      3  C   UNL     1       7.543  -0.859  23.070  0.00  0.00    +0.026 A 
ATOM      4  C   UNL     1       8.473  -1.447  22.228  0.00  0.00    +0.138 A 
ATOM      5  C   UNL     1       9.416  -0.732  21.490  0.00  0.00    +0.048 A 
ATOM      6  C   UNL     1       9.398   0.662  21.633  0.00  0.00    +0.023 A 
ATOM      7  C   UNL     1       8.476   1.285  22.477  0.00  0.00    +0.042 A 
ATOM      8 CL   UNL     1       8.490   3.000  22.632  0.00  0.00    -0.084 Cl
ATOM      9  O   UNL     1       8.331  -2.799  22.236  0.00  0.00    -0.437 OA
ATOM     10  C   UNL     1       7.539   0.542  23.205  0.00  0.00    +0.032 A 
ATOM     11  C   UNL     1       7.287  -3.119  23.079  0.00  0.00    +0.252 A 
ENDROOT
BRANCH  11  12
ATOM     12  S   UNL     1       6.765  -4.799  23.387  0.00  0.00    +0.077 S 
ATOM     13  O   UNL     1       7.749  -5.641  22.733  0.00  0.00    -0.160 OA
ATOM     14  O   UNL     1       5.366  -4.825  22.999  0.00  0.00    -0.160 OA
BRANCH  12  15
ATOM     15  C   UNL     1       6.824  -5.188  25.123  0.00  0.00    +0.205 A 
ATOM     16  C   UNL     1       5.511  -5.416  25.785  0.00  0.00    +0.055 A 
ATOM     17  C   UNL     1       5.520  -5.811  27.061  0.00  0.00    +0.075 A 
ATOM     18  C   UNL     1       6.799  -5.990  27.770  0.00  0.00    +0.265 A 
ATOM     19  O   UNL     1       6.822  -6.377  28.932  0.00  0.00    -0.266 OA
ATOM     20  N   UNL     1       7.930  -5.690  27.048  0.00  0.00    -0.241 N 
ATOM     21  H   UNL     1       8.823  -5.815  27.516  0.00  0.00    +0.192 HD
ATOM     22  N   UNL     1       7.970  -5.318  25.727  0.00  0.00    -0.152 NA
ENDBRANCH  12  15
ENDBRANCH  11  12
TORSDOF 2
ENDMDL
MODEL 4
REMARK VINA RESULT:      -7.1      2.944      4.401
REMARK  Name = 
REMARK  3 active torsions:
REMARK  status: ('A' for Active; 'I' for Inactive)
REMARK    1  A    between atoms: C_1  and  C_2
REMARK    2  A    between atoms: C_3  and  S_12
REMARK    3  A    between atoms: S_12  and  C_15
REMARK                            x       y       z     vdW  Elec       q    Type
REMARK                         _______ _______ _______ _____ _____    ______ ____
ROOT
ATOM      1  C   UNL     1      10.940   0.655  24.514  0.00  0.00    +0.050 C 
ATOM      2  C   UNL     1       9.775   0.949  23.637  0.00  0.00    +0.022 A 
ATOM      3  C   UNL     1       9.158   2.221  23.462  0.00  0.00    +0.026 A 
ATOM      4  C   UNL     1       8.126   2.021  22.559  0.00  0.00    +0.138 A 
ATOM      5  C   UNL     1       7.268   3.030  22.122  0.00  0.00    +0.048 A 
ATOM      6  C   UNL     1       7.490   4.311  22.643  0.00  0.00    +0.023 A 
ATOM      7  C   UNL     1       8.525   4.547  23.551  0.00  0.00    +0.042 A 
ATOM      8 CL   UNL     1       8.770   6.138  24.165  0.00  0.00    -0.084 Cl
ATOM      9  O   UNL     1       8.085   0.720  22.169  0.00  0.00    -0.437 OA
ATOM     10  C   UNL     1       9.370   3.514  23.974  0.00  0.00    +0.032 A 
ATOM     11  C   UNL     1       9.086   0.038  22.827  0.00  0.00    +0.252 A 
ENDROOT
BRANCH  11  12
ATOM     12  S   UNL     1       9.391  -1.707  22.599  0.00  0.00    +0.077 S 
ATOM     13  O   UNL     1      10.809  -1.823  22.311  0.00  0.00    -0.160 OA
ATOM     14  O   UNL     1       8.385  -2.132  21.640  0.00  0.00    -0.160 OA
BRANCH  12  15
ATOM     15  C   UNL     1       9.091  -2.620  24.097  0.00  0.00    +0.205 A 
ATOM     16  C   UNL     1       8.142  -2.001  25.060  0.00  0.00    +0.055 A 
ATOM     17  C   UNL     1       7.813  -2.703  26.147  0.00  0.00    +0.075 A 
ATOM     18  C   UNL     1       8.399  -4.037  26.369  0.00  0.00    +0.265 A 
ATOM     19  O   UNL     1       8.086  -4.703  27.348  0.00  0.00    -0.266 OA
ATOM     20  N   UNL     1       9.303  -4.459  25.423  0.00  0.00    -0.241 N 
ATOM     21  H   UNL     1       9.712  -5.379  25.553  0.00  0.00    +0.192 HD
ATOM     22  N   UNL     1       9.642  -3.786  24.274  0.00  0.00    -0.152 NA
ENDBRANCH  12  15
ENDBRANCH  11  12
TORSDOF 2
ENDMDL
MODEL 5
REMARK VINA RESULT:      -7.0      3.670      6.821
REMARK  Name = 
REMARK  3 active torsions:
REMARK  status: ('A' for Active; 'I' for Inactive)
REMARK    1  A    between atoms: C_1  and  C_2
REMARK    2  A    between atoms: C_3  and  S_12
REMARK    3  A    between atoms: S_12  and  C_15
REMARK                            x       y       z     vdW  Elec       q    Type
REMARK                         _______ _______ _______ _____ _____    ______ ____
ROOT
ATOM      1  C   UNL     1       7.228  -5.020  22.452  0.00  0.00    +0.050 C 
ATOM      2  C   UNL     1       6.842  -5.187  23.879  0.00  0.00    +0.022 A 
ATOM      3  C   UNL     1       5.692  -5.876  24.361  0.00  0.00    +0.026 A 
ATOM      4  C   UNL     1       5.743  -5.780  25.741  0.00  0.00    +0.138 A 
ATOM      5  C   UNL     1       4.785  -6.327  26.595  0.00  0.00    +0.048 A 
ATOM      6  C   UNL     1       3.723  -7.011  25.990  0.00  0.00    +0.023 A 
ATOM      7  C   UNL     1       3.646  -7.131  24.600  0.00  0.00    +0.042 A 
ATOM      8 CL   UNL     1       2.328  -7.986  23.894  0.00  0.00    -0.084 Cl
ATOM      9  O   UNL     1       6.848  -5.090  26.128  0.00  0.00    -0.437 OA
ATOM     10  C   UNL     1       4.621  -6.569  23.767  0.00  0.00    +0.032 A 
ATOM     11  C   UNL     1       7.537  -4.707  24.996  0.00  0.00    +0.252 A 
ENDROOT
BRANCH  11  12
ATOM     12  S   UNL     1       9.062  -3.780  25.050  0.00  0.00    +0.077 S 
ATOM     13  O   UNL     1      10.114  -4.740  24.772  0.00  0.00    -0.160 OA
ATOM     14  O   UNL     1       9.007  -3.056  26.309  0.00  0.00    -0.160 OA
BRANCH  12  15
ATOM     15  C   UNL     1       9.124  -2.557  23.758  0.00  0.00    +0.205 A 
ATOM     16  C   UNL     1       7.980  -1.608  23.701  0.00  0.00    +0.055 A 
ATOM     17  C   UNL     1       8.042  -0.614  22.812  0.00  0.00    +0.075 A 
ATOM     18  C   UNL     1       9.206  -0.494  21.917  0.00  0.00    +0.265 A 
ATOM     19  O   UNL     1       9.287   0.428  21.115  0.00  0.00    -0.266 OA
ATOM     20  N   UNL     1      10.162  -1.474  22.045  0.00  0.00    -0.241 N 
ATOM     21  H   UNL     1      10.977  -1.405  21.442  0.00  0.00    +0.192 HD
ATOM     22  N   UNL     1      10.157  -2.491  22.968  0.00  0.00    -0.152 NA
ENDBRANCH  12  15
ENDBRANCH  11  12
TORSDOF 2
ENDMDL
MODEL 6
REMARK VINA RESULT:      -7.0      4.444      6.861
REMARK  Name = 
REMARK  3 active torsions:
REMARK  status: ('A' for Active; 'I' for Inactive)
REMARK    1  A    between atoms: C_1  and  C_2
REMARK    2  A    between atoms: C_3  and  S_12
REMARK    3  A    between atoms: S_12  and  C_15
REMARK                            x       y       z     vdW  Elec       q    Type
REMARK                         _______ _______ _______ _____ _____    ______ ____
ROOT
ATOM      1  C   UNL     1       8.216  -2.772  25.871  0.00  0.00    +0.050 C 
ATOM      2  C   UNL     1       7.941  -3.165  24.464  0.00  0.00    +0.022 A 
ATOM      3  C   UNL     1       7.037  -4.180  24.038  0.00  0.00    +0.026 A 
ATOM      4  C   UNL     1       7.103  -4.193  22.655  0.00  0.00    +0.138 A 
ATOM      5  C   UNL     1       6.364  -5.057  21.848  0.00  0.00    +0.048 A 
ATOM      6  C   UNL     1       5.510  -5.953  22.506  0.00  0.00    +0.023 A 
ATOM      7  C   UNL     1       5.417  -5.962  23.899  0.00  0.00    +0.042 A 
ATOM      8 CL   UNL     1       4.351  -7.074  24.671  0.00  0.00    -0.084 Cl
ATOM      9  O   UNL     1       7.976  -3.248  22.215  0.00  0.00    -0.437 OA
ATOM     10  C   UNL     1       6.173  -5.084  24.685  0.00  0.00    +0.032 A 
ATOM     11  C   UNL     1       8.512  -2.608  23.313  0.00  0.00    +0.252 A 
ENDROOT
BRANCH  11  12
ATOM     12  S   UNL     1       9.704  -1.286  23.184  0.00  0.00    +0.077 S 
ATOM     13  O   UNL     1      10.631  -1.694  22.143  0.00  0.00    -0.160 OA
ATOM     14  O   UNL     1      10.149  -1.058  24.548  0.00  0.00    -0.160 OA
BRANCH  12  15
ATOM     15  C   UNL     1       8.942   0.225  22.633  0.00  0.00    +0.205 A 
ATOM     16  C   UNL     1       7.527   0.429  23.043  0.00  0.00    +0.055 A 
ATOM     17  C   UNL     1       6.953   1.596  22.737  0.00  0.00    +0.075 A 
ATOM     18  C   UNL     1       7.714   2.622  22.001  0.00  0.00    +0.265 A 
ATOM     19  O   UNL     1       7.209   3.705  21.737  0.00  0.00    -0.266 OA
ATOM     20  N   UNL     1       8.994   2.273  21.640  0.00  0.00    -0.241 N 
ATOM     21  H   UNL     1       9.538   2.969  21.138  0.00  0.00    +0.192 HD
ATOM     22  N   UNL     1       9.634   1.102  21.965  0.00  0.00    -0.152 NA
ENDBRANCH  12  15
ENDBRANCH  11  12
TORSDOF 2
ENDMDL
MODEL 7
REMARK VINA RESULT:      -6.7      2.783      3.132
REMARK  Name = 
REMARK  3 active torsions:
REMARK  status: ('A' for Active; 'I' for Inactive)
REMARK    1  A    between atoms: C_1  and  C_2
REMARK    2  A    between atoms: C_3  and  S_12
REMARK    3  A    between atoms: S_12  and  C_15
REMARK                            x       y       z     vdW  Elec       q    Type
REMARK                         _______ _______ _______ _____ _____    ______ ____
ROOT
ATOM      1  C   UNL     1       7.933  -4.248  24.984  0.00  0.00    +0.050 C 
ATOM      2  C   UNL     1       8.059  -3.461  23.728  0.00  0.00    +0.022 A 
ATOM      3  C   UNL     1       8.813  -2.264  23.562  0.00  0.00    +0.026 A 
ATOM      4  C   UNL     1       8.645  -1.890  22.239  0.00  0.00    +0.138 A 
ATOM      5  C   UNL     1       9.224  -0.755  21.671  0.00  0.00    +0.048 A 
ATOM      6  C   UNL     1      10.020   0.031  22.514  0.00  0.00    +0.023 A 
ATOM      7  C   UNL     1      10.214  -0.322  23.851  0.00  0.00    +0.042 A 
ATOM      8 CL   UNL     1      11.206   0.667  24.855  0.00  0.00    -0.084 Cl
ATOM      9  O   UNL     1       7.851  -2.783  21.592  0.00  0.00    -0.437 OA
ATOM     10  C   UNL     1       9.619  -1.466  24.396  0.00  0.00    +0.032 A 
ATOM     11  C   UNL     1       7.470  -3.756  22.493  0.00  0.00    +0.252 A 
ENDROOT
BRANCH  11  12
ATOM     12  S   UNL     1       6.422  -5.134  22.054  0.00  0.00    +0.077 S 
ATOM     13  O   UNL     1       7.243  -6.319  22.222  0.00  0.00    -0.160 OA
ATOM     14  O   UNL     1       5.865  -4.774  20.762  0.00  0.00    -0.160 OA
BRANCH  12  15
ATOM     15  C   UNL     1       5.052  -5.291  23.179  0.00  0.00    +0.205 A 
ATOM     16  C   UNL     1       4.972  -6.569  23.936  0.00  0.00    +0.055 A 
ATOM     17  C   UNL     1       4.018  -6.682  24.863  0.00  0.00    +0.075 A 
ATOM     18  C   UNL     1       3.078  -5.571  25.096  0.00  0.00    +0.265 A 
ATOM     19  O   UNL     1       2.215  -5.653  25.961  0.00  0.00    -0.266 OA
ATOM     20  N   UNL     1       3.237  -4.473  24.284  0.00  0.00    -0.241 N 
ATOM     21  H   UNL     1       2.604  -3.693  24.434  0.00  0.00    +0.192 HD
ATOM     22  N   UNL     1       4.225  -4.299  23.346  0.00  0.00    -0.152 NA
ENDBRANCH  12  15
ENDBRANCH  11  12
TORSDOF 2
ENDMDL
MODEL 8
REMARK VINA RESULT:      -6.5      4.013      6.794
REMARK  Name = 
REMARK  3 active torsions:
REMARK  status: ('A' for Active; 'I' for Inactive)
REMARK    1  A    between atoms: C_1  and  C_2
REMARK    2  A    between atoms: C_3  and  S_12
REMARK    3  A    between atoms: S_12  and  C_15
REMARK                            x       y       z     vdW  Elec       q    Type
REMARK                         _______ _______ _______ _____ _____    ______ ____
ROOT
ATOM      1  C   UNL     1       8.392  -2.961  25.977  0.00  0.00    +0.050 C 
ATOM      2  C   UNL     1       7.799  -3.546  24.746  0.00  0.00    +0.022 A 
ATOM      3  C   UNL     1       6.784  -4.544  24.697  0.00  0.00    +0.026 A 
ATOM      4  C   UNL     1       6.544  -4.776  23.353  0.00  0.00    +0.138 A 
ATOM      5  C   UNL     1       5.611  -5.698  22.877  0.00  0.00    +0.048 A 
ATOM      6  C   UNL     1       4.888  -6.412  23.840  0.00  0.00    +0.023 A 
ATOM      7  C   UNL     1       5.102  -6.198  25.203  0.00  0.00    +0.042 A 
ATOM      8 CL   UNL     1       4.188  -7.092  26.358  0.00  0.00    -0.084 Cl
ATOM      9  O   UNL     1       7.336  -3.981  22.586  0.00  0.00    -0.437 OA
ATOM     10  C   UNL     1       6.047  -5.268  25.653  0.00  0.00    +0.032 A 
ATOM     11  C   UNL     1       8.125  -3.220  23.424  0.00  0.00    +0.252 A 
ENDROOT
BRANCH  11  12
ATOM     12  S   UNL     1       9.313  -2.028  22.826  0.00  0.00    +0.077 S 
ATOM     13  O   UNL     1       9.009  -1.844  21.419  0.00  0.00    -0.160 OA
ATOM     14  O   UNL     1      10.600  -2.541  23.264  0.00  0.00    -0.160 OA
BRANCH  12  15
ATOM     15  C   UNL     1       9.096  -0.446  23.612  0.00  0.00    +0.205 A 
ATOM     16  C   UNL     1      10.340   0.321  23.888  0.00  0.00    +0.055 A 
ATOM     17  C   UNL     1      10.212   1.555  24.383  0.00  0.00    +0.075 A 
ATOM     18  C   UNL     1       8.873   2.107  24.653  0.00  0.00    +0.265 A 
ATOM     19  O   UNL     1       8.740   3.246  25.082  0.00  0.00    -0.266 OA
ATOM     20  N   UNL     1       7.817   1.264  24.401  0.00  0.00    -0.241 N 
ATOM     21  H   UNL     1       6.884   1.628  24.574  0.00  0.00    +0.192 HD
ATOM     22  N   UNL     1       7.900   0.004  23.860  0.00  0.00    -0.152 NA
ENDBRANCH  12  15
ENDBRANCH  11  12
TORSDOF 2
ENDMDL
MODEL 9
REMARK VINA RESULT:      -6.4      2.765      3.480
REMARK  Name = 
REMARK  3 active torsions:
REMARK  status: ('A' for Active; 'I' for Inactive)
REMARK    1  A    between atoms: C_1  and  C_2
REMARK    2  A    between atoms: C_3  and  S_12
REMARK    3  A    between atoms: S_12  and  C_15
REMARK                            x       y       z     vdW  Elec       q    Type
REMARK                         _______ _______ _______ _____ _____    ______ ____
ROOT
ATOM      1  C   UNL     1      10.700   0.469  24.915  0.00  0.00    +0.050 C 
ATOM      2  C   UNL     1       9.408   0.483  24.179  0.00  0.00    +0.022 A 
ATOM      3  C   UNL     1       8.748   1.637  23.667  0.00  0.00    +0.026 A 
ATOM      4  C   UNL     1       7.592   1.176  23.060  0.00  0.00    +0.138 A 
ATOM      5  C   UNL     1       6.659   2.002  22.435  0.00  0.00    +0.048 A 
ATOM      6  C   UNL     1       6.936   3.375  22.435  0.00  0.00    +0.023 A 
ATOM      7  C   UNL     1       8.096   3.872  23.035  0.00  0.00    +0.042 A 
ATOM      8 CL   UNL     1       8.406   5.566  23.009  0.00  0.00    -0.084 Cl
ATOM      9  O   UNL     1       7.513  -0.177  23.160  0.00  0.00    -0.437 OA
ATOM     10  C   UNL     1       9.015   3.020  23.657  0.00  0.00    +0.032 A 
ATOM     11  C   UNL     1       8.618  -0.626  23.854  0.00  0.00    +0.252 A 
ENDROOT
BRANCH  11  12
ATOM     12  S   UNL     1       8.914  -2.351  24.205  0.00  0.00    +0.077 S 
ATOM     13  O   UNL     1       8.938  -2.458  25.652  0.00  0.00    -0.160 OA
ATOM     14  O   UNL     1      10.072  -2.696  23.399  0.00  0.00    -0.160 OA
BRANCH  12  15
ATOM     15  C   UNL     1       7.570  -3.369  23.634  0.00  0.00    +0.205 A 
ATOM     16  C   UNL     1       6.508  -3.668  24.632  0.00  0.00    +0.055 A 
ATOM     17  C   UNL     1       5.434  -4.342  24.213  0.00  0.00    +0.075 A 
ATOM     18  C   UNL     1       5.338  -4.779  22.808  0.00  0.00    +0.265 A 
ATOM     19  O   UNL     1       4.347  -5.375  22.405  0.00  0.00    -0.266 OA
ATOM     20  N   UNL     1       6.419  -4.480  22.014  0.00  0.00    -0.241 N 
ATOM     21  H   UNL     1       6.369  -4.766  21.040  0.00  0.00    +0.192 HD
ATOM     22  N   UNL     1       7.525  -3.759  22.393  0.00  0.00    -0.152 NA
ENDBRANCH  12  15
ENDBRANCH  11  12
TORSDOF 2
ENDMDL
