MODEL 1
REMARK VINA RESULT:      -5.0      0.000      0.000
REMARK  Name = 
REMARK  5 active torsions:
REMARK  status: ('A' for Active; 'I' for Inactive)
REMARK    1  A    between atoms: C_2  and  C_8
REMARK    2  A    between atoms: N_10  and  C_11
REMARK    3  A    between atoms: C_11  and  C_12
REMARK    4  A    between atoms: C_11  and  C_13
REMARK    5  A    between atoms: C_11  and  C_14
REMARK                            x       y       z     vdW  Elec       q    Type
REMARK                         _______ _______ _______ _____ _____    ______ ____
ROOT
ATOM      1  C   UNL     1       9.672  -1.929  23.412  0.00  0.00    +0.230 C 
ATOM      2  N   UNL     1       9.143  -0.745  23.884  0.00  0.00    -0.309 N 
ATOM      3  H   UNL     1       8.399  -0.855  24.570  0.00  0.00    +0.149 HD
ATOM      4  O   UNL     1      10.635  -1.997  22.652  0.00  0.00    -0.274 OA
ENDROOT
BRANCH   1   5
ATOM      5  C   UNL     1       8.926  -3.198  23.857  0.00  0.00    +0.140 C 
ATOM      6  N   UNL     1       9.824  -4.104  24.622  0.00  0.00    -0.306 NA
ATOM      7  H   UNL     1      10.609  -4.352  24.014  0.00  0.00    +0.123 HD
ATOM      8  C   UNL     1       9.104  -5.339  24.964  0.00  0.00    +0.081 C 
ATOM      9  C   UNL     1       7.858  -5.059  25.803  0.00  0.00    +0.015 C 
ATOM     10  C   UNL     1       6.934  -4.055  25.120  0.00  0.00    +0.003 C 
ATOM     11  C   UNL     1       7.711  -2.812  24.703  0.00  0.00    +0.028 C 
ENDBRANCH   1   5
BRANCH   2  12
ATOM     12  C   UNL     1       9.695   0.587  23.603  0.00  0.00    +0.026 C 
ATOM     13  C   UNL     1      11.050   0.773  24.308  0.00  0.00    +0.031 C 
ATOM     14  C   UNL     1       8.725   1.654  24.139  0.00  0.00    +0.031 C 
ATOM     15  C   UNL     1       9.855   0.806  22.089  0.00  0.00    +0.031 C 
ENDBRANCH   2  12
TORSDOF 2
ENDMDL
MODEL 2
REMARK VINA RESULT:      -5.0      1.296      5.229
REMARK  Name = 
REMARK  5 active torsions:
REMARK  status: ('A' for Active; 'I' for Inactive)
REMARK    1  A    between atoms: C_2  and  C_8
REMARK    2  A    between atoms: N_10  and  C_11
REMARK    3  A    between atoms: C_11  and  C_12
REMARK    4  A    between atoms: C_11  and  C_13
REMARK    5  A    between atoms: C_11  and  C_14
REMARK                            x       y       z     vdW  Elec       q    Type
REMARK                         _______ _______ _______ _____ _____    ______ ____
ROOT
ATOM      1  C   UNL     1       9.258  -2.282  23.914  0.00  0.00    +0.230 C 
ATOM      2  N   UNL     1       8.118  -2.761  24.528  0.00  0.00    -0.309 N 
ATOM      3  H   UNL     1       7.319  -2.133  24.492  0.00  0.00    +0.149 HD
ATOM      4  O   UNL     1      10.290  -2.934  23.776  0.00  0.00    -0.274 OA
ENDROOT
BRANCH   1   5
ATOM      5  C   UNL     1       9.180  -0.818  23.452  0.00  0.00    +0.140 C 
ATOM      6  N   UNL     1      10.282  -0.012  24.042  0.00  0.00    -0.306 NA
ATOM      7  H   UNL     1      10.197  -0.065  25.060  0.00  0.00    +0.123 HD
ATOM      8  C   UNL     1      10.132   1.395  23.644  0.00  0.00    +0.081 C 
ATOM      9  C   UNL     1      10.158   1.565  22.126  0.00  0.00    +0.015 C 
ATOM     10  C   UNL     1       9.113   0.686  21.444  0.00  0.00    +0.003 C 
ATOM     11  C   UNL     1       9.231  -0.756  21.924  0.00  0.00    +0.028 C 
ENDBRANCH   1   5
BRANCH   2  12
ATOM     12  C   UNL     1       7.957  -4.131  25.035  0.00  0.00    +0.026 C 
ATOM     13  C   UNL     1       8.072  -5.152  23.891  0.00  0.00    +0.031 C 
ATOM     14  C   UNL     1       6.558  -4.270  25.663  0.00  0.00    +0.031 C 
ATOM     15  C   UNL     1       8.999  -4.439  26.123  0.00  0.00    +0.031 C 
ENDBRANCH   2  12
TORSDOF 2
ENDMDL
MODEL 3
REMARK VINA RESULT:      -5.0      1.456      5.118
REMARK  Name = 
REMARK  5 active torsions:
REMARK  status: ('A' for Active; 'I' for Inactive)
REMARK    1  A    between atoms: C_2  and  C_8
REMARK    2  A    between atoms: N_10  and  C_11
REMARK    3  A    between atoms: C_11  and  C_12
REMARK    4  A    between atoms: C_11  and  C_13
REMARK    5  A    between atoms: C_11  and  C_14
REMARK                            x       y       z     vdW  Elec       q    Type
REMARK                         _______ _______ _______ _____ _____    ______ ____
ROOT
ATOM      1  C   UNL     1       9.391  -2.546  23.787  0.00  0.00    +0.230 C 
ATOM      2  N   UNL     1       8.012  -2.578  23.724  0.00  0.00    -0.309 N 
ATOM      3  H   UNL     1       7.585  -1.750  23.315  0.00  0.00    +0.149 HD
ATOM      4  O   UNL     1      10.084  -3.489  24.162  0.00  0.00    -0.274 OA
ENDROOT
BRANCH   1   5
ATOM      5  C   UNL     1      10.027  -1.200  23.405  0.00  0.00    +0.140 C 
ATOM      6  N   UNL     1       9.238  -0.517  22.345  0.00  0.00    -0.306 NA
ATOM      7  H   UNL     1       9.208  -1.137  21.531  0.00  0.00    +0.123 HD
ATOM      8  C   UNL     1       9.915   0.725  21.948  0.00  0.00    +0.081 C 
ATOM      9  C   UNL     1      10.086   1.683  23.127  0.00  0.00    +0.015 C 
ATOM     10  C   UNL     1      10.804   1.014  24.295  0.00  0.00    +0.003 C 
ATOM     11  C   UNL     1      10.137  -0.311  24.645  0.00  0.00    +0.028 C 
ENDBRANCH   1   5
BRANCH   2  12
ATOM     12  C   UNL     1       7.190  -3.758  24.027  0.00  0.00    +0.026 C 
ATOM     13  C   UNL     1       7.526  -4.915  23.072  0.00  0.00    +0.031 C 
ATOM     14  C   UNL     1       5.706  -3.395  23.838  0.00  0.00    +0.031 C 
ATOM     15  C   UNL     1       7.388  -4.204  25.486  0.00  0.00    +0.031 C 
ENDBRANCH   2  12
TORSDOF 2
ENDMDL
MODEL 4
REMARK VINA RESULT:      -4.9      1.465      5.117
REMARK  Name = 
REMARK  5 active torsions:
REMARK  status: ('A' for Active; 'I' for Inactive)
REMARK    1  A    between atoms: C_2  and  C_8
REMARK    2  A    between atoms: N_10  and  C_11
REMARK    3  A    between atoms: C_11  and  C_12
REMARK    4  A    between atoms: C_11  and  C_13
REMARK    5  A    between atoms: C_11  and  C_14
REMARK                            x       y       z     vdW  Elec       q    Type
REMARK                         _______ _______ _______ _____ _____    ______ ____
ROOT
ATOM      1  C   UNL     1       9.362  -2.589  23.793  0.00  0.00    +0.230 C 
ATOM      2  N   UNL     1       7.984  -2.618  23.716  0.00  0.00    -0.309 N 
ATOM      3  H   UNL     1       7.564  -1.796  23.288  0.00  0.00    +0.149 HD
ATOM      4  O   UNL     1      10.048  -3.527  24.193  0.00  0.00    -0.274 OA
ENDROOT
BRANCH   1   5
ATOM      5  C   UNL     1      10.007  -1.253  23.393  0.00  0.00    +0.140 C 
ATOM      6  N   UNL     1       9.214  -0.573  22.333  0.00  0.00    -0.306 NA
ATOM      7  H   UNL     1       9.171  -1.200  21.526  0.00  0.00    +0.123 HD
ATOM      8  C   UNL     1       9.898   0.660  21.919  0.00  0.00    +0.081 C 
ATOM      9  C   UNL     1      10.088   1.627  23.086  0.00  0.00    +0.015 C 
ATOM     10  C   UNL     1      10.811   0.963  24.254  0.00  0.00    +0.003 C 
ATOM     11  C   UNL     1      10.136  -0.353  24.623  0.00  0.00    +0.028 C 
ENDBRANCH   1   5
BRANCH   2  12
ATOM     12  C   UNL     1       7.155  -3.789  24.033  0.00  0.00    +0.026 C 
ATOM     13  C   UNL     1       7.410  -4.263  25.473  0.00  0.00    +0.031 C 
ATOM     14  C   UNL     1       7.526  -4.938  23.078  0.00  0.00    +0.031 C 
ATOM     15  C   UNL     1       5.662  -3.472  23.839  0.00  0.00    +0.031 C 
ENDBRANCH   2  12
TORSDOF 2
ENDMDL
MODEL 5
REMARK VINA RESULT:      -4.9      1.437      1.722
REMARK  Name = 
REMARK  5 active torsions:
REMARK  status: ('A' for Active; 'I' for Inactive)
REMARK    1  A    between atoms: C_2  and  C_8
REMARK    2  A    between atoms: N_10  and  C_11
REMARK    3  A    between atoms: C_11  and  C_12
REMARK    4  A    between atoms: C_11  and  C_13
REMARK    5  A    between atoms: C_11  and  C_14
REMARK                            x       y       z     vdW  Elec       q    Type
REMARK                         _______ _______ _______ _____ _____    ______ ____
ROOT
ATOM      1  C   UNL     1       9.375  -1.417  23.311  0.00  0.00    +0.230 C 
ATOM      2  N   UNL     1       8.958  -0.180  23.757  0.00  0.00    -0.309 N 
ATOM      3  H   UNL     1       8.089  -0.188  24.286  0.00  0.00    +0.149 HD
ATOM      4  O   UNL     1      10.444  -1.617  22.738  0.00  0.00    -0.274 OA
ENDROOT
BRANCH   1   5
ATOM      5  C   UNL     1       8.368  -2.559  23.526  0.00  0.00    +0.140 C 
ATOM      6  N   UNL     1       7.824  -3.042  22.228  0.00  0.00    -0.306 NA
ATOM      7  H   UNL     1       7.368  -2.251  21.767  0.00  0.00    +0.123 HD
ATOM      8  C   UNL     1       6.808  -4.076  22.473  0.00  0.00    +0.081 C 
ATOM      9  C   UNL     1       7.380  -5.267  23.241  0.00  0.00    +0.015 C 
ATOM     10  C   UNL     1       8.045  -4.830  24.542  0.00  0.00    +0.003 C 
ATOM     11  C   UNL     1       9.041  -3.705  24.283  0.00  0.00    +0.028 C 
ENDBRANCH   1   5
BRANCH   2  12
ATOM     12  C   UNL     1       9.757   1.051  23.673  0.00  0.00    +0.026 C 
ATOM     13  C   UNL     1      11.101   0.878  24.400  0.00  0.00    +0.031 C 
ATOM     14  C   UNL     1       8.987   2.195  24.356  0.00  0.00    +0.031 C 
ATOM     15  C   UNL     1       9.999   1.448  22.207  0.00  0.00    +0.031 C 
ENDBRANCH   2  12
TORSDOF 2
ENDMDL
MODEL 6
REMARK VINA RESULT:      -4.8      1.477      2.052
REMARK  Name = 
REMARK  5 active torsions:
REMARK  status: ('A' for Active; 'I' for Inactive)
REMARK    1  A    between atoms: C_2  and  C_8
REMARK    2  A    between atoms: N_10  and  C_11
REMARK    3  A    between atoms: C_11  and  C_12
REMARK    4  A    between atoms: C_11  and  C_13
REMARK    5  A    between atoms: C_11  and  C_14
REMARK                            x       y       z     vdW  Elec       q    Type
REMARK                         _______ _______ _______ _____ _____    ______ ____
ROOT
ATOM      1  C   UNL     1       9.227  -1.511  22.676  0.00  0.00    +0.230 C 
ATOM      2  N   UNL     1       8.777  -0.335  23.242  0.00  0.00    -0.309 N 
ATOM      3  H   UNL     1       7.851  -0.391  23.660  0.00  0.00    +0.149 HD
ATOM      4  O   UNL     1      10.353  -1.662  22.208  0.00  0.00    -0.274 OA
ENDROOT
BRANCH   1   5
ATOM      5  C   UNL     1       8.186  -2.640  22.609  0.00  0.00    +0.140 C 
ATOM      6  N   UNL     1       8.420  -3.647  23.680  0.00  0.00    -0.306 NA
ATOM      7  H   UNL     1       9.361  -4.027  23.550  0.00  0.00    +0.123 HD
ATOM      8  C   UNL     1       7.459  -4.750  23.539  0.00  0.00    +0.081 C 
ATOM      9  C   UNL     1       6.014  -4.262  23.631  0.00  0.00    +0.015 C 
ATOM     10  C   UNL     1       5.729  -3.153  22.623  0.00  0.00    +0.003 C 
ATOM     11  C   UNL     1       6.779  -2.052  22.729  0.00  0.00    +0.028 C 
ENDBRANCH   1   5
BRANCH   2  12
ATOM     12  C   UNL     1       9.597   0.870  23.426  0.00  0.00    +0.026 C 
ATOM     13  C   UNL     1      10.019   1.453  22.067  0.00  0.00    +0.031 C 
ATOM     14  C   UNL     1      10.872   0.494  24.203  0.00  0.00    +0.031 C 
ATOM     15  C   UNL     1       8.838   1.930  24.241  0.00  0.00    +0.031 C 
ENDBRANCH   2  12
TORSDOF 2
ENDMDL
MODEL 7
REMARK VINA RESULT:      -4.7      3.085      6.603
REMARK  Name = 
REMARK  5 active torsions:
REMARK  status: ('A' for Active; 'I' for Inactive)
REMARK    1  A    between atoms: C_2  and  C_8
REMARK    2  A    between atoms: N_10  and  C_11
REMARK    3  A    between atoms: C_11  and  C_12
REMARK    4  A    between atoms: C_11  and  C_13
REMARK    5  A    between atoms: C_11  and  C_14
REMARK                            x       y       z     vdW  Elec       q    Type
REMARK                         _______ _______ _______ _____ _____    ______ ____
ROOT
ATOM      1  C   UNL     1       9.749   1.806  22.927  0.00  0.00    +0.230 C 
ATOM      2  N   UNL     1       9.663   0.714  23.767  0.00  0.00    -0.309 N 
ATOM      3  H   UNL     1       9.807   0.923  24.752  0.00  0.00    +0.149 HD
ATOM      4  O   UNL     1       9.514   1.767  21.721  0.00  0.00    -0.274 OA
ENDROOT
BRANCH   1   5
ATOM      5  C   UNL     1      10.230   3.104  23.596  0.00  0.00    +0.140 C 
ATOM      6  N   UNL     1      11.272   3.775  22.773  0.00  0.00    -0.306 NA
ATOM      7  H   UNL     1      12.053   3.123  22.666  0.00  0.00    +0.123 HD
ATOM      8  C   UNL     1      11.765   4.967  23.477  0.00  0.00    +0.081 C 
ATOM      9  C   UNL     1      10.645   5.967  23.762  0.00  0.00    +0.015 C 
ATOM     10  C   UNL     1       9.492   5.317  24.522  0.00  0.00    +0.003 C 
ATOM     11  C   UNL     1       9.041   4.040  23.821  0.00  0.00    +0.028 C 
ENDBRANCH   1   5
BRANCH   2  12
ATOM     12  C   UNL     1       9.213  -0.622  23.354  0.00  0.00    +0.026 C 
ATOM     13  C   UNL     1       7.738  -0.590  22.920  0.00  0.00    +0.031 C 
ATOM     14  C   UNL     1       9.340  -1.584  24.550  0.00  0.00    +0.031 C 
ATOM     15  C   UNL     1      10.086  -1.166  22.211  0.00  0.00    +0.031 C 
ENDBRANCH   2  12
TORSDOF 2
ENDMDL
MODEL 8
REMARK VINA RESULT:      -4.6      4.077      6.024
REMARK  Name = 
REMARK  5 active torsions:
REMARK  status: ('A' for Active; 'I' for Inactive)
REMARK    1  A    between atoms: C_2  and  C_8
REMARK    2  A    between atoms: N_10  and  C_11
REMARK    3  A    between atoms: C_11  and  C_12
REMARK    4  A    between atoms: C_11  and  C_13
REMARK    5  A    between atoms: C_11  and  C_14
REMARK                            x       y       z     vdW  Elec       q    Type
REMARK                         _______ _______ _______ _____ _____    ______ ____
ROOT
ATOM      1  C   UNL     1       8.923   3.808  24.049  0.00  0.00    +0.230 C 
ATOM      2  N   UNL     1       8.536   4.642  23.020  0.00  0.00    -0.309 N 
ATOM      3  H   UNL     1       8.739   4.290  22.087  0.00  0.00    +0.149 HD
ATOM      4  O   UNL     1       8.680   4.021  25.235  0.00  0.00    -0.274 OA
ENDROOT
BRANCH   1   5
ATOM      5  C   UNL     1       9.754   2.588  23.619  0.00  0.00    +0.140 C 
ATOM      6  N   UNL     1       9.866   1.602  24.727  0.00  0.00    -0.306 NA
ATOM      7  H   UNL     1      10.313   2.072  25.519  0.00  0.00    +0.123 HD
ATOM      8  C   UNL     1      10.730   0.488  24.311  0.00  0.00    +0.081 C 
ATOM      9  C   UNL     1      10.186  -0.224  23.073  0.00  0.00    +0.015 C 
ATOM     10  C   UNL     1       9.951   0.750  21.922  0.00  0.00    +0.003 C 
ATOM     11  C   UNL     1       9.118   1.939  22.389  0.00  0.00    +0.028 C 
ENDBRANCH   1   5
BRANCH   2  12
ATOM     12  C   UNL     1       7.726   5.856  23.189  0.00  0.00    +0.026 C 
ATOM     13  C   UNL     1       6.440   5.547  23.973  0.00  0.00    +0.031 C 
ATOM     14  C   UNL     1       7.325   6.387  21.801  0.00  0.00    +0.031 C 
ATOM     15  C   UNL     1       8.529   6.956  23.905  0.00  0.00    +0.031 C 
ENDBRANCH   2  12
TORSDOF 2
ENDMDL
MODEL 9
REMARK VINA RESULT:      -4.6      1.393      1.590
REMARK  Name = 
REMARK  5 active torsions:
REMARK  status: ('A' for Active; 'I' for Inactive)
REMARK    1  A    between atoms: C_2  and  C_8
REMARK    2  A    between atoms: N_10  and  C_11
REMARK    3  A    between atoms: C_11  and  C_12
REMARK    4  A    between atoms: C_11  and  C_13
REMARK    5  A    between atoms: C_11  and  C_14
REMARK                            x       y       z     vdW  Elec       q    Type
REMARK                         _______ _______ _______ _____ _____    ______ ____
ROOT
ATOM      1  C   UNL     1       9.210  -2.937  24.003  0.00  0.00    +0.230 C 
ATOM      2  N   UNL     1       8.425  -1.840  23.712  0.00  0.00    -0.309 N 
ATOM      3  H   UNL     1       7.474  -1.890  24.070  0.00  0.00    +0.149 HD
ATOM      4  O   UNL     1      10.407  -3.016  23.735  0.00  0.00    -0.274 OA
ENDROOT
BRANCH   1   5
ATOM      5  C   UNL     1       8.465  -4.116  24.649  0.00  0.00    +0.140 C 
ATOM      6  N   UNL     1       8.599  -4.085  26.131  0.00  0.00    -0.306 NA
ATOM      7  H   UNL     1       9.596  -4.133  26.355  0.00  0.00    +0.123 HD
ATOM      8  C   UNL     1       7.944  -5.266  26.710  0.00  0.00    +0.081 C 
ATOM      9  C   UNL     1       6.459  -5.329  26.352  0.00  0.00    +0.015 C 
ATOM     10  C   UNL     1       6.242  -5.265  24.843  0.00  0.00    +0.003 C 
ATOM     11  C   UNL     1       6.990  -4.078  24.245  0.00  0.00    +0.028 C 
ENDBRANCH   1   5
BRANCH   2  12
ATOM     12  C   UNL     1       8.921  -0.595  23.109  0.00  0.00    +0.026 C 
ATOM     13  C   UNL     1      10.029   0.026  23.976  0.00  0.00    +0.031 C 
ATOM     14  C   UNL     1       7.761   0.413  23.019  0.00  0.00    +0.031 C 
ATOM     15  C   UNL     1       9.445  -0.846  21.685  0.00  0.00    +0.031 C 
ENDBRANCH   2  12
TORSDOF 2
ENDMDL
