MODEL 1
REMARK VINA RESULT:      -7.1      0.000      0.000
REMARK  Name = 
REMARK  17 active torsions:
REMARK  status: ('A' for Active; 'I' for Inactive)
REMARK    1  A    between atoms: C_1  and  C_2
REMARK    2  A    between atoms: C_2  and  C_3
REMARK    3  A    between atoms: C_2  and  C_4
REMARK    4  A    between atoms: C_2  and  N_5
REMARK    5  A    between atoms: C_6  and  C_8
REMARK    6  A    between atoms: N_11  and  C_12
REMARK    7  A    between atoms: C_12  and  C_13
REMARK    8  A    between atoms: N_21  and  C_22
REMARK    9  A    between atoms: C_22  and  C_23
REMARK   10  A    between atoms: C_23  and  O_25
REMARK   11  A    between atoms: C_23  and  C_26
REMARK   12  A    between atoms: C_26  and  C_27
REMARK   13  A    between atoms: C_27  and  C_29
REMARK   14  A    between atoms: C_27  and  C_36
REMARK   15  A    between atoms: C_29  and  C_30
REMARK   16  A    between atoms: N_38  and  C_39
REMARK   17  A    between atoms: C_41  and  O_43
REMARK                            x       y       z     vdW  Elec       q    Type
REMARK                         _______ _______ _______ _____ _____    ______ ____
ROOT
ATOM      1  C   UNL     1       6.478  -1.238  24.409  0.00  0.00    +0.129 C 
ENDROOT
BRANCH   1   2
ATOM      2  O   UNL     1       5.434  -2.019  25.011  0.00  0.00    -0.391 OA
ATOM      3  H   UNL     1       4.759  -1.365  25.274  0.00  0.00    +0.210 HD
ENDBRANCH   1   2
BRANCH   1   4
ATOM      4  C   UNL     1       6.121   0.252  24.640  0.00  0.00    +0.116 C 
BRANCH   4   6
ATOM      5  C   UNL     1       5.091   1.426  26.611  0.00  0.00    +0.157 C 
ATOM      6  N   UNL     1       6.218   0.559  26.102  0.00  0.00    -0.287 NA
ATOM      7  C   UNL     1       7.475   1.303  26.403  0.00  0.00    +0.100 C 
ATOM      8  C   UNL     1       7.592   2.683  25.733  0.00  0.00    +0.100 C 
ATOM      9  N   UNL     1       6.475   3.590  26.060  0.00  0.00    -0.295 NA
ATOM     10  C   UNL     1       5.132   2.893  25.951  0.00  0.00    +0.113 C 
BRANCH   5  13
ATOM     11  N   UNL     1       3.808  -0.746  27.222  0.00  0.00    -0.309 N 
ATOM     12  H   UNL     1       4.775  -1.061  27.208  0.00  0.00    +0.149 HD
ATOM     13  C   UNL     1       3.688   0.586  26.795  0.00  0.00    +0.232 C 
ATOM     14  O   UNL     1       2.593   1.140  26.665  0.00  0.00    -0.274 OA
BRANCH  11  16
ATOM     15  C   UNL     1       1.688  -2.145  26.702  0.00  0.00    +0.031 C 
ATOM     16  C   UNL     1       2.796  -1.783  27.711  0.00  0.00    +0.026 C 
ATOM     17  C   UNL     1       3.546  -3.107  28.020  0.00  0.00    +0.031 C 
ATOM     18  C   UNL     1       2.085  -1.399  29.038  0.00  0.00    +0.031 C 
ENDBRANCH  11  16
ENDBRANCH   5  13
BRANCH   9  19
ATOM     19  C   UNL     1       6.654   4.812  25.236  0.00  0.00    +0.121 C 
BRANCH  19  20
ATOM     20  C   UNL     1       8.021   5.437  25.225  0.00  0.00    -0.015 A 
ATOM     21  C   UNL     1       8.791   5.531  24.060  0.00  0.00    +0.008 A 
ATOM     22  C   UNL     1      10.022   6.182  24.095  0.00  0.00    +0.020 A 
ATOM     23  C   UNL     1      10.440   6.735  25.294  0.00  0.00    +0.111 A 
ATOM     24  N   UNL     1       9.711   6.699  26.429  0.00  0.00    -0.263 NA
ATOM     25  C   UNL     1       8.523   6.057  26.366  0.00  0.00    +0.115 A 
ENDBRANCH  19  20
ENDBRANCH   9  19
ENDBRANCH   4   6
ENDBRANCH   1   4
BRANCH   1  26
ATOM     26  C   UNL     1       6.622  -1.714  22.965  0.00  0.00    +0.045 C 
BRANCH  26  27
ATOM     27  C   UNL     1       7.840  -2.593  22.584  0.00  0.00    +0.082 C 
BRANCH  27  28
ATOM     28  C   UNL     1       7.522  -4.050  22.975  0.00  0.00    +0.217 C 
ATOM     29  N   UNL     1       6.216  -4.348  23.285  0.00  0.00    -0.306 N 
ATOM     30  H   UNL     1       5.499  -3.638  23.287  0.00  0.00    +0.149 HD
ATOM     31  O   UNL     1       8.408  -4.894  23.103  0.00  0.00    -0.275 OA
BRANCH  29  32
ATOM     32  C   UNL     1       5.897  -5.650  23.840  0.00  0.00    +0.132 C 
ATOM     33  C   UNL     1       5.832  -5.643  25.337  0.00  0.00    -0.022 A 
ATOM     34  C   UNL     1       4.747  -6.395  25.794  0.00  0.00    -0.040 A 
ATOM     35  C   UNL     1       4.622  -6.707  27.148  0.00  0.00    +0.004 A 
ATOM     36  C   UNL     1       5.594  -6.231  28.037  0.00  0.00    +0.000 A 
ATOM     37  C   UNL     1       6.646  -5.440  27.580  0.00  0.00    +0.000 A 
ATOM     38  C   UNL     1       3.848  -6.834  24.687  0.00  0.00    +0.069 C 
ATOM     39  C   UNL     1       6.771  -5.135  26.225  0.00  0.00    +0.006 A 
ATOM     40  C   UNL     1       4.516  -6.252  23.420  0.00  0.00    +0.143 C 
BRANCH  40  41
ATOM     41  O   UNL     1       3.623  -5.302  22.828  0.00  0.00    -0.389 OA
ATOM     42  H   UNL     1       2.936  -5.809  22.350  0.00  0.00    +0.210 HD
ENDBRANCH  40  41
ENDBRANCH  29  32
ENDBRANCH  27  28
BRANCH  27  43
ATOM     43  C   UNL     1       9.222  -2.083  23.057  0.00  0.00    +0.048 C 
BRANCH  43  44
ATOM     44  C   UNL     1       9.641  -0.627  22.992  0.00  0.00    -0.047 A 
ATOM     45  C   UNL     1      10.195  -0.064  24.157  0.00  0.00    +0.003 A 
ATOM     46  C   UNL     1      10.579   1.279  24.208  0.00  0.00    +0.000 A 
ATOM     47  C   UNL     1      10.417   2.088  23.089  0.00  0.00    +0.000 A 
ATOM     48  C   UNL     1       9.874   1.551  21.928  0.00  0.00    +0.000 A 
ATOM     49  C   UNL     1       9.491   0.199  21.875  0.00  0.00    +0.003 A 
ENDBRANCH  43  44
ENDBRANCH  27  43
ENDBRANCH  26  27
ENDBRANCH   1  26
TORSDOF 14
ENDMDL
MODEL 2
REMARK VINA RESULT:      -6.8      1.911      6.232
REMARK  Name = 
REMARK  17 active torsions:
REMARK  status: ('A' for Active; 'I' for Inactive)
REMARK    1  A    between atoms: C_1  and  C_2
REMARK    2  A    between atoms: C_2  and  C_3
REMARK    3  A    between atoms: C_2  and  C_4
REMARK    4  A    between atoms: C_2  and  N_5
REMARK    5  A    between atoms: C_6  and  C_8
REMARK    6  A    between atoms: N_11  and  C_12
REMARK    7  A    between atoms: C_12  and  C_13
REMARK    8  A    between atoms: N_21  and  C_22
REMARK    9  A    between atoms: C_22  and  C_23
REMARK   10  A    between atoms: C_23  and  O_25
REMARK   11  A    between atoms: C_23  and  C_26
REMARK   12  A    between atoms: C_26  and  C_27
REMARK   13  A    between atoms: C_27  and  C_29
REMARK   14  A    between atoms: C_27  and  C_36
REMARK   15  A    between atoms: C_29  and  C_30
REMARK   16  A    between atoms: N_38  and  C_39
REMARK   17  A    between atoms: C_41  and  O_43
REMARK                            x       y       z     vdW  Elec       q    Type
REMARK                         _______ _______ _______ _____ _____    ______ ____
ROOT
ATOM      1  C   UNL     1       8.348  -0.642  26.627  0.00  0.00    +0.129 C 
ENDROOT
BRANCH   1   2
ATOM      2  O   UNL     1       9.106  -0.397  27.821  0.00  0.00    -0.391 OA
ATOM      3  H   UNL     1       9.803  -1.082  27.816  0.00  0.00    +0.210 HD
ENDBRANCH   1   2
BRANCH   1   4
ATOM      4  C   UNL     1       6.850  -0.597  27.023  0.00  0.00    +0.116 C 
BRANCH   4   6
ATOM      5  C   UNL     1       4.929   0.677  26.019  0.00  0.00    +0.157 C 
ATOM      6  N   UNL     1       6.027  -0.338  25.800  0.00  0.00    -0.287 NA
ATOM      7  C   UNL     1       5.347  -1.585  25.348  0.00  0.00    +0.100 C 
ATOM      8  C   UNL     1       4.338  -2.177  26.347  0.00  0.00    +0.100 C 
ATOM      9  N   UNL     1       3.273  -1.231  26.735  0.00  0.00    -0.295 NA
ATOM     10  C   UNL     1       3.830   0.141  27.063  0.00  0.00    +0.113 C 
BRANCH   5  13
ATOM     11  N   UNL     1       6.226   2.650  24.939  0.00  0.00    -0.309 N 
ATOM     12  H   UNL     1       6.433   1.881  24.306  0.00  0.00    +0.149 HD
ATOM     13  C   UNL     1       5.502   2.219  26.062  0.00  0.00    +0.232 C 
ATOM     14  O   UNL     1       5.212   2.979  26.990  0.00  0.00    -0.274 OA
BRANCH  11  16
ATOM     15  C   UNL     1       8.031   4.497  25.160  0.00  0.00    +0.031 C 
ATOM     16  C   UNL     1       6.732   4.019  24.482  0.00  0.00    +0.026 C 
ATOM     17  C   UNL     1       7.038   3.957  22.961  0.00  0.00    +0.031 C 
ATOM     18  C   UNL     1       5.695   5.164  24.642  0.00  0.00    +0.031 C 
ENDBRANCH  11  16
ENDBRANCH   5  13
BRANCH   9  19
ATOM     19  C   UNL     1       2.474  -1.893  27.798  0.00  0.00    +0.121 C 
BRANCH  19  20
ATOM     20  C   UNL     1       1.916  -3.254  27.490  0.00  0.00    -0.015 A 
ATOM     21  C   UNL     1       2.145  -4.360  28.316  0.00  0.00    +0.008 A 
ATOM     22  C   UNL     1       1.546  -5.582  28.017  0.00  0.00    +0.020 A 
ATOM     23  C   UNL     1       0.721  -5.656  26.908  0.00  0.00    +0.111 A 
ATOM     24  N   UNL     1       0.444  -4.605  26.109  0.00  0.00    -0.263 NA
ATOM     25  C   UNL     1       1.043  -3.433  26.421  0.00  0.00    +0.115 A 
ENDBRANCH  19  20
ENDBRANCH   9  19
ENDBRANCH   4   6
ENDBRANCH   1   4
BRANCH   1  26
ATOM     26  C   UNL     1       8.878  -1.937  26.014  0.00  0.00    +0.045 C 
BRANCH  26  27
ATOM     27  C   UNL     1       8.911  -2.076  24.471  0.00  0.00    +0.082 C 
BRANCH  27  28
ATOM     28  C   UNL     1       8.594  -3.541  24.114  0.00  0.00    +0.217 C 
ATOM     29  N   UNL     1       7.401  -3.790  23.476  0.00  0.00    -0.306 N 
ATOM     30  H   UNL     1       6.746  -3.049  23.275  0.00  0.00    +0.149 HD
ATOM     31  O   UNL     1       9.323  -4.466  24.468  0.00  0.00    -0.275 OA
BRANCH  29  32
ATOM     32  C   UNL     1       6.969  -5.162  23.288  0.00  0.00    +0.132 C 
ATOM     33  C   UNL     1       5.964  -5.599  24.311  0.00  0.00    -0.022 A 
ATOM     34  C   UNL     1       4.942  -6.346  23.721  0.00  0.00    -0.040 A 
ATOM     35  C   UNL     1       4.023  -7.037  24.511  0.00  0.00    +0.004 A 
ATOM     36  C   UNL     1       4.136  -6.944  25.904  0.00  0.00    +0.000 A 
ATOM     37  C   UNL     1       5.128  -6.157  26.484  0.00  0.00    +0.000 A 
ATOM     38  C   UNL     1       5.019  -6.344  22.230  0.00  0.00    +0.069 C 
ATOM     39  C   UNL     1       6.049  -5.473  25.691  0.00  0.00    +0.006 A 
ATOM     40  C   UNL     1       6.262  -5.476  21.929  0.00  0.00    +0.143 C 
BRANCH  40  41
ATOM     41  O   UNL     1       5.841  -4.311  21.209  0.00  0.00    -0.389 OA
ATOM     42  H   UNL     1       4.931  -4.103  21.501  0.00  0.00    +0.210 HD
ENDBRANCH  40  41
ENDBRANCH  29  32
ENDBRANCH  27  28
BRANCH  27  43
ATOM     43  C   UNL     1      10.156  -1.491  23.762  0.00  0.00    +0.048 C 
BRANCH  43  44
ATOM     44  C   UNL     1      10.275  -0.037  23.348  0.00  0.00    -0.047 A 
ATOM     45  C   UNL     1      10.847   0.851  24.277  0.00  0.00    +0.003 A 
ATOM     46  C   UNL     1      10.967   2.218  24.003  0.00  0.00    +0.000 A 
ATOM     47  C   UNL     1      10.517   2.721  22.788  0.00  0.00    +0.000 A 
ATOM     48  C   UNL     1       9.952   1.859  21.855  0.00  0.00    +0.000 A 
ATOM     49  C   UNL     1       9.834   0.486  22.130  0.00  0.00    +0.003 A 
ENDBRANCH  43  44
ENDBRANCH  27  43
ENDBRANCH  26  27
ENDBRANCH   1  26
TORSDOF 14
ENDMDL
MODEL 3
REMARK VINA RESULT:      -6.7      1.193      1.587
REMARK  Name = 
REMARK  17 active torsions:
REMARK  status: ('A' for Active; 'I' for Inactive)
REMARK    1  A    between atoms: C_1  and  C_2
REMARK    2  A    between atoms: C_2  and  C_3
REMARK    3  A    between atoms: C_2  and  C_4
REMARK    4  A    between atoms: C_2  and  N_5
REMARK    5  A    between atoms: C_6  and  C_8
REMARK    6  A    between atoms: N_11  and  C_12
REMARK    7  A    between atoms: C_12  and  C_13
REMARK    8  A    between atoms: N_21  and  C_22
REMARK    9  A    between atoms: C_22  and  C_23
REMARK   10  A    between atoms: C_23  and  O_25
REMARK   11  A    between atoms: C_23  and  C_26
REMARK   12  A    between atoms: C_26  and  C_27
REMARK   13  A    between atoms: C_27  and  C_29
REMARK   14  A    between atoms: C_27  and  C_36
REMARK   15  A    between atoms: C_29  and  C_30
REMARK   16  A    between atoms: N_38  and  C_39
REMARK   17  A    between atoms: C_41  and  O_43
REMARK                            x       y       z     vdW  Elec       q    Type
REMARK                         _______ _______ _______ _____ _____    ______ ____
ROOT
ATOM      1  C   UNL     1       6.326  -1.311  24.667  0.00  0.00    +0.129 C 
ENDROOT
BRANCH   1   2
ATOM      2  O   UNL     1       5.155  -2.059  25.026  0.00  0.00    -0.391 OA
ATOM      3  H   UNL     1       5.487  -2.776  25.600  0.00  0.00    +0.210 HD
ENDBRANCH   1   2
BRANCH   1   4
ATOM      4  C   UNL     1       6.059   0.165  25.059  0.00  0.00    +0.116 C 
BRANCH   4   6
ATOM      5  C   UNL     1       4.905   0.904  27.167  0.00  0.00    +0.157 C 
ATOM      6  N   UNL     1       6.143   0.301  26.547  0.00  0.00    -0.287 NA
ATOM      7  C   UNL     1       7.271   1.196  26.933  0.00  0.00    +0.100 C 
ATOM      8  C   UNL     1       7.147   2.649  26.442  0.00  0.00    +0.100 C 
ATOM      9  N   UNL     1       5.907   3.315  26.886  0.00  0.00    -0.295 NA
ATOM     10  C   UNL     1       4.692   2.427  26.697  0.00  0.00    +0.113 C 
BRANCH   5  13
ATOM     11  N   UNL     1       3.923  -1.383  27.908  0.00  0.00    -0.309 N 
ATOM     12  H   UNL     1       4.914  -1.496  28.108  0.00  0.00    +0.149 HD
ATOM     13  C   UNL     1       3.660  -0.170  27.251  0.00  0.00    +0.232 C 
ATOM     14  O   UNL     1       2.533   0.130  26.849  0.00  0.00    -0.274 OA
BRANCH  11  16
ATOM     15  C   UNL     1       1.642  -2.106  28.905  0.00  0.00    +0.031 C 
ATOM     16  C   UNL     1       3.031  -2.529  28.386  0.00  0.00    +0.026 C 
ATOM     17  C   UNL     1       2.771  -3.491  27.196  0.00  0.00    +0.031 C 
ATOM     18  C   UNL     1       3.671  -3.412  29.492  0.00  0.00    +0.031 C 
ENDBRANCH  11  16
ENDBRANCH   5  13
BRANCH   9  19
ATOM     19  C   UNL     1       5.867   4.642  26.221  0.00  0.00    +0.121 C 
BRANCH  19  20
ATOM     20  C   UNL     1       6.370   4.716  24.807  0.00  0.00    -0.015 A 
ATOM     21  C   UNL     1       7.618   5.262  24.485  0.00  0.00    +0.008 A 
ATOM     22  C   UNL     1       8.062   5.242  23.165  0.00  0.00    +0.020 A 
ATOM     23  C   UNL     1       7.249   4.660  22.206  0.00  0.00    +0.111 A 
ATOM     24  N   UNL     1       6.058   4.089  22.482  0.00  0.00    -0.263 NA
ATOM     25  C   UNL     1       5.651   4.128  23.771  0.00  0.00    +0.115 A 
ENDBRANCH  19  20
ENDBRANCH   9  19
ENDBRANCH   4   6
ENDBRANCH   1   4
BRANCH   1  26
ATOM     26  C   UNL     1       6.620  -1.609  23.199  0.00  0.00    +0.045 C 
BRANCH  26  27
ATOM     27  C   UNL     1       7.895  -2.414  22.839  0.00  0.00    +0.082 C 
BRANCH  27  28
ATOM     28  C   UNL     1       7.645  -3.893  23.194  0.00  0.00    +0.217 C 
ATOM     29  N   UNL     1       6.340  -4.285  23.379  0.00  0.00    -0.306 N 
ATOM     30  H   UNL     1       5.577  -3.627  23.314  0.00  0.00    +0.149 HD
ATOM     31  O   UNL     1       8.572  -4.674  23.404  0.00  0.00    -0.275 OA
BRANCH  29  32
ATOM     32  C   UNL     1       6.063  -5.612  23.898  0.00  0.00    +0.132 C 
ATOM     33  C   UNL     1       5.896  -5.629  25.387  0.00  0.00    -0.022 A 
ATOM     34  C   UNL     1       4.829  -6.451  25.760  0.00  0.00    -0.040 A 
ATOM     35  C   UNL     1       4.631  -6.788  27.099  0.00  0.00    +0.004 A 
ATOM     36  C   UNL     1       5.510  -6.267  28.058  0.00  0.00    +0.000 A 
ATOM     37  C   UNL     1       6.541  -5.409  27.682  0.00  0.00    +0.000 A 
ATOM     38  C   UNL     1       4.035  -6.926  24.590  0.00  0.00    +0.069 C 
ATOM     39  C   UNL     1       6.740  -5.079  26.342  0.00  0.00    +0.006 A 
ATOM     40  C   UNL     1       4.752  -6.289  23.378  0.00  0.00    +0.143 C 
BRANCH  40  41
ATOM     41  O   UNL     1       3.846  -5.385  22.734  0.00  0.00    -0.389 OA
ATOM     42  H   UNL     1       4.279  -4.508  22.712  0.00  0.00    +0.210 HD
ENDBRANCH  40  41
ENDBRANCH  29  32
ENDBRANCH  27  28
BRANCH  27  43
ATOM     43  C   UNL     1       9.232  -1.840  23.362  0.00  0.00    +0.048 C 
BRANCH  43  44
ATOM     44  C   UNL     1       9.645  -0.391  23.184  0.00  0.00    -0.047 A 
ATOM     45  C   UNL     1      10.154   0.276  24.314  0.00  0.00    +0.003 A 
ATOM     46  C   UNL     1      10.528   1.622  24.260  0.00  0.00    +0.000 A 
ATOM     47  C   UNL     1      10.401   2.328  23.069  0.00  0.00    +0.000 A 
ATOM     48  C   UNL     1       9.904   1.686  21.941  0.00  0.00    +0.000 A 
ATOM     49  C   UNL     1       9.531   0.332  21.995  0.00  0.00    +0.003 A 
ENDBRANCH  43  44
ENDBRANCH  27  43
ENDBRANCH  26  27
ENDBRANCH   1  26
TORSDOF 14
ENDMDL
MODEL 4
REMARK VINA RESULT:      -6.7      3.280      4.826
REMARK  Name = 
REMARK  17 active torsions:
REMARK  status: ('A' for Active; 'I' for Inactive)
REMARK    1  A    between atoms: C_1  and  C_2
REMARK    2  A    between atoms: C_2  and  C_3
REMARK    3  A    between atoms: C_2  and  C_4
REMARK    4  A    between atoms: C_2  and  N_5
REMARK    5  A    between atoms: C_6  and  C_8
REMARK    6  A    between atoms: N_11  and  C_12
REMARK    7  A    between atoms: C_12  and  C_13
REMARK    8  A    between atoms: N_21  and  C_22
REMARK    9  A    between atoms: C_22  and  C_23
REMARK   10  A    between atoms: C_23  and  O_25
REMARK   11  A    between atoms: C_23  and  C_26
REMARK   12  A    between atoms: C_26  and  C_27
REMARK   13  A    between atoms: C_27  and  C_29
REMARK   14  A    between atoms: C_27  and  C_36
REMARK   15  A    between atoms: C_29  and  C_30
REMARK   16  A    between atoms: N_38  and  C_39
REMARK   17  A    between atoms: C_41  and  O_43
REMARK                            x       y       z     vdW  Elec       q    Type
REMARK                         _______ _______ _______ _____ _____    ______ ____
ROOT
ATOM      1  C   UNL     1       6.608   1.432  23.319  0.00  0.00    +0.129 C 
ENDROOT
BRANCH   1   2
ATOM      2  O   UNL     1       5.949   0.204  23.664  0.00  0.00    -0.391 OA
ATOM      3  H   UNL     1       6.598  -0.493  23.449  0.00  0.00    +0.210 HD
ENDBRANCH   1   2
BRANCH   1   4
ATOM      4  C   UNL     1       5.503   2.503  23.132  0.00  0.00    +0.116 C 
BRANCH   4   6
ATOM      5  C   UNL     1       4.167   3.106  25.174  0.00  0.00    +0.157 C 
ATOM      6  N   UNL     1       5.421   3.344  24.366  0.00  0.00    -0.287 NA
ATOM      7  C   UNL     1       5.413   4.794  24.017  0.00  0.00    +0.100 C 
ATOM      8  C   UNL     1       4.207   5.256  23.180  0.00  0.00    +0.100 C 
ATOM      9  N   UNL     1       2.907   4.967  23.815  0.00  0.00    -0.295 NA
ATOM     10  C   UNL     1       2.851   3.554  24.367  0.00  0.00    +0.113 C 
BRANCH   5  13
ATOM     11  N   UNL     1       5.505   1.294  26.467  0.00  0.00    -0.309 N 
ATOM     12  H   UNL     1       6.244   1.853  26.047  0.00  0.00    +0.149 HD
ATOM     13  C   UNL     1       4.233   1.703  26.033  0.00  0.00    +0.232 C 
ATOM     14  O   UNL     1       3.203   1.110  26.363  0.00  0.00    -0.274 OA
BRANCH  11  16
ATOM     15  C   UNL     1       5.583  -1.227  27.064  0.00  0.00    +0.031 C 
ATOM     16  C   UNL     1       5.982   0.214  27.439  0.00  0.00    +0.026 C 
ATOM     17  C   UNL     1       7.533   0.233  27.486  0.00  0.00    +0.031 C 
ATOM     18  C   UNL     1       5.527   0.437  28.907  0.00  0.00    +0.031 C 
ENDBRANCH  11  16
ENDBRANCH   5  13
BRANCH   9  19
ATOM     19  C   UNL     1       1.855   5.336  22.835  0.00  0.00    +0.121 C 
BRANCH  19  20
ATOM     20  C   UNL     1       1.851   4.601  21.524  0.00  0.00    -0.015 A 
ATOM     21  C   UNL     1       1.628   3.222  21.441  0.00  0.00    +0.008 A 
ATOM     22  C   UNL     1       1.567   2.605  20.193  0.00  0.00    +0.020 A 
ATOM     23  C   UNL     1       1.714   3.391  19.062  0.00  0.00    +0.111 A 
ATOM     24  N   UNL     1       1.892   4.728  19.099  0.00  0.00    -0.263 NA
ATOM     25  C   UNL     1       1.952   5.299  20.323  0.00  0.00    +0.115 A 
ENDBRANCH  19  20
ENDBRANCH   9  19
ENDBRANCH   4   6
ENDBRANCH   1   4
BRANCH   1  26
ATOM     26  C   UNL     1       7.516   1.137  22.128  0.00  0.00    +0.045 C 
BRANCH  26  27
ATOM     27  C   UNL     1       8.996   0.759  22.390  0.00  0.00    +0.082 C 
BRANCH  27  28
ATOM     28  C   UNL     1       9.112  -0.777  22.362  0.00  0.00    +0.217 C 
ATOM     29  N   UNL     1       7.969  -1.500  22.610  0.00  0.00    -0.306 N 
ATOM     30  H   UNL     1       7.096  -1.046  22.832  0.00  0.00    +0.149 HD
ATOM     31  O   UNL     1      10.196  -1.342  22.222  0.00  0.00    -0.275 OA
BRANCH  29  32
ATOM     32  C   UNL     1       8.061  -2.937  22.783  0.00  0.00    +0.132 C 
ATOM     33  C   UNL     1       7.978  -3.356  24.220  0.00  0.00    -0.022 A 
ATOM     34  C   UNL     1       7.173  -4.488  24.365  0.00  0.00    -0.040 A 
ATOM     35  C   UNL     1       7.133  -5.178  25.577  0.00  0.00    +0.004 A 
ATOM     36  C   UNL     1       7.900  -4.696  26.646  0.00  0.00    +0.000 A 
ATOM     37  C   UNL     1       8.662  -3.539  26.507  0.00  0.00    +0.000 A 
ATOM     38  C   UNL     1       6.467  -4.855  23.103  0.00  0.00    +0.069 C 
ATOM     39  C   UNL     1       8.704  -2.855  25.293  0.00  0.00    +0.006 A 
ATOM     40  C   UNL     1       6.939  -3.782  22.095  0.00  0.00    +0.143 C 
BRANCH  40  41
ATOM     41  O   UNL     1       5.803  -3.012  21.681  0.00  0.00    -0.389 OA
ATOM     42  H   UNL     1       5.994  -2.077  21.893  0.00  0.00    +0.210 HD
ENDBRANCH  40  41
ENDBRANCH  29  32
ENDBRANCH  27  28
BRANCH  27  43
ATOM     43  C   UNL     1       9.666   1.437  23.608  0.00  0.00    +0.048 C 
BRANCH  43  44
ATOM     44  C   UNL     1      10.007   2.914  23.660  0.00  0.00    -0.047 A 
ATOM     45  C   UNL     1      11.318   3.284  23.309  0.00  0.00    +0.003 A 
ATOM     46  C   UNL     1      11.740   4.617  23.360  0.00  0.00    +0.000 A 
ATOM     47  C   UNL     1      10.852   5.608  23.762  0.00  0.00    +0.000 A 
ATOM     48  C   UNL     1       9.551   5.263  24.109  0.00  0.00    +0.000 A 
ATOM     49  C   UNL     1       9.127   3.924  24.055  0.00  0.00    +0.003 A 
ENDBRANCH  43  44
ENDBRANCH  27  43
ENDBRANCH  26  27
ENDBRANCH   1  26
TORSDOF 14
ENDMDL
MODEL 5
REMARK VINA RESULT:      -6.6      2.313      9.318
REMARK  Name = 
REMARK  17 active torsions:
REMARK  status: ('A' for Active; 'I' for Inactive)
REMARK    1  A    between atoms: C_1  and  C_2
REMARK    2  A    between atoms: C_2  and  C_3
REMARK    3  A    between atoms: C_2  and  C_4
REMARK    4  A    between atoms: C_2  and  N_5
REMARK    5  A    between atoms: C_6  and  C_8
REMARK    6  A    between atoms: N_11  and  C_12
REMARK    7  A    between atoms: C_12  and  C_13
REMARK    8  A    between atoms: N_21  and  C_22
REMARK    9  A    between atoms: C_22  and  C_23
REMARK   10  A    between atoms: C_23  and  O_25
REMARK   11  A    between atoms: C_23  and  C_26
REMARK   12  A    between atoms: C_26  and  C_27
REMARK   13  A    between atoms: C_27  and  C_29
REMARK   14  A    between atoms: C_27  and  C_36
REMARK   15  A    between atoms: C_29  and  C_30
REMARK   16  A    between atoms: N_38  and  C_39
REMARK   17  A    between atoms: C_41  and  O_43
REMARK                            x       y       z     vdW  Elec       q    Type
REMARK                         _______ _______ _______ _____ _____    ______ ____
ROOT
ATOM      1  C   UNL     1       7.864  -1.269  26.735  0.00  0.00    +0.129 C 
ENDROOT
BRANCH   1   2
ATOM      2  O   UNL     1       9.022  -0.438  26.557  0.00  0.00    -0.391 OA
ATOM      3  H   UNL     1       9.182  -0.442  25.593  0.00  0.00    +0.210 HD
ENDBRANCH   1   2
BRANCH   1   4
ATOM      4  C   UNL     1       7.633  -2.019  25.398  0.00  0.00    +0.116 C 
BRANCH   4   6
ATOM      5  C   UNL     1       9.123  -3.017  23.636  0.00  0.00    +0.157 C 
ATOM      6  N   UNL     1       8.820  -2.885  25.109  0.00  0.00    -0.287 NA
ATOM      7  C   UNL     1       8.594  -4.272  25.607  0.00  0.00    +0.100 C 
ATOM      8  C   UNL     1       7.426  -5.021  24.942  0.00  0.00    +0.100 C 
ATOM      9  N   UNL     1       7.548  -5.112  23.474  0.00  0.00    -0.295 NA
ATOM     10  C   UNL     1       7.943  -3.784  22.857  0.00  0.00    +0.113 C 
BRANCH   5  13
ATOM     11  N   UNL     1       9.418  -0.439  23.534  0.00  0.00    -0.309 N 
ATOM     12  H   UNL     1       8.587  -0.541  24.114  0.00  0.00    +0.149 HD
ATOM     13  C   UNL     1       9.849  -1.673  23.023  0.00  0.00    +0.232 C 
ATOM     14  O   UNL     1      10.795  -1.765  22.235  0.00  0.00    -0.274 OA
BRANCH  11  16
ATOM     15  C   UNL     1      10.095   1.512  21.968  0.00  0.00    +0.031 C 
ATOM     16  C   UNL     1       9.950   0.989  23.411  0.00  0.00    +0.026 C 
ATOM     17  C   UNL     1       8.963   1.954  24.122  0.00  0.00    +0.031 C 
ATOM     18  C   UNL     1      11.318   1.218  24.110  0.00  0.00    +0.031 C 
ENDBRANCH  11  16
ENDBRANCH   5  13
BRANCH   9  19
ATOM     19  C   UNL     1       6.292  -5.727  22.973  0.00  0.00    +0.121 C 
BRANCH  19  20
ATOM     20  C   UNL     1       5.048  -5.506  23.787  0.00  0.00    -0.015 A 
ATOM     21  C   UNL     1       4.433  -4.253  23.887  0.00  0.00    +0.008 A 
ATOM     22  C   UNL     1       3.243  -4.121  24.600  0.00  0.00    +0.020 A 
ATOM     23  C   UNL     1       2.695  -5.253  25.179  0.00  0.00    +0.111 A 
ATOM     24  N   UNL     1       3.236  -6.485  25.074  0.00  0.00    -0.263 NA
ATOM     25  C   UNL     1       4.393  -6.581  24.380  0.00  0.00    +0.115 A 
ENDBRANCH  19  20
ENDBRANCH   9  19
ENDBRANCH   4   6
ENDBRANCH   1   4
BRANCH   1  26
ATOM     26  C   UNL     1       6.740  -0.372  27.245  0.00  0.00    +0.045 C 
BRANCH  26  27
ATOM     27  C   UNL     1       5.293  -0.632  26.753  0.00  0.00    +0.082 C 
BRANCH  27  28
ATOM     28  C   UNL     1       4.758   0.670  26.125  0.00  0.00    +0.217 C 
ATOM     29  N   UNL     1       5.637   1.415  25.375  0.00  0.00    -0.306 N 
ATOM     30  H   UNL     1       6.601   1.139  25.264  0.00  0.00    +0.149 HD
ATOM     31  O   UNL     1       3.623   1.083  26.360  0.00  0.00    -0.275 OA
BRANCH  29  32
ATOM     32  C   UNL     1       5.242   2.736  24.922  0.00  0.00    +0.132 C 
ATOM     33  C   UNL     1       6.228   3.799  25.302  0.00  0.00    -0.022 A 
ATOM     34  C   UNL     1       6.429   4.693  24.248  0.00  0.00    -0.040 A 
ATOM     35  C   UNL     1       7.133   5.880  24.451  0.00  0.00    +0.004 A 
ATOM     36  C   UNL     1       7.650   6.141  25.727  0.00  0.00    +0.000 A 
ATOM     37  C   UNL     1       7.487   5.220  26.759  0.00  0.00    +0.000 A 
ATOM     38  C   UNL     1       5.771   4.247  22.985  0.00  0.00    +0.069 C 
ATOM     39  C   UNL     1       6.777   4.038  26.554  0.00  0.00    +0.006 A 
ATOM     40  C   UNL     1       5.096   2.912  23.375  0.00  0.00    +0.143 C 
BRANCH  40  41
ATOM     41  O   UNL     1       5.693   1.858  22.610  0.00  0.00    -0.389 OA
ATOM     42  H   UNL     1       6.661   1.923  22.734  0.00  0.00    +0.210 HD
ENDBRANCH  40  41
ENDBRANCH  29  32
ENDBRANCH  27  28
BRANCH  27  43
ATOM     43  C   UNL     1       4.338  -1.301  27.770  0.00  0.00    +0.048 C 
BRANCH  43  44
ATOM     44  C   UNL     1       4.273  -2.800  27.994  0.00  0.00    -0.047 A 
ATOM     45  C   UNL     1       3.100  -3.313  28.577  0.00  0.00    +0.003 A 
ATOM     46  C   UNL     1       2.960  -4.676  28.857  0.00  0.00    +0.000 A 
ATOM     47  C   UNL     1       3.994  -5.554  28.556  0.00  0.00    +0.000 A 
ATOM     48  C   UNL     1       5.160  -5.067  27.977  0.00  0.00    +0.000 A 
ATOM     49  C   UNL     1       5.300  -3.697  27.692  0.00  0.00    +0.003 A 
ENDBRANCH  43  44
ENDBRANCH  27  43
ENDBRANCH  26  27
ENDBRANCH   1  26
TORSDOF 14
ENDMDL
MODEL 6
REMARK VINA RESULT:      -6.6      2.241      3.694
REMARK  Name = 
REMARK  17 active torsions:
REMARK  status: ('A' for Active; 'I' for Inactive)
REMARK    1  A    between atoms: C_1  and  C_2
REMARK    2  A    between atoms: C_2  and  C_3
REMARK    3  A    between atoms: C_2  and  C_4
REMARK    4  A    between atoms: C_2  and  N_5
REMARK    5  A    between atoms: C_6  and  C_8
REMARK    6  A    between atoms: N_11  and  C_12
REMARK    7  A    between atoms: C_12  and  C_13
REMARK    8  A    between atoms: N_21  and  C_22
REMARK    9  A    between atoms: C_22  and  C_23
REMARK   10  A    between atoms: C_23  and  O_25
REMARK   11  A    between atoms: C_23  and  C_26
REMARK   12  A    between atoms: C_26  and  C_27
REMARK   13  A    between atoms: C_27  and  C_29
REMARK   14  A    between atoms: C_27  and  C_36
REMARK   15  A    between atoms: C_29  and  C_30
REMARK   16  A    between atoms: N_38  and  C_39
REMARK   17  A    between atoms: C_41  and  O_43
REMARK                            x       y       z     vdW  Elec       q    Type
REMARK                         _______ _______ _______ _____ _____    ______ ____
ROOT
ATOM      1  C   UNL     1       8.729   0.736  25.983  0.00  0.00    +0.129 C 
ENDROOT
BRANCH   1   2
ATOM      2  O   UNL     1       8.538  -0.672  26.195  0.00  0.00    -0.391 OA
ATOM      3  H   UNL     1       7.966  -0.957  25.456  0.00  0.00    +0.210 HD
ENDBRANCH   1   2
BRANCH   1   4
ATOM      4  C   UNL     1       7.336   1.341  25.673  0.00  0.00    +0.116 C 
BRANCH   4   6
ATOM      5  C   UNL     1       5.082   1.452  26.779  0.00  0.00    +0.157 C 
ATOM      6  N   UNL     1       6.581   1.515  26.953  0.00  0.00    -0.287 NA
ATOM      7  C   UNL     1       6.866   2.848  27.557  0.00  0.00    +0.100 C 
ATOM      8  C   UNL     1       6.430   4.056  26.709  0.00  0.00    +0.100 C 
ATOM      9  N   UNL     1       4.994   4.045  26.368  0.00  0.00    -0.295 NA
ATOM     10  C   UNL     1       4.538   2.678  25.891  0.00  0.00    +0.113 C 
BRANCH   5  13
ATOM     11  N   UNL     1       5.493  -1.111  26.703  0.00  0.00    -0.309 N 
ATOM     12  H   UNL     1       6.438  -0.740  26.757  0.00  0.00    +0.149 HD
ATOM     13  C   UNL     1       4.539  -0.088  26.571  0.00  0.00    +0.232 C 
ATOM     14  O   UNL     1       3.339  -0.324  26.414  0.00  0.00    -0.274 OA
BRANCH  11  16
ATOM     15  C   UNL     1       6.733  -3.376  26.932  0.00  0.00    +0.031 C 
ATOM     16  C   UNL     1       5.388  -2.633  26.801  0.00  0.00    +0.026 C 
ATOM     17  C   UNL     1       4.570  -2.997  28.070  0.00  0.00    +0.031 C 
ATOM     18  C   UNL     1       4.624  -3.293  25.621  0.00  0.00    +0.031 C 
ENDBRANCH  11  16
ENDBRANCH   5  13
BRANCH   9  19
ATOM     19  C   UNL     1       4.761   5.181  25.441  0.00  0.00    +0.121 C 
BRANCH  19  20
ATOM     20  C   UNL     1       5.657   5.279  24.238  0.00  0.00    -0.015 A 
ATOM     21  C   UNL     1       5.838   4.212  23.352  0.00  0.00    +0.008 A 
ATOM     22  C   UNL     1       6.627   4.382  22.216  0.00  0.00    +0.020 A 
ATOM     23  C   UNL     1       7.199   5.623  21.992  0.00  0.00    +0.111 A 
ATOM     24  N   UNL     1       7.018   6.687  22.802  0.00  0.00    -0.263 NA
ATOM     25  C   UNL     1       6.252   6.491  23.898  0.00  0.00    +0.115 A 
ENDBRANCH  19  20
ENDBRANCH   9  19
ENDBRANCH   4   6
ENDBRANCH   1   4
BRANCH   1  26
ATOM     26  C   UNL     1       9.818   0.888  24.924  0.00  0.00    +0.045 C 
BRANCH  26  27
ATOM     27  C   UNL     1       9.402   1.181  23.460  0.00  0.00    +0.082 C 
BRANCH  27  28
ATOM     28  C   UNL     1       9.268  -0.164  22.720  0.00  0.00    +0.217 C 
ATOM     29  N   UNL     1       8.233  -0.988  23.094  0.00  0.00    -0.306 N 
ATOM     30  H   UNL     1       7.604  -0.738  23.842  0.00  0.00    +0.149 HD
ATOM     31  O   UNL     1      10.104  -0.536  21.898  0.00  0.00    -0.275 OA
BRANCH  29  32
ATOM     32  C   UNL     1       8.175  -2.338  22.566  0.00  0.00    +0.132 C 
ATOM     33  C   UNL     1       8.503  -3.378  23.594  0.00  0.00    -0.022 A 
ATOM     34  C   UNL     1       7.638  -4.471  23.494  0.00  0.00    -0.040 A 
ATOM     35  C   UNL     1       7.895  -5.645  24.201  0.00  0.00    +0.004 A 
ATOM     36  C   UNL     1       9.026  -5.694  25.028  0.00  0.00    +0.000 A 
ATOM     37  C   UNL     1       9.855  -4.582  25.160  0.00  0.00    +0.000 A 
ATOM     38  C   UNL     1       6.518  -4.229  22.538  0.00  0.00    +0.069 C 
ATOM     39  C   UNL     1       9.598  -3.413  24.447  0.00  0.00    +0.006 A 
ATOM     40  C   UNL     1       6.784  -2.798  22.017  0.00  0.00    +0.143 C 
BRANCH  40  41
ATOM     41  O   UNL     1       5.694  -1.957  22.415  0.00  0.00    -0.389 OA
ATOM     42  H   UNL     1       5.983  -1.466  23.210  0.00  0.00    +0.210 HD
ENDBRANCH  40  41
ENDBRANCH  29  32
ENDBRANCH  27  28
BRANCH  27  43
ATOM     43  C   UNL     1      10.237   2.250  22.716  0.00  0.00    +0.048 C 
BRANCH  43  44
ATOM     44  C   UNL     1      10.596   3.596  23.315  0.00  0.00    -0.047 A 
ATOM     45  C   UNL     1       9.597   4.260  24.050  0.00  0.00    +0.003 A 
ATOM     46  C   UNL     1       9.819   5.521  24.611  0.00  0.00    +0.000 A 
ATOM     47  C   UNL     1      11.051   6.144  24.448  0.00  0.00    +0.000 A 
ATOM     48  C   UNL     1      12.053   5.503  23.728  0.00  0.00    +0.000 A 
ATOM     49  C   UNL     1      11.830   4.233  23.167  0.00  0.00    +0.003 A 
ENDBRANCH  43  44
ENDBRANCH  27  43
ENDBRANCH  26  27
ENDBRANCH   1  26
TORSDOF 14
ENDMDL
MODEL 7
REMARK VINA RESULT:      -6.6      1.951      2.793
REMARK  Name = 
REMARK  17 active torsions:
REMARK  status: ('A' for Active; 'I' for Inactive)
REMARK    1  A    between atoms: C_1  and  C_2
REMARK    2  A    between atoms: C_2  and  C_3
REMARK    3  A    between atoms: C_2  and  C_4
REMARK    4  A    between atoms: C_2  and  N_5
REMARK    5  A    between atoms: C_6  and  C_8
REMARK    6  A    between atoms: N_11  and  C_12
REMARK    7  A    between atoms: C_12  and  C_13
REMARK    8  A    between atoms: N_21  and  C_22
REMARK    9  A    between atoms: C_22  and  C_23
REMARK   10  A    between atoms: C_23  and  O_25
REMARK   11  A    between atoms: C_23  and  C_26
REMARK   12  A    between atoms: C_26  and  C_27
REMARK   13  A    between atoms: C_27  and  C_29
REMARK   14  A    between atoms: C_27  and  C_36
REMARK   15  A    between atoms: C_29  and  C_30
REMARK   16  A    between atoms: N_38  and  C_39
REMARK   17  A    between atoms: C_41  and  O_43
REMARK                            x       y       z     vdW  Elec       q    Type
REMARK                         _______ _______ _______ _____ _____    ______ ____
ROOT
ATOM      1  C   UNL     1       7.356  -0.976  27.047  0.00  0.00    +0.129 C 
ENDROOT
BRANCH   1   2
ATOM      2  O   UNL     1       6.493  -2.099  26.815  0.00  0.00    -0.391 OA
ATOM      3  H   UNL     1       7.095  -2.827  26.569  0.00  0.00    +0.210 HD
ENDBRANCH   1   2
BRANCH   1   4
ATOM      4  C   UNL     1       6.590   0.289  26.583  0.00  0.00    +0.116 C 
BRANCH   4   6
ATOM      5  C   UNL     1       4.507   1.025  27.783  0.00  0.00    +0.157 C 
ATOM      6  N   UNL     1       6.017   0.982  27.779  0.00  0.00    -0.287 NA
ATOM      7  C   UNL     1       6.466   2.403  27.832  0.00  0.00    +0.100 C 
ATOM      8  C   UNL     1       6.008   3.276  26.651  0.00  0.00    +0.100 C 
ATOM      9  N   UNL     1       4.543   3.302  26.475  0.00  0.00    -0.295 NA
ATOM     10  C   UNL     1       3.939   1.914  26.569  0.00  0.00    +0.113 C 
BRANCH   5  13
ATOM     11  N   UNL     1       3.360  -1.214  27.142  0.00  0.00    -0.309 N 
ATOM     12  H   UNL     1       3.349  -0.705  26.262  0.00  0.00    +0.149 HD
ATOM     13  C   UNL     1       3.840  -0.422  28.197  0.00  0.00    +0.232 C 
ATOM     14  O   UNL     1       3.864  -0.822  29.364  0.00  0.00    -0.274 OA
BRANCH  11  16
ATOM     15  C   UNL     1       1.363  -2.865  27.245  0.00  0.00    +0.031 C 
ATOM     16  C   UNL     1       2.881  -2.664  27.057  0.00  0.00    +0.026 C 
ATOM     17  C   UNL     1       3.217  -3.220  25.647  0.00  0.00    +0.031 C 
ATOM     18  C   UNL     1       3.586  -3.625  28.053  0.00  0.00    +0.031 C 
ENDBRANCH  11  16
ENDBRANCH   5  13
BRANCH   9  19
ATOM     19  C   UNL     1       4.271   4.060  25.227  0.00  0.00    +0.121 C 
BRANCH  19  20
ATOM     20  C   UNL     1       5.208   3.838  24.073  0.00  0.00    -0.015 A 
ATOM     21  C   UNL     1       5.395   2.578  23.493  0.00  0.00    +0.008 A 
ATOM     22  C   UNL     1       6.224   2.445  22.381  0.00  0.00    +0.020 A 
ATOM     23  C   UNL     1       6.830   3.581  21.871  0.00  0.00    +0.111 A 
ATOM     24  N   UNL     1       6.644   4.818  22.377  0.00  0.00    -0.263 NA
ATOM     25  C   UNL     1       5.839   4.917  23.459  0.00  0.00    +0.115 A 
ENDBRANCH  19  20
ENDBRANCH   9  19
ENDBRANCH   4   6
ENDBRANCH   1   4
BRANCH   1  26
ATOM     26  C   UNL     1       8.688  -1.284  26.367  0.00  0.00    +0.045 C 
BRANCH  26  27
ATOM     27  C   UNL     1       8.795  -1.135  24.828  0.00  0.00    +0.082 C 
BRANCH  27  28
ATOM     28  C   UNL     1       8.623  -2.531  24.197  0.00  0.00    +0.217 C 
ATOM     29  N   UNL     1       7.344  -2.926  23.881  0.00  0.00    -0.306 N 
ATOM     30  H   UNL     1       6.547  -2.340  24.079  0.00  0.00    +0.149 HD
ATOM     31  O   UNL     1       9.571  -3.305  24.071  0.00  0.00    -0.275 OA
BRANCH  29  32
ATOM     32  C   UNL     1       7.107  -4.295  23.465  0.00  0.00    +0.132 C 
ATOM     33  C   UNL     1       6.248  -5.055  24.429  0.00  0.00    -0.022 A 
ATOM     34  C   UNL     1       5.310  -5.839  23.754  0.00  0.00    -0.040 A 
ATOM     35  C   UNL     1       4.557  -6.792  24.440  0.00  0.00    +0.004 A 
ATOM     36  C   UNL     1       4.747  -6.926  25.822  0.00  0.00    +0.000 A 
ATOM     37  C   UNL     1       5.649  -6.105  26.496  0.00  0.00    +0.000 A 
ATOM     38  C   UNL     1       5.286  -5.567  22.287  0.00  0.00    +0.069 C 
ATOM     39  C   UNL     1       6.404  -5.158  25.805  0.00  0.00    +0.006 A 
ATOM     40  C   UNL     1       6.365  -4.475  22.100  0.00  0.00    +0.143 C 
BRANCH  40  41
ATOM     41  O   UNL     1       5.730  -3.284  21.620  0.00  0.00    -0.389 OA
ATOM     42  H   UNL     1       5.717  -2.645  22.361  0.00  0.00    +0.210 HD
ENDBRANCH  40  41
ENDBRANCH  29  32
ENDBRANCH  27  28
BRANCH  27  43
ATOM     43  C   UNL     1      10.009  -0.333  24.304  0.00  0.00    +0.048 C 
BRANCH  43  44
ATOM     44  C   UNL     1      10.017   1.178  24.167  0.00  0.00    -0.047 A 
ATOM     45  C   UNL     1       9.002   1.889  24.833  0.00  0.00    +0.003 A 
ATOM     46  C   UNL     1       8.902   3.280  24.739  0.00  0.00    +0.000 A 
ATOM     47  C   UNL     1       9.821   3.989  23.974  0.00  0.00    +0.000 A 
ATOM     48  C   UNL     1      10.833   3.305  23.310  0.00  0.00    +0.000 A 
ATOM     49  C   UNL     1      10.935   1.907  23.408  0.00  0.00    +0.003 A 
ENDBRANCH  43  44
ENDBRANCH  27  43
ENDBRANCH  26  27
ENDBRANCH   1  26
TORSDOF 14
ENDMDL
MODEL 8
REMARK VINA RESULT:      -6.6      2.369      6.319
REMARK  Name = 
REMARK  17 active torsions:
REMARK  status: ('A' for Active; 'I' for Inactive)
REMARK    1  A    between atoms: C_1  and  C_2
REMARK    2  A    between atoms: C_2  and  C_3
REMARK    3  A    between atoms: C_2  and  C_4
REMARK    4  A    between atoms: C_2  and  N_5
REMARK    5  A    between atoms: C_6  and  C_8
REMARK    6  A    between atoms: N_11  and  C_12
REMARK    7  A    between atoms: C_12  and  C_13
REMARK    8  A    between atoms: N_21  and  C_22
REMARK    9  A    between atoms: C_22  and  C_23
REMARK   10  A    between atoms: C_23  and  O_25
REMARK   11  A    between atoms: C_23  and  C_26
REMARK   12  A    between atoms: C_26  and  C_27
REMARK   13  A    between atoms: C_27  and  C_29
REMARK   14  A    between atoms: C_27  and  C_36
REMARK   15  A    between atoms: C_29  and  C_30
REMARK   16  A    between atoms: N_38  and  C_39
REMARK   17  A    between atoms: C_41  and  O_43
REMARK                            x       y       z     vdW  Elec       q    Type
REMARK                         _______ _______ _______ _____ _____    ______ ____
ROOT
ATOM      1  C   UNL     1       8.652  -2.671  25.535  0.00  0.00    +0.129 C 
ENDROOT
BRANCH   1   2
ATOM      2  O   UNL     1       8.592  -3.625  26.607  0.00  0.00    -0.391 OA
ATOM      3  H   UNL     1       7.639  -3.803  26.725  0.00  0.00    +0.210 HD
ENDBRANCH   1   2
BRANCH   1   4
ATOM      4  C   UNL     1       7.311  -1.893  25.545  0.00  0.00    +0.116 C 
BRANCH   4   6
ATOM      5  C   UNL     1       5.651  -1.084  27.250  0.00  0.00    +0.157 C 
ATOM      6  N   UNL     1       7.106  -1.286  26.897  0.00  0.00    -0.287 NA
ATOM      7  C   UNL     1       7.736   0.063  26.972  0.00  0.00    +0.100 C 
ATOM      8  C   UNL     1       7.150   1.110  26.010  0.00  0.00    +0.100 C 
ATOM      9  N   UNL     1       5.697   1.312  26.177  0.00  0.00    -0.295 NA
ATOM     10  C   UNL     1       4.953  -0.006  26.283  0.00  0.00    +0.113 C 
BRANCH   5  13
ATOM     11  N   UNL     1       5.389  -3.661  27.068  0.00  0.00    -0.309 N 
ATOM     12  H   UNL     1       6.040  -3.455  26.314  0.00  0.00    +0.149 HD
ATOM     13  C   UNL     1       4.909  -2.490  27.676  0.00  0.00    +0.232 C 
ATOM     14  O   UNL     1       4.050  -2.513  28.562  0.00  0.00    -0.274 OA
BRANCH  11  16
ATOM     15  C   UNL     1       3.680  -5.607  27.185  0.00  0.00    +0.031 C 
ATOM     16  C   UNL     1       5.146  -5.148  27.324  0.00  0.00    +0.026 C 
ATOM     17  C   UNL     1       5.955  -5.974  26.287  0.00  0.00    +0.031 C 
ATOM     18  C   UNL     1       5.639  -5.643  28.711  0.00  0.00    +0.031 C 
ENDBRANCH  11  16
ENDBRANCH   5  13
BRANCH   9  19
ATOM     19  C   UNL     1       5.262   2.233  25.096  0.00  0.00    +0.121 C 
BRANCH  19  20
ATOM     20  C   UNL     1       5.351   3.707  25.374  0.00  0.00    -0.015 A 
ATOM     21  C   UNL     1       6.357   4.257  26.175  0.00  0.00    +0.008 A 
ATOM     22  C   UNL     1       6.431   5.639  26.343  0.00  0.00    +0.020 A 
ATOM     23  C   UNL     1       5.503   6.431  25.688  0.00  0.00    +0.111 A 
ATOM     24  N   UNL     1       4.542   5.943  24.877  0.00  0.00    -0.263 NA
ATOM     25  C   UNL     1       4.492   4.598  24.738  0.00  0.00    +0.115 A 
ENDBRANCH  19  20
ENDBRANCH   9  19
ENDBRANCH   4   6
ENDBRANCH   1   4
BRANCH   1  26
ATOM     26  C   UNL     1       9.014  -3.440  24.267  0.00  0.00    +0.045 C 
BRANCH  26  27
ATOM     27  C   UNL     1       8.679  -2.812  22.890  0.00  0.00    +0.082 C 
BRANCH  27  28
ATOM     28  C   UNL     1       9.512  -1.525  22.734  0.00  0.00    +0.217 C 
ATOM     29  N   UNL     1       8.921  -0.342  23.112  0.00  0.00    -0.306 N 
ATOM     30  H   UNL     1       7.971  -0.312  23.450  0.00  0.00    +0.149 HD
ATOM     31  O   UNL     1      10.622  -1.533  22.202  0.00  0.00    -0.275 OA
BRANCH  29  32
ATOM     32  C   UNL     1       9.586   0.912  22.810  0.00  0.00    +0.132 C 
ATOM     33  C   UNL     1       8.637   2.070  22.740  0.00  0.00    -0.022 A 
ATOM     34  C   UNL     1       9.174   3.195  23.369  0.00  0.00    -0.040 A 
ATOM     35  C   UNL     1       8.562   4.441  23.234  0.00  0.00    +0.004 A 
ATOM     36  C   UNL     1       7.388   4.532  22.474  0.00  0.00    +0.000 A 
ATOM     37  C   UNL     1       6.833   3.395  21.891  0.00  0.00    +0.000 A 
ATOM     38  C   UNL     1      10.440   2.894  24.099  0.00  0.00    +0.069 C 
ATOM     39  C   UNL     1       7.450   2.152  22.023  0.00  0.00    +0.006 A 
ATOM     40  C   UNL     1      10.658   1.384  23.847  0.00  0.00    +0.143 C 
BRANCH  40  41
ATOM     41  O   UNL     1      10.595   0.698  25.103  0.00  0.00    -0.389 OA
ATOM     42  H   UNL     1      11.470   0.288  25.253  0.00  0.00    +0.210 HD
ENDBRANCH  40  41
ENDBRANCH  29  32
ENDBRANCH  27  28
BRANCH  27  43
ATOM     43  C   UNL     1       7.175  -2.654  22.562  0.00  0.00    +0.048 C 
BRANCH  43  44
ATOM     44  C   UNL     1       6.162  -3.770  22.732  0.00  0.00    -0.047 A 
ATOM     45  C   UNL     1       6.499  -5.031  22.209  0.00  0.00    +0.003 A 
ATOM     46  C   UNL     1       5.616  -6.113  22.284  0.00  0.00    +0.000 A 
ATOM     47  C   UNL     1       4.376  -5.953  22.889  0.00  0.00    +0.000 A 
ATOM     48  C   UNL     1       4.024  -4.715  23.415  0.00  0.00    +0.000 A 
ATOM     49  C   UNL     1       4.913  -3.628  23.342  0.00  0.00    +0.003 A 
ENDBRANCH  43  44
ENDBRANCH  27  43
ENDBRANCH  26  27
ENDBRANCH   1  26
TORSDOF 14
ENDMDL
MODEL 9
REMARK VINA RESULT:      -6.5      2.464      7.481
REMARK  Name = 
REMARK  17 active torsions:
REMARK  status: ('A' for Active; 'I' for Inactive)
REMARK    1  A    between atoms: C_1  and  C_2
REMARK    2  A    between atoms: C_2  and  C_3
REMARK    3  A    between atoms: C_2  and  C_4
REMARK    4  A    between atoms: C_2  and  N_5
REMARK    5  A    between atoms: C_6  and  C_8
REMARK    6  A    between atoms: N_11  and  C_12
REMARK    7  A    between atoms: C_12  and  C_13
REMARK    8  A    between atoms: N_21  and  C_22
REMARK    9  A    between atoms: C_22  and  C_23
REMARK   10  A    between atoms: C_23  and  O_25
REMARK   11  A    between atoms: C_23  and  C_26
REMARK   12  A    between atoms: C_26  and  C_27
REMARK   13  A    between atoms: C_27  and  C_29
REMARK   14  A    between atoms: C_27  and  C_36
REMARK   15  A    between atoms: C_29  and  C_30
REMARK   16  A    between atoms: N_38  and  C_39
REMARK   17  A    between atoms: C_41  and  O_43
REMARK                            x       y       z     vdW  Elec       q    Type
REMARK                         _______ _______ _______ _____ _____    ______ ____
ROOT
ATOM      1  C   UNL     1       7.844  -1.065  27.017  0.00  0.00    +0.129 C 
ENDROOT
BRANCH   1   2
ATOM      2  O   UNL     1       9.248  -0.765  27.063  0.00  0.00    -0.391 OA
ATOM      3  H   UNL     1       9.307   0.174  26.803  0.00  0.00    +0.210 HD
ENDBRANCH   1   2
BRANCH   1   4
ATOM      4  C   UNL     1       7.653  -2.183  25.961  0.00  0.00    +0.116 C 
BRANCH   4   6
ATOM      5  C   UNL     1       9.314  -2.410  24.088  0.00  0.00    +0.157 C 
ATOM      6  N   UNL     1       8.995  -2.692  25.537  0.00  0.00    -0.287 NA
ATOM      7  C   UNL     1       9.070  -4.173  25.691  0.00  0.00    +0.100 C 
ATOM      8  C   UNL     1       8.086  -4.971  24.819  0.00  0.00    +0.100 C 
ATOM      9  N   UNL     1       8.219  -4.689  23.377  0.00  0.00    -0.295 NA
ATOM     10  C   UNL     1       8.321  -3.201  23.100  0.00  0.00    +0.113 C 
BRANCH   5  13
ATOM     11  N   UNL     1       8.815  -0.050  23.126  0.00  0.00    -0.309 N 
ATOM     12  H   UNL     1       8.067  -0.611  22.725  0.00  0.00    +0.149 HD
ATOM     13  C   UNL     1       9.736  -0.840  23.833  0.00  0.00    +0.232 C 
ATOM     14  O   UNL     1      10.760  -0.367  24.334  0.00  0.00    -0.274 OA
BRANCH  11  16
ATOM     15  C   UNL     1       8.900   2.349  24.105  0.00  0.00    +0.031 C 
ATOM     16  C   UNL     1       8.708   1.452  22.865  0.00  0.00    +0.026 C 
ATOM     17  C   UNL     1       9.816   1.866  21.859  0.00  0.00    +0.031 C 
ATOM     18  C   UNL     1       7.373   1.887  22.201  0.00  0.00    +0.031 C 
ENDBRANCH  11  16
ENDBRANCH   5  13
BRANCH   9  19
ATOM     19  C   UNL     1       7.121  -5.416  22.691  0.00  0.00    +0.121 C 
BRANCH  19  20
ATOM     20  C   UNL     1       5.760  -5.360  23.326  0.00  0.00    -0.015 A 
ATOM     21  C   UNL     1       5.030  -4.170  23.425  0.00  0.00    +0.008 A 
ATOM     22  C   UNL     1       3.744  -4.190  23.961  0.00  0.00    +0.020 A 
ATOM     23  C   UNL     1       3.220  -5.405  24.369  0.00  0.00    +0.111 A 
ATOM     24  N   UNL     1       3.876  -6.579  24.255  0.00  0.00    -0.263 NA
ATOM     25  C   UNL     1       5.124  -6.528  23.735  0.00  0.00    +0.115 A 
ENDBRANCH  19  20
ENDBRANCH   9  19
ENDBRANCH   4   6
ENDBRANCH   1   4
BRANCH   1  26
ATOM     26  C   UNL     1       7.108   0.254  26.792  0.00  0.00    +0.045 C 
BRANCH  26  27
ATOM     27  C   UNL     1       5.808   0.531  27.588  0.00  0.00    +0.082 C 
BRANCH  27  28
ATOM     28  C   UNL     1       4.724  -0.447  27.094  0.00  0.00    +0.217 C 
ATOM     29  N   UNL     1       4.435  -1.525  27.898  0.00  0.00    -0.306 N 
ATOM     30  H   UNL     1       4.931  -1.687  28.761  0.00  0.00    +0.149 HD
ATOM     31  O   UNL     1       4.205  -0.332  25.985  0.00  0.00    -0.275 OA
BRANCH  29  32
ATOM     32  C   UNL     1       3.566  -2.572  27.396  0.00  0.00    +0.132 C 
ATOM     33  C   UNL     1       4.116  -3.946  27.631  0.00  0.00    -0.022 A 
ATOM     34  C   UNL     1       3.112  -4.821  28.052  0.00  0.00    -0.040 A 
ATOM     35  C   UNL     1       3.351  -6.194  28.116  0.00  0.00    +0.004 A 
ATOM     36  C   UNL     1       4.624  -6.669  27.772  0.00  0.00    +0.000 A 
ATOM     37  C   UNL     1       5.633  -5.783  27.401  0.00  0.00    +0.000 A 
ATOM     38  C   UNL     1       1.825  -4.123  28.337  0.00  0.00    +0.069 C 
ATOM     39  C   UNL     1       5.389  -4.413  27.332  0.00  0.00    +0.006 A 
ATOM     40  C   UNL     1       2.139  -2.640  28.033  0.00  0.00    +0.143 C 
BRANCH  40  41
ATOM     41  O   UNL     1       2.006  -1.887  29.245  0.00  0.00    -0.389 OA
ATOM     42  H   UNL     1       1.767  -2.518  29.953  0.00  0.00    +0.210 HD
ENDBRANCH  40  41
ENDBRANCH  29  32
ENDBRANCH  27  28
BRANCH  27  43
ATOM     43  C   UNL     1       5.359   2.010  27.665  0.00  0.00    +0.048 C 
BRANCH  43  44
ATOM     44  C   UNL     1       5.802   3.069  26.674  0.00  0.00    -0.047 A 
ATOM     45  C   UNL     1       6.811   3.957  27.090  0.00  0.00    +0.003 A 
ATOM     46  C   UNL     1       7.261   4.991  26.262  0.00  0.00    +0.000 A 
ATOM     47  C   UNL     1       6.709   5.154  24.997  0.00  0.00    +0.000 A 
ATOM     48  C   UNL     1       5.712   4.285  24.567  0.00  0.00    +0.000 A 
ATOM     49  C   UNL     1       5.262   3.244  25.398  0.00  0.00    +0.003 A 
ENDBRANCH  43  44
ENDBRANCH  27  43
ENDBRANCH  26  27
ENDBRANCH   1  26
TORSDOF 14
ENDMDL
