MODEL 1
REMARK VINA RESULT:      -5.6      0.000      0.000
REMARK  Name = 
REMARK  8 active torsions:
REMARK  status: ('A' for Active; 'I' for Inactive)
REMARK    1  A    between atoms: O_1  and  C_2
REMARK    2  A    between atoms: C_2  and  C_4
REMARK    3  A    between atoms: C_4  and  C_5
REMARK    4  A    between atoms: C_5  and  C_6
REMARK    5  A    between atoms: C_6  and  C_7
REMARK    6  A    between atoms: C_7  and  C_8
REMARK    7  A    between atoms: C_8  and  N_9
REMARK    8  A    between atoms: N_12  and  C_13
REMARK                            x       y       z     vdW  Elec       q    Type
REMARK                         _______ _______ _______ _____ _____    ______ ____
ROOT
ATOM      1  N   UNL     1       6.211  -2.043  23.271  0.00  0.00    -0.299 N 
ATOM      2  H   UNL     1       5.991  -1.421  24.034  0.00  0.00    +0.150 HD
ATOM      3  C   UNL     1       7.510  -2.053  22.831  0.00  0.00    +0.300 C 
ATOM      4  N   UNL     1       8.197  -0.944  23.254  0.00  0.00    -0.297 N 
ATOM      5  H   UNL     1       7.635  -0.126  23.433  0.00  0.00    +0.151 HD
ATOM      6  O   UNL     1       8.000  -2.945  22.154  0.00  0.00    -0.253 OA
ENDROOT
BRANCH   4   7
ATOM      7  C   UNL     1       9.586  -0.735  22.858  0.00  0.00    +0.074 C 
ATOM      8  C   UNL     1      10.407  -0.191  24.031  0.00  0.00    +0.022 C 
ATOM      9  C   UNL     1      10.087   1.267  24.355  0.00  0.00    +0.002 C 
ATOM     10  C   UNL     1      10.206   2.159  23.124  0.00  0.00    +0.000 C 
ATOM     11  C   UNL     1       9.367   1.641  21.960  0.00  0.00    +0.002 C 
ATOM     12  C   UNL     1       9.693   0.184  21.632  0.00  0.00    +0.022 C 
ENDBRANCH   4   7
BRANCH   1  13
ATOM     13  C   UNL     1       5.328  -3.164  23.022  0.00  0.00    +0.106 C 
BRANCH  13  14
ATOM     14  C   UNL     1       5.198  -4.063  24.247  0.00  0.00    +0.019 C 
BRANCH  14  15
ATOM     15  C   UNL     1       6.250  -5.177  24.277  0.00  0.00    +0.002 C 
BRANCH  15  16
ATOM     16  C   UNL     1       6.970  -5.292  25.623  0.00  0.00    +0.011 C 
BRANCH  16  17
ATOM     17  C   UNL     1       8.063  -4.240  25.812  0.00  0.00    +0.120 C 
BRANCH  17  18
ATOM     18  C   UNL     1       9.378  -4.663  25.200  0.00  0.00    +0.305 C 
ATOM     19  O   UNL     1      10.062  -3.989  24.448  0.00  0.00    -0.251 OA
BRANCH  18  20
ATOM     20  O   UNL     1       9.740  -5.910  25.588  0.00  0.00    -0.481 OA
ATOM     21  H   UNL     1       9.006  -6.435  25.958  0.00  0.00    +0.295 HD
ENDBRANCH  18  20
ENDBRANCH  17  18
ENDBRANCH  16  17
ENDBRANCH  15  16
ENDBRANCH  14  15
ENDBRANCH  13  14
ENDBRANCH   1  13
TORSDOF 8
ENDMDL
MODEL 2
REMARK VINA RESULT:      -5.5      1.387      3.012
REMARK  Name = 
REMARK  8 active torsions:
REMARK  status: ('A' for Active; 'I' for Inactive)
REMARK    1  A    between atoms: O_1  and  C_2
REMARK    2  A    between atoms: C_2  and  C_4
REMARK    3  A    between atoms: C_4  and  C_5
REMARK    4  A    between atoms: C_5  and  C_6
REMARK    5  A    between atoms: C_6  and  C_7
REMARK    6  A    between atoms: C_7  and  C_8
REMARK    7  A    between atoms: C_8  and  N_9
REMARK    8  A    between atoms: N_12  and  C_13
REMARK                            x       y       z     vdW  Elec       q    Type
REMARK                         _______ _______ _______ _____ _____    ______ ____
ROOT
ATOM      1  N   UNL     1       8.073  -2.973  24.985  0.00  0.00    -0.299 N 
ATOM      2  H   UNL     1       7.472  -2.227  25.300  0.00  0.00    +0.150 HD
ATOM      3  C   UNL     1       9.197  -2.613  24.287  0.00  0.00    +0.300 C 
ATOM      4  N   UNL     1       9.111  -1.328  23.815  0.00  0.00    -0.297 N 
ATOM      5  H   UNL     1       8.177  -0.984  23.657  0.00  0.00    +0.151 HD
ATOM      6  O   UNL     1      10.162  -3.343  24.115  0.00  0.00    -0.253 OA
ENDROOT
BRANCH   4   7
ATOM      7  C   UNL     1      10.185  -0.762  23.006  0.00  0.00    +0.074 C 
ATOM      8  C   UNL     1      10.827   0.434  23.717  0.00  0.00    +0.022 C 
ATOM      9  C   UNL     1       9.930   1.670  23.727  0.00  0.00    +0.002 C 
ATOM     10  C   UNL     1       9.460   2.039  22.324  0.00  0.00    +0.000 C 
ATOM     11  C   UNL     1       8.793   0.862  21.618  0.00  0.00    +0.002 C 
ATOM     12  C   UNL     1       9.693  -0.373  21.603  0.00  0.00    +0.022 C 
ENDBRANCH   4   7
BRANCH   1  13
ATOM     13  C   UNL     1       7.986  -4.254  25.654  0.00  0.00    +0.106 C 
BRANCH  13  14
ATOM     14  C   UNL     1       6.660  -4.952  25.366  0.00  0.00    +0.019 C 
BRANCH  14  15
ATOM     15  C   UNL     1       6.547  -5.430  23.915  0.00  0.00    +0.002 C 
BRANCH  15  16
ATOM     16  C   UNL     1       5.141  -5.266  23.332  0.00  0.00    +0.011 C 
BRANCH  16  17
ATOM     17  C   UNL     1       4.719  -3.804  23.182  0.00  0.00    +0.120 C 
BRANCH  17  18
ATOM     18  C   UNL     1       5.634  -3.037  22.258  0.00  0.00    +0.305 C 
ATOM     19  O   UNL     1       6.304  -2.064  22.566  0.00  0.00    -0.251 OA
BRANCH  18  20
ATOM     20  O   UNL     1       5.645  -3.556  21.006  0.00  0.00    -0.481 OA
ATOM     21  H   UNL     1       4.755  -3.721  20.642  0.00  0.00    +0.295 HD
ENDBRANCH  18  20
ENDBRANCH  17  18
ENDBRANCH  16  17
ENDBRANCH  15  16
ENDBRANCH  14  15
ENDBRANCH  13  14
ENDBRANCH   1  13
TORSDOF 8
ENDMDL
MODEL 3
REMARK VINA RESULT:      -5.5      2.354      3.435
REMARK  Name = 
REMARK  8 active torsions:
REMARK  status: ('A' for Active; 'I' for Inactive)
REMARK    1  A    between atoms: O_1  and  C_2
REMARK    2  A    between atoms: C_2  and  C_4
REMARK    3  A    between atoms: C_4  and  C_5
REMARK    4  A    between atoms: C_5  and  C_6
REMARK    5  A    between atoms: C_6  and  C_7
REMARK    6  A    between atoms: C_7  and  C_8
REMARK    7  A    between atoms: C_8  and  N_9
REMARK    8  A    between atoms: N_12  and  C_13
REMARK                            x       y       z     vdW  Elec       q    Type
REMARK                         _______ _______ _______ _____ _____    ______ ____
ROOT
ATOM      1  N   UNL     1       9.166  -2.288  24.430  0.00  0.00    -0.299 N 
ATOM      2  H   UNL     1       8.835  -1.821  25.260  0.00  0.00    +0.150 HD
ATOM      3  C   UNL     1       9.828  -1.520  23.506  0.00  0.00    +0.300 C 
ATOM      4  N   UNL     1       9.594  -0.183  23.698  0.00  0.00    -0.297 N 
ATOM      5  H   UNL     1       8.721   0.046  24.147  0.00  0.00    +0.151 HD
ATOM      6  O   UNL     1      10.547  -1.972  22.627  0.00  0.00    -0.253 OA
ENDROOT
BRANCH   4   7
ATOM      7  C   UNL     1      10.169   0.808  22.794  0.00  0.00    +0.074 C 
ATOM      8  C   UNL     1      10.462   2.114  23.539  0.00  0.00    +0.022 C 
ATOM      9  C   UNL     1       9.196   2.895  23.888  0.00  0.00    +0.002 C 
ATOM     10  C   UNL     1       8.321   3.132  22.662  0.00  0.00    +0.000 C 
ATOM     11  C   UNL     1       7.999   1.831  21.931  0.00  0.00    +0.002 C 
ATOM     12  C   UNL     1       9.266   1.054  21.576  0.00  0.00    +0.022 C 
ENDBRANCH   4   7
BRANCH   1  13
ATOM     13  C   UNL     1       9.344  -3.725  24.475  0.00  0.00    +0.106 C 
BRANCH  13  14
ATOM     14  C   UNL     1       8.028  -4.464  24.258  0.00  0.00    +0.019 C 
BRANCH  14  15
ATOM     15  C   UNL     1       7.519  -4.354  22.817  0.00  0.00    +0.002 C 
BRANCH  15  16
ATOM     16  C   UNL     1       7.362  -5.711  22.126  0.00  0.00    +0.011 C 
BRANCH  16  17
ATOM     17  C   UNL     1       5.965  -5.931  21.545  0.00  0.00    +0.120 C 
BRANCH  17  18
ATOM     18  C   UNL     1       4.882  -5.799  22.590  0.00  0.00    +0.305 C 
ATOM     19  O   UNL     1       4.102  -4.867  22.692  0.00  0.00    -0.251 OA
BRANCH  18  20
ATOM     20  O   UNL     1       4.858  -6.861  23.431  0.00  0.00    -0.481 OA
ATOM     21  H   UNL     1       4.251  -6.750  24.187  0.00  0.00    +0.295 HD
ENDBRANCH  18  20
ENDBRANCH  17  18
ENDBRANCH  16  17
ENDBRANCH  15  16
ENDBRANCH  14  15
ENDBRANCH  13  14
ENDBRANCH   1  13
TORSDOF 8
ENDMDL
MODEL 4
REMARK VINA RESULT:      -5.5      2.046      6.593
REMARK  Name = 
REMARK  8 active torsions:
REMARK  status: ('A' for Active; 'I' for Inactive)
REMARK    1  A    between atoms: O_1  and  C_2
REMARK    2  A    between atoms: C_2  and  C_4
REMARK    3  A    between atoms: C_4  and  C_5
REMARK    4  A    between atoms: C_5  and  C_6
REMARK    5  A    between atoms: C_6  and  C_7
REMARK    6  A    between atoms: C_7  and  C_8
REMARK    7  A    between atoms: C_8  and  N_9
REMARK    8  A    between atoms: N_12  and  C_13
REMARK                            x       y       z     vdW  Elec       q    Type
REMARK                         _______ _______ _______ _____ _____    ______ ____
ROOT
ATOM      1  N   UNL     1       9.118  -1.586  23.311  0.00  0.00    -0.299 N 
ATOM      2  H   UNL     1       8.412  -1.276  22.661  0.00  0.00    +0.150 HD
ATOM      3  C   UNL     1       9.095  -2.910  23.668  0.00  0.00    +0.300 C 
ATOM      4  N   UNL     1       7.891  -3.495  23.370  0.00  0.00    -0.297 N 
ATOM      5  H   UNL     1       7.099  -2.872  23.346  0.00  0.00    +0.151 HD
ATOM      6  O   UNL     1      10.036  -3.500  24.178  0.00  0.00    -0.253 OA
ENDROOT
BRANCH   4   7
ATOM      7  C   UNL     1       7.640  -4.892  23.711  0.00  0.00    +0.074 C 
ATOM      8  C   UNL     1       7.501  -5.741  22.443  0.00  0.00    +0.022 C 
ATOM      9  C   UNL     1       6.188  -5.493  21.703  0.00  0.00    +0.002 C 
ATOM     10  C   UNL     1       4.982  -5.654  22.622  0.00  0.00    +0.000 C 
ATOM     11  C   UNL     1       5.098  -4.789  23.873  0.00  0.00    +0.002 C 
ATOM     12  C   UNL     1       6.409  -5.042  24.617  0.00  0.00    +0.022 C 
ENDBRANCH   4   7
BRANCH   1  13
ATOM     13  C   UNL     1      10.323  -0.795  23.446  0.00  0.00    +0.106 C 
BRANCH  13  14
ATOM     14  C   UNL     1      10.256   0.133  24.654  0.00  0.00    +0.019 C 
BRANCH  14  15
ATOM     15  C   UNL     1      10.401   1.610  24.273  0.00  0.00    +0.002 C 
BRANCH  15  16
ATOM     16  C   UNL     1       9.075   2.375  24.305  0.00  0.00    +0.011 C 
BRANCH  16  17
ATOM     17  C   UNL     1       8.589   2.793  22.916  0.00  0.00    +0.120 C 
BRANCH  17  18
ATOM     18  C   UNL     1       8.083   1.620  22.110  0.00  0.00    +0.305 C 
ATOM     19  O   UNL     1       7.193   0.857  22.447  0.00  0.00    -0.251 OA
BRANCH  18  20
ATOM     20  O   UNL     1       8.735   1.496  20.929  0.00  0.00    -0.481 OA
ATOM     21  H   UNL     1       8.752   2.317  20.402  0.00  0.00    +0.295 HD
ENDBRANCH  18  20
ENDBRANCH  17  18
ENDBRANCH  16  17
ENDBRANCH  15  16
ENDBRANCH  14  15
ENDBRANCH  13  14
ENDBRANCH   1  13
TORSDOF 8
ENDMDL
MODEL 5
REMARK VINA RESULT:      -5.4      2.028      6.141
REMARK  Name = 
REMARK  8 active torsions:
REMARK  status: ('A' for Active; 'I' for Inactive)
REMARK    1  A    between atoms: O_1  and  C_2
REMARK    2  A    between atoms: C_2  and  C_4
REMARK    3  A    between atoms: C_4  and  C_5
REMARK    4  A    between atoms: C_5  and  C_6
REMARK    5  A    between atoms: C_6  and  C_7
REMARK    6  A    between atoms: C_7  and  C_8
REMARK    7  A    between atoms: C_8  and  N_9
REMARK    8  A    between atoms: N_12  and  C_13
REMARK                            x       y       z     vdW  Elec       q    Type
REMARK                         _______ _______ _______ _____ _____    ______ ____
ROOT
ATOM      1  N   UNL     1       8.811  -1.362  21.881  0.00  0.00    -0.299 N 
ATOM      2  H   UNL     1       8.278  -1.488  21.035  0.00  0.00    +0.150 HD
ATOM      3  C   UNL     1       8.765  -2.376  22.803  0.00  0.00    +0.300 C 
ATOM      4  N   UNL     1       7.704  -3.216  22.579  0.00  0.00    -0.297 N 
ATOM      5  H   UNL     1       6.915  -2.804  22.108  0.00  0.00    +0.151 HD
ATOM      6  O   UNL     1       9.575  -2.520  23.707  0.00  0.00    -0.253 OA
ENDROOT
BRANCH   4   7
ATOM      7  C   UNL     1       7.445  -4.339  23.475  0.00  0.00    +0.074 C 
ATOM      8  C   UNL     1       7.488  -5.664  22.708  0.00  0.00    +0.022 C 
ATOM      9  C   UNL     1       6.274  -5.866  21.803  0.00  0.00    +0.002 C 
ATOM     10  C   UNL     1       4.966  -5.702  22.568  0.00  0.00    +0.000 C 
ATOM     11  C   UNL     1       4.902  -4.370  23.311  0.00  0.00    +0.002 C 
ATOM     12  C   UNL     1       6.113  -4.172  24.221  0.00  0.00    +0.022 C 
ENDBRANCH   4   7
BRANCH   1  13
ATOM     13  C   UNL     1       9.903  -0.410  21.869  0.00  0.00    +0.106 C 
BRANCH  13  14
ATOM     14  C   UNL     1       9.411   1.011  21.618  0.00  0.00    +0.019 C 
BRANCH  14  15
ATOM     15  C   UNL     1      10.233   2.063  22.370  0.00  0.00    +0.002 C 
BRANCH  15  16
ATOM     16  C   UNL     1      10.397   1.751  23.860  0.00  0.00    +0.011 C 
BRANCH  16  17
ATOM     17  C   UNL     1       9.089   1.864  24.644  0.00  0.00    +0.120 C 
BRANCH  17  18
ATOM     18  C   UNL     1       8.654   0.540  25.227  0.00  0.00    +0.305 C 
ATOM     19  O   UNL     1       7.518   0.096  25.211  0.00  0.00    -0.251 OA
BRANCH  18  20
ATOM     20  O   UNL     1       9.689  -0.134  25.784  0.00  0.00    -0.481 OA
ATOM     21  H   UNL     1      10.565   0.203  25.520  0.00  0.00    +0.295 HD
ENDBRANCH  18  20
ENDBRANCH  17  18
ENDBRANCH  16  17
ENDBRANCH  15  16
ENDBRANCH  14  15
ENDBRANCH  13  14
ENDBRANCH   1  13
TORSDOF 8
ENDMDL
MODEL 6
REMARK VINA RESULT:      -5.4      1.982      6.556
REMARK  Name = 
REMARK  8 active torsions:
REMARK  status: ('A' for Active; 'I' for Inactive)
REMARK    1  A    between atoms: O_1  and  C_2
REMARK    2  A    between atoms: C_2  and  C_4
REMARK    3  A    between atoms: C_4  and  C_5
REMARK    4  A    between atoms: C_5  and  C_6
REMARK    5  A    between atoms: C_6  and  C_7
REMARK    6  A    between atoms: C_7  and  C_8
REMARK    7  A    between atoms: C_8  and  N_9
REMARK    8  A    between atoms: N_12  and  C_13
REMARK                            x       y       z     vdW  Elec       q    Type
REMARK                         _______ _______ _______ _____ _____    ______ ____
ROOT
ATOM      1  N   UNL     1       9.800  -0.864  24.345  0.00  0.00    -0.299 N 
ATOM      2  H   UNL     1       9.007  -0.566  24.891  0.00  0.00    +0.150 HD
ATOM      3  C   UNL     1       9.819  -2.173  23.936  0.00  0.00    +0.300 C 
ATOM      4  N   UNL     1       8.943  -2.942  24.659  0.00  0.00    -0.297 N 
ATOM      5  H   UNL     1       8.740  -2.612  25.590  0.00  0.00    +0.151 HD
ATOM      6  O   UNL     1      10.522  -2.600  23.032  0.00  0.00    -0.253 OA
ENDROOT
BRANCH   4   7
ATOM      7  C   UNL     1       8.840  -4.377  24.414  0.00  0.00    +0.074 C 
ATOM      8  C   UNL     1       7.468  -4.729  23.831  0.00  0.00    +0.022 C 
ATOM      9  C   UNL     1       6.343  -4.635  24.860  0.00  0.00    +0.002 C 
ATOM     10  C   UNL     1       6.650  -5.455  26.108  0.00  0.00    +0.000 C 
ATOM     11  C   UNL     1       8.002  -5.090  26.714  0.00  0.00    +0.002 C 
ATOM     12  C   UNL     1       9.128  -5.190  25.686  0.00  0.00    +0.022 C 
ENDBRANCH   4   7
BRANCH   1  13
ATOM     13  C   UNL     1      10.577   0.146  23.656  0.00  0.00    +0.106 C 
BRANCH  13  14
ATOM     14  C   UNL     1      10.391   1.525  24.282  0.00  0.00    +0.019 C 
BRANCH  14  15
ATOM     15  C   UNL     1       9.609   2.483  23.377  0.00  0.00    +0.002 C 
BRANCH  15  16
ATOM     16  C   UNL     1       9.294   1.893  22.000  0.00  0.00    +0.011 C 
BRANCH  16  17
ATOM     17  C   UNL     1       7.813   1.985  21.632  0.00  0.00    +0.120 C 
BRANCH  17  18
ATOM     18  C   UNL     1       6.950   1.109  22.509  0.00  0.00    +0.305 C 
ATOM     19  O   UNL     1       7.209  -0.035  22.846  0.00  0.00    -0.251 OA
BRANCH  18  20
ATOM     20  O   UNL     1       5.821   1.744  22.906  0.00  0.00    -0.481 OA
ATOM     21  H   UNL     1       5.944   2.696  23.074  0.00  0.00    +0.295 HD
ENDBRANCH  18  20
ENDBRANCH  17  18
ENDBRANCH  16  17
ENDBRANCH  15  16
ENDBRANCH  14  15
ENDBRANCH  13  14
ENDBRANCH   1  13
TORSDOF 8
ENDMDL
MODEL 7
REMARK VINA RESULT:      -5.4      1.937      5.775
REMARK  Name = 
REMARK  8 active torsions:
REMARK  status: ('A' for Active; 'I' for Inactive)
REMARK    1  A    between atoms: O_1  and  C_2
REMARK    2  A    between atoms: C_2  and  C_4
REMARK    3  A    between atoms: C_4  and  C_5
REMARK    4  A    between atoms: C_5  and  C_6
REMARK    5  A    between atoms: C_6  and  C_7
REMARK    6  A    between atoms: C_7  and  C_8
REMARK    7  A    between atoms: C_8  and  N_9
REMARK    8  A    between atoms: N_12  and  C_13
REMARK                            x       y       z     vdW  Elec       q    Type
REMARK                         _______ _______ _______ _____ _____    ______ ____
ROOT
ATOM      1  N   UNL     1       6.589  -0.332  23.023  0.00  0.00    -0.299 N 
ATOM      2  H   UNL     1       6.883  -0.506  22.073  0.00  0.00    +0.150 HD
ATOM      3  C   UNL     1       6.659  -1.385  23.899  0.00  0.00    +0.300 C 
ATOM      4  N   UNL     1       6.761  -2.585  23.242  0.00  0.00    -0.297 N 
ATOM      5  H   UNL     1       6.366  -2.608  22.314  0.00  0.00    +0.151 HD
ATOM      6  O   UNL     1       6.645  -1.268  25.115  0.00  0.00    -0.253 OA
ENDROOT
BRANCH   4   7
ATOM      7  C   UNL     1       6.802  -3.838  23.989  0.00  0.00    +0.074 C 
ATOM      8  C   UNL     1       7.721  -4.850  23.297  0.00  0.00    +0.022 C 
ATOM      9  C   UNL     1       7.118  -5.419  22.014  0.00  0.00    +0.002 C 
ATOM     10  C   UNL     1       5.726  -5.994  22.251  0.00  0.00    +0.000 C 
ATOM     11  C   UNL     1       4.795  -4.983  22.913  0.00  0.00    +0.002 C 
ATOM     12  C   UNL     1       5.395  -4.418  24.200  0.00  0.00    +0.022 C 
ENDBRANCH   4   7
BRANCH   1  13
ATOM     13  C   UNL     1       6.573   1.037  23.496  0.00  0.00    +0.106 C 
BRANCH  13  14
ATOM     14  C   UNL     1       7.918   1.724  23.281  0.00  0.00    +0.019 C 
BRANCH  14  15
ATOM     15  C   UNL     1       8.458   1.533  21.860  0.00  0.00    +0.002 C 
BRANCH  15  16
ATOM     16  C   UNL     1       9.903   1.028  21.825  0.00  0.00    +0.011 C 
BRANCH  16  17
ATOM     17  C   UNL     1      10.264   0.157  23.029  0.00  0.00    +0.120 C 
BRANCH  17  18
ATOM     18  C   UNL     1      10.139  -1.318  22.727  0.00  0.00    +0.305 C 
ATOM     19  O   UNL     1      10.025  -2.206  23.555  0.00  0.00    -0.251 OA
BRANCH  18  20
ATOM     20  O   UNL     1      10.162  -1.567  21.395  0.00  0.00    -0.481 OA
ATOM     21  H   UNL     1      10.426  -0.798  20.856  0.00  0.00    +0.295 HD
ENDBRANCH  18  20
ENDBRANCH  17  18
ENDBRANCH  16  17
ENDBRANCH  15  16
ENDBRANCH  14  15
ENDBRANCH  13  14
ENDBRANCH   1  13
TORSDOF 8
ENDMDL
MODEL 8
REMARK VINA RESULT:      -5.2      1.947      3.276
REMARK  Name = 
REMARK  8 active torsions:
REMARK  status: ('A' for Active; 'I' for Inactive)
REMARK    1  A    between atoms: O_1  and  C_2
REMARK    2  A    between atoms: C_2  and  C_4
REMARK    3  A    between atoms: C_4  and  C_5
REMARK    4  A    between atoms: C_5  and  C_6
REMARK    5  A    between atoms: C_6  and  C_7
REMARK    6  A    between atoms: C_7  and  C_8
REMARK    7  A    between atoms: C_8  and  N_9
REMARK    8  A    between atoms: N_12  and  C_13
REMARK                            x       y       z     vdW  Elec       q    Type
REMARK                         _______ _______ _______ _____ _____    ______ ____
ROOT
ATOM      1  N   UNL     1       8.958  -3.015  25.172  0.00  0.00    -0.299 N 
ATOM      2  H   UNL     1       9.289  -3.330  24.273  0.00  0.00    +0.150 HD
ATOM      3  C   UNL     1       8.389  -1.768  25.223  0.00  0.00    +0.300 C 
ATOM      4  N   UNL     1       8.711  -1.019  24.121  0.00  0.00    -0.297 N 
ATOM      5  H   UNL     1       9.581  -1.258  23.671  0.00  0.00    +0.151 HD
ATOM      6  O   UNL     1       7.675  -1.376  26.134  0.00  0.00    -0.253 OA
ENDROOT
BRANCH   4   7
ATOM      7  C   UNL     1       8.245   0.359  23.999  0.00  0.00    +0.074 C 
ATOM      8  C   UNL     1       7.845   0.668  22.553  0.00  0.00    +0.022 C 
ATOM      9  C   UNL     1       9.046   0.796  21.619  0.00  0.00    +0.002 C 
ATOM     10  C   UNL     1      10.067   1.798  22.145  0.00  0.00    +0.000 C 
ATOM     11  C   UNL     1      10.495   1.480  23.575  0.00  0.00    +0.002 C 
ATOM     12  C   UNL     1       9.292   1.359  24.511  0.00  0.00    +0.022 C 
ENDBRANCH   4   7
BRANCH   1  13
ATOM     13  C   UNL     1       8.674  -4.010  26.186  0.00  0.00    +0.106 C 
BRANCH  13  14
ATOM     14  C   UNL     1       7.942  -5.216  25.606  0.00  0.00    +0.019 C 
BRANCH  14  15
ATOM     15  C   UNL     1       6.460  -4.934  25.338  0.00  0.00    +0.002 C 
BRANCH  15  16
ATOM     16  C   UNL     1       5.979  -5.465  23.984  0.00  0.00    +0.011 C 
BRANCH  16  17
ATOM     17  C   UNL     1       6.985  -5.232  22.856  0.00  0.00    +0.120 C 
BRANCH  17  18
ATOM     18  C   UNL     1       6.702  -3.962  22.090  0.00  0.00    +0.305 C 
ATOM     19  O   UNL     1       5.691  -3.730  21.447  0.00  0.00    -0.251 OA
BRANCH  18  20
ATOM     20  O   UNL     1       7.715  -3.069  22.196  0.00  0.00    -0.481 OA
ATOM     21  H   UNL     1       8.473  -3.395  22.716  0.00  0.00    +0.295 HD
ENDBRANCH  18  20
ENDBRANCH  17  18
ENDBRANCH  16  17
ENDBRANCH  15  16
ENDBRANCH  14  15
ENDBRANCH  13  14
ENDBRANCH   1  13
TORSDOF 8
ENDMDL
MODEL 9
REMARK VINA RESULT:      -5.1      2.074      5.550
REMARK  Name = 
REMARK  8 active torsions:
REMARK  status: ('A' for Active; 'I' for Inactive)
REMARK    1  A    between atoms: O_1  and  C_2
REMARK    2  A    between atoms: C_2  and  C_4
REMARK    3  A    between atoms: C_4  and  C_5
REMARK    4  A    between atoms: C_5  and  C_6
REMARK    5  A    between atoms: C_6  and  C_7
REMARK    6  A    between atoms: C_7  and  C_8
REMARK    7  A    between atoms: C_8  and  N_9
REMARK    8  A    between atoms: N_12  and  C_13
REMARK                            x       y       z     vdW  Elec       q    Type
REMARK                         _______ _______ _______ _____ _____    ______ ____
ROOT
ATOM      1  N   UNL     1       9.196  -1.199  21.856  0.00  0.00    -0.299 N 
ATOM      2  H   UNL     1      10.119  -1.444  22.180  0.00  0.00    +0.150 HD
ATOM      3  C   UNL     1       8.134  -1.754  22.522  0.00  0.00    +0.300 C 
ATOM      4  N   UNL     1       8.517  -2.839  23.270  0.00  0.00    -0.297 N 
ATOM      5  H   UNL     1       9.335  -3.328  22.941  0.00  0.00    +0.151 HD
ATOM      6  O   UNL     1       6.990  -1.330  22.466  0.00  0.00    -0.253 OA
ENDROOT
BRANCH   4   7
ATOM      7  C   UNL     1       7.529  -3.605  24.023  0.00  0.00    +0.074 C 
ATOM      8  C   UNL     1       7.295  -2.979  25.401  0.00  0.00    +0.022 C 
ATOM      9  C   UNL     1       8.466  -3.194  26.359  0.00  0.00    +0.002 C 
ATOM     10  C   UNL     1       8.844  -4.667  26.468  0.00  0.00    +0.000 C 
ATOM     11  C   UNL     1       9.108  -5.292  25.102  0.00  0.00    +0.002 C 
ATOM     12  C   UNL     1       7.934  -5.082  24.147  0.00  0.00    +0.022 C 
ENDBRANCH   4   7
BRANCH   1  13
ATOM     13  C   UNL     1       9.041   0.015  21.080  0.00  0.00    +0.106 C 
BRANCH  13  14
ATOM     14  C   UNL     1       9.734   1.201  21.743  0.00  0.00    +0.019 C 
BRANCH  14  15
ATOM     15  C   UNL     1       8.749   2.152  22.431  0.00  0.00    +0.002 C 
BRANCH  15  16
ATOM     16  C   UNL     1       8.898   2.178  23.955  0.00  0.00    +0.011 C 
BRANCH  16  17
ATOM     17  C   UNL     1      10.206   1.554  24.441  0.00  0.00    +0.120 C 
BRANCH  17  18
ATOM     18  C   UNL     1       9.995   0.191  25.057  0.00  0.00    +0.305 C 
ATOM     19  O   UNL     1      10.397  -0.866  24.599  0.00  0.00    -0.251 OA
BRANCH  18  20
ATOM     20  O   UNL     1       9.295   0.260  26.215  0.00  0.00    -0.481 OA
ATOM     21  H   UNL     1       9.852   0.214  27.014  0.00  0.00    +0.295 HD
ENDBRANCH  18  20
ENDBRANCH  17  18
ENDBRANCH  16  17
ENDBRANCH  15  16
ENDBRANCH  14  15
ENDBRANCH  13  14
ENDBRANCH   1  13
TORSDOF 8
ENDMDL
