MODEL 1
REMARK VINA RESULT:      -6.3      0.000      0.000
REMARK  Name = 
REMARK  7 active torsions:
REMARK  status: ('A' for Active; 'I' for Inactive)
REMARK    1  A    between atoms: O_1  and  O_2
REMARK    2  A    between atoms: O_2  and  O_3
REMARK    3  A    between atoms: O_3  and  C_4
REMARK    4  A    between atoms: C_8  and  N_9
REMARK    5  A    between atoms: N_9  and  C_10
REMARK    6  A    between atoms: C_15  and  C_16
REMARK    7  A    between atoms: C_16  and  O_17
REMARK                            x       y       z     vdW  Elec       q    Type
REMARK                         _______ _______ _______ _____ _____    ______ ____
ROOT
ATOM      1  C   UNL     1       6.553  -4.468  24.850  0.00  0.00    +0.205 A 
ATOM      2  C   UNL     1       6.993  -4.392  23.519  0.00  0.00    +0.090 A 
ATOM      3 CL   UNL     1       7.550  -5.756  22.608  0.00  0.00    -0.080 Cl
ATOM      4  C   UNL     1       7.101  -3.148  22.872  0.00  0.00    +0.047 A 
ATOM      5  C   UNL     1       6.826  -1.961  23.545  0.00  0.00    +0.034 A 
ATOM      6  C   UNL     1       6.358  -2.042  24.861  0.00  0.00    +0.047 A 
ATOM      7  C   UNL     1       6.221  -3.277  25.505  0.00  0.00    +0.090 A 
ATOM      8 CL   UNL     1       5.680  -3.262  27.150  0.00  0.00    -0.080 Cl
ENDROOT
BRANCH   5   9
ATOM      9  N   UNL     1       7.171  -0.723  22.973  0.00  0.00    -0.314 N 
ATOM     10  H   UNL     1       6.821  -0.535  22.030  0.00  0.00    +0.152 HD
BRANCH   9  11
ATOM     11  C   UNL     1       8.149   0.207  23.410  0.00  0.00    +0.045 A 
ATOM     12  C   UNL     1       9.459   0.216  22.886  0.00  0.00    +0.080 A 
ATOM     13  C   UNL     1      10.347   1.260  23.207  0.00  0.00    +0.017 A 
ATOM     14  C   UNL     1       9.948   2.290  24.060  0.00  0.00    +0.001 A 
ATOM     15  C   UNL     1       8.685   2.257  24.638  0.00  0.00    +0.002 A 
ATOM     16  C   UNL     1       7.801   1.229  24.314  0.00  0.00    +0.024 A 
BRANCH  12  17
ATOM     17  C   UNL     1       9.922  -0.926  22.059  0.00  0.00    +0.339 C 
ATOM     18  O   UNL     1      10.636  -1.811  22.507  0.00  0.00    -0.245 OA
BRANCH  17  19
ATOM     19  O   UNL     1       9.490  -0.906  20.780  0.00  0.00    -0.477 OA
ATOM     20  H   UNL     1       8.943  -0.136  20.541  0.00  0.00    +0.295 HD
ENDBRANCH  17  19
ENDBRANCH  12  17
ENDBRANCH   9  11
ENDBRANCH   5   9
BRANCH   1  21
ATOM     21  O   UNL     1       6.524  -5.610  25.621  0.00  0.00    -0.304 OA
BRANCH  21  22
ATOM     22  O   UNL     1       7.834  -5.822  26.200  0.00  0.00    -0.015 OA
BRANCH  22  23
ATOM     23  O   UNL     1       7.762  -5.892  27.642  0.00  0.00    -0.210 OA
ATOM     24  H   UNL     1       8.075  -4.984  27.795  0.00  0.00    +0.257 HD
ENDBRANCH  22  23
ENDBRANCH  21  22
ENDBRANCH   1  21
TORSDOF 7
ENDMDL
MODEL 2
REMARK VINA RESULT:      -6.2      3.043      6.510
REMARK  Name = 
REMARK  7 active torsions:
REMARK  status: ('A' for Active; 'I' for Inactive)
REMARK    1  A    between atoms: O_1  and  O_2
REMARK    2  A    between atoms: O_2  and  O_3
REMARK    3  A    between atoms: O_3  and  C_4
REMARK    4  A    between atoms: C_8  and  N_9
REMARK    5  A    between atoms: N_9  and  C_10
REMARK    6  A    between atoms: C_15  and  C_16
REMARK    7  A    between atoms: C_16  and  O_17
REMARK                            x       y       z     vdW  Elec       q    Type
REMARK                         _______ _______ _______ _____ _____    ______ ____
ROOT
ATOM      1  C   UNL     1       8.874   1.024  23.769  0.00  0.00    +0.205 A 
ATOM      2  C   UNL     1       9.817   0.122  24.285  0.00  0.00    +0.090 A 
ATOM      3 CL   UNL     1      11.388   0.584  24.847  0.00  0.00    -0.080 Cl
ATOM      4  C   UNL     1       9.560  -1.262  24.278  0.00  0.00    +0.047 A 
ATOM      5  C   UNL     1       8.394  -1.774  23.717  0.00  0.00    +0.034 A 
ATOM      6  C   UNL     1       7.443  -0.869  23.231  0.00  0.00    +0.047 A 
ATOM      7  C   UNL     1       7.677   0.509  23.258  0.00  0.00    +0.090 A 
ATOM      8 CL   UNL     1       6.455   1.538  22.588  0.00  0.00    -0.080 Cl
ENDROOT
BRANCH   5   9
ATOM      9  N   UNL     1       8.261  -3.156  23.493  0.00  0.00    -0.314 N 
ATOM     10  H   UNL     1       8.697  -3.532  22.647  0.00  0.00    +0.152 HD
BRANCH   9  11
ATOM     11  C   UNL     1       7.392  -4.073  24.138  0.00  0.00    +0.045 A 
ATOM     12  C   UNL     1       7.782  -4.789  25.289  0.00  0.00    +0.080 A 
ATOM     13  C   UNL     1       6.841  -5.551  26.007  0.00  0.00    +0.017 A 
ATOM     14  C   UNL     1       5.514  -5.620  25.580  0.00  0.00    +0.001 A 
ATOM     15  C   UNL     1       5.132  -4.976  24.410  0.00  0.00    +0.002 A 
ATOM     16  C   UNL     1       6.060  -4.214  23.702  0.00  0.00    +0.024 A 
BRANCH  12  17
ATOM     17  C   UNL     1       9.211  -4.800  25.693  0.00  0.00    +0.339 C 
ATOM     18  O   UNL     1      10.120  -4.822  24.877  0.00  0.00    -0.245 OA
BRANCH  17  19
ATOM     19  O   UNL     1       9.419  -4.781  27.026  0.00  0.00    -0.477 OA
ATOM     20  H   UNL     1       8.695  -4.395  27.552  0.00  0.00    +0.295 HD
ENDBRANCH  17  19
ENDBRANCH  12  17
ENDBRANCH   9  11
ENDBRANCH   5   9
BRANCH   1  21
ATOM     21  O   UNL     1       9.064   2.380  23.612  0.00  0.00    -0.304 OA
BRANCH  21  22
ATOM     22  O   UNL     1      10.240   2.600  22.796  0.00  0.00    -0.015 OA
BRANCH  22  23
ATOM     23  O   UNL     1      10.004   2.209  21.424  0.00  0.00    -0.210 OA
ATOM     24  H   UNL     1      10.379   1.317  21.516  0.00  0.00    +0.257 HD
ENDBRANCH  22  23
ENDBRANCH  21  22
ENDBRANCH   1  21
TORSDOF 7
ENDMDL
MODEL 3
REMARK VINA RESULT:      -6.2      2.507      3.282
REMARK  Name = 
REMARK  7 active torsions:
REMARK  status: ('A' for Active; 'I' for Inactive)
REMARK    1  A    between atoms: O_1  and  O_2
REMARK    2  A    between atoms: O_2  and  O_3
REMARK    3  A    between atoms: O_3  and  C_4
REMARK    4  A    between atoms: C_8  and  N_9
REMARK    5  A    between atoms: N_9  and  C_10
REMARK    6  A    between atoms: C_15  and  C_16
REMARK    7  A    between atoms: C_16  and  O_17
REMARK                            x       y       z     vdW  Elec       q    Type
REMARK                         _______ _______ _______ _____ _____    ______ ____
ROOT
ATOM      1  C   UNL     1       7.868  -3.956  23.479  0.00  0.00    +0.205 A 
ATOM      2  C   UNL     1       9.051  -3.708  24.193  0.00  0.00    +0.090 A 
ATOM      3 CL   UNL     1       9.780  -4.846  25.277  0.00  0.00    -0.080 Cl
ATOM      4  C   UNL     1       9.669  -2.446  24.136  0.00  0.00    +0.047 A 
ATOM      5  C   UNL     1       9.100  -1.399  23.418  0.00  0.00    +0.034 A 
ATOM      6  C   UNL     1       7.938  -1.657  22.683  0.00  0.00    +0.047 A 
ATOM      7  C   UNL     1       7.331  -2.917  22.712  0.00  0.00    +0.090 A 
ATOM      8 CL   UNL     1       5.868  -3.117  21.805  0.00  0.00    -0.080 Cl
ENDROOT
BRANCH   5   9
ATOM      9  N   UNL     1       9.587  -0.087  23.568  0.00  0.00    -0.314 N 
ATOM     10  H   UNL     1      10.536   0.096  23.230  0.00  0.00    +0.152 HD
BRANCH   9  11
ATOM     11  C   UNL     1       9.051   0.967  24.351  0.00  0.00    +0.045 A 
ATOM     12  C   UNL     1       9.291   2.323  24.042  0.00  0.00    +0.080 A 
ATOM     13  C   UNL     1       8.602   3.342  24.727  0.00  0.00    +0.017 A 
ATOM     14  C   UNL     1       7.685   3.023  25.730  0.00  0.00    +0.001 A 
ATOM     15  C   UNL     1       7.490   1.697  26.091  0.00  0.00    +0.002 A 
ATOM     16  C   UNL     1       8.165   0.685  25.408  0.00  0.00    +0.024 A 
BRANCH  12  17
ATOM     17  C   UNL     1      10.336   2.671  23.047  0.00  0.00    +0.339 C 
ATOM     18  O   UNL     1      11.337   3.305  23.346  0.00  0.00    -0.245 OA
BRANCH  17  19
ATOM     19  O   UNL     1      10.090   2.232  21.795  0.00  0.00    -0.477 OA
ATOM     20  H   UNL     1       9.147   2.124  21.573  0.00  0.00    +0.295 HD
ENDBRANCH  17  19
ENDBRANCH  12  17
ENDBRANCH   9  11
ENDBRANCH   5   9
BRANCH   1  21
ATOM     21  O   UNL     1       7.112  -5.105  23.555  0.00  0.00    -0.304 OA
BRANCH  21  22
ATOM     22  O   UNL     1       7.487  -5.990  22.472  0.00  0.00    -0.015 OA
BRANCH  22  23
ATOM     23  O   UNL     1       6.337  -6.697  21.953  0.00  0.00    -0.210 OA
ATOM     24  H   UNL     1       6.244  -7.294  22.714  0.00  0.00    +0.257 HD
ENDBRANCH  22  23
ENDBRANCH  21  22
ENDBRANCH   1  21
TORSDOF 7
ENDMDL
MODEL 4
REMARK VINA RESULT:      -6.2      2.301      2.497
REMARK  Name = 
REMARK  7 active torsions:
REMARK  status: ('A' for Active; 'I' for Inactive)
REMARK    1  A    between atoms: O_1  and  O_2
REMARK    2  A    between atoms: O_2  and  O_3
REMARK    3  A    between atoms: O_3  and  C_4
REMARK    4  A    between atoms: C_8  and  N_9
REMARK    5  A    between atoms: N_9  and  C_10
REMARK    6  A    between atoms: C_15  and  C_16
REMARK    7  A    between atoms: C_16  and  O_17
REMARK                            x       y       z     vdW  Elec       q    Type
REMARK                         _______ _______ _______ _____ _____    ______ ____
ROOT
ATOM      1  C   UNL     1       4.798  -4.767  22.985  0.00  0.00    +0.205 A 
ATOM      2  C   UNL     1       5.992  -4.544  22.283  0.00  0.00    +0.090 A 
ATOM      3 CL   UNL     1       6.688  -5.681  21.176  0.00  0.00    -0.080 Cl
ATOM      4  C   UNL     1       6.760  -3.390  22.526  0.00  0.00    +0.047 A 
ATOM      5  C   UNL     1       6.385  -2.471  23.501  0.00  0.00    +0.034 A 
ATOM      6  C   UNL     1       5.178  -2.681  24.178  0.00  0.00    +0.047 A 
ATOM      7  C   UNL     1       4.394  -3.811  23.923  0.00  0.00    +0.090 A 
ATOM      8 CL   UNL     1       2.943  -4.000  24.850  0.00  0.00    -0.080 Cl
ENDROOT
BRANCH   5   9
ATOM      9  N   UNL     1       7.277  -1.461  23.906  0.00  0.00    -0.314 N 
ATOM     10  H   UNL     1       7.531  -1.438  24.897  0.00  0.00    +0.152 HD
BRANCH   9  11
ATOM     11  C   UNL     1       7.683  -0.306  23.190  0.00  0.00    +0.045 A 
ATOM     12  C   UNL     1       8.900  -0.258  22.477  0.00  0.00    +0.080 A 
ATOM     13  C   UNL     1       9.189   0.831  21.633  0.00  0.00    +0.017 A 
ATOM     14  C   UNL     1       8.283   1.884  21.504  0.00  0.00    +0.001 A 
ATOM     15  C   UNL     1       7.113   1.884  22.252  0.00  0.00    +0.002 A 
ATOM     16  C   UNL     1       6.820   0.801  23.082  0.00  0.00    +0.024 A 
BRANCH  12  17
ATOM     17  C   UNL     1       9.911  -1.326  22.686  0.00  0.00    +0.339 C 
ATOM     18  O   UNL     1      10.123  -1.818  23.784  0.00  0.00    -0.245 OA
BRANCH  17  19
ATOM     19  O   UNL     1      10.568  -1.704  21.570  0.00  0.00    -0.477 OA
ATOM     20  H   UNL     1      10.094  -2.343  21.008  0.00  0.00    +0.295 HD
ENDBRANCH  17  19
ENDBRANCH  12  17
ENDBRANCH   9  11
ENDBRANCH   5   9
BRANCH   1  21
ATOM     21  O   UNL     1       4.032  -5.911  22.921  0.00  0.00    -0.304 OA
BRANCH  21  22
ATOM     22  O   UNL     1       4.571  -6.894  23.836  0.00  0.00    -0.015 OA
BRANCH  22  23
ATOM     23  O   UNL     1       3.581  -7.891  24.175  0.00  0.00    -0.210 OA
ATOM     24  H   UNL     1       2.816  -7.366  23.885  0.00  0.00    +0.257 HD
ENDBRANCH  22  23
ENDBRANCH  21  22
ENDBRANCH   1  21
TORSDOF 7
ENDMDL
MODEL 5
REMARK VINA RESULT:      -6.1      3.095      6.489
REMARK  Name = 
REMARK  7 active torsions:
REMARK  status: ('A' for Active; 'I' for Inactive)
REMARK    1  A    between atoms: O_1  and  O_2
REMARK    2  A    between atoms: O_2  and  O_3
REMARK    3  A    between atoms: O_3  and  C_4
REMARK    4  A    between atoms: C_8  and  N_9
REMARK    5  A    between atoms: N_9  and  C_10
REMARK    6  A    between atoms: C_15  and  C_16
REMARK    7  A    between atoms: C_16  and  O_17
REMARK                            x       y       z     vdW  Elec       q    Type
REMARK                         _______ _______ _______ _____ _____    ______ ____
ROOT
ATOM      1  C   UNL     1       8.832   1.354  23.611  0.00  0.00    +0.205 A 
ATOM      2  C   UNL     1       7.576   1.075  23.049  0.00  0.00    +0.090 A 
ATOM      3 CL   UNL     1       6.518   2.285  22.404  0.00  0.00    -0.080 Cl
ATOM      4  C   UNL     1       7.056  -0.232  23.075  0.00  0.00    +0.047 A 
ATOM      5  C   UNL     1       7.745  -1.267  23.699  0.00  0.00    +0.034 A 
ATOM      6  C   UNL     1       9.010  -0.992  24.231  0.00  0.00    +0.047 A 
ATOM      7  C   UNL     1       9.548   0.299  24.186  0.00  0.00    +0.090 A 
ATOM      8 CL   UNL     1      11.100   0.541  24.915  0.00  0.00    -0.080 Cl
ENDROOT
BRANCH   5   9
ATOM      9  N   UNL     1       7.113  -2.501  23.935  0.00  0.00    -0.314 N 
ATOM     10  H   UNL     1       6.776  -2.675  24.886  0.00  0.00    +0.152 HD
BRANCH   9  11
ATOM     11  C   UNL     1       7.095  -3.654  23.108  0.00  0.00    +0.045 A 
ATOM     12  C   UNL     1       7.711  -4.862  23.498  0.00  0.00    +0.080 A 
ATOM     13  C   UNL     1       7.522  -6.034  22.742  0.00  0.00    +0.017 A 
ATOM     14  C   UNL     1       6.737  -6.012  21.589  0.00  0.00    +0.001 A 
ATOM     15  C   UNL     1       6.181  -4.815  21.155  0.00  0.00    +0.002 A 
ATOM     16  C   UNL     1       6.359  -3.654  21.908  0.00  0.00    +0.024 A 
BRANCH  12  17
ATOM     17  C   UNL     1       8.627  -4.871  24.667  0.00  0.00    +0.339 C 
ATOM     18  O   UNL     1       8.320  -5.381  25.734  0.00  0.00    -0.245 OA
BRANCH  17  19
ATOM     19  O   UNL     1       9.818  -4.274  24.452  0.00  0.00    -0.477 OA
ATOM     20  H   UNL     1      10.095  -3.643  25.142  0.00  0.00    +0.295 HD
ENDBRANCH  17  19
ENDBRANCH  12  17
ENDBRANCH   9  11
ENDBRANCH   5   9
BRANCH   1  21
ATOM     21  O   UNL     1       9.386   2.608  23.753  0.00  0.00    -0.304 OA
BRANCH  21  22
ATOM     22  O   UNL     1      10.475   2.754  22.811  0.00  0.00    -0.015 OA
BRANCH  22  23
ATOM     23  O   UNL     1      10.105   2.261  21.503  0.00  0.00    -0.210 OA
ATOM     24  H   UNL     1       9.398   2.912  21.355  0.00  0.00    +0.257 HD
ENDBRANCH  22  23
ENDBRANCH  21  22
ENDBRANCH   1  21
TORSDOF 7
ENDMDL
MODEL 6
REMARK VINA RESULT:      -6.1      1.973      2.928
REMARK  Name = 
REMARK  7 active torsions:
REMARK  status: ('A' for Active; 'I' for Inactive)
REMARK    1  A    between atoms: O_1  and  O_2
REMARK    2  A    between atoms: O_2  and  O_3
REMARK    3  A    between atoms: O_3  and  C_4
REMARK    4  A    between atoms: C_8  and  N_9
REMARK    5  A    between atoms: N_9  and  C_10
REMARK    6  A    between atoms: C_15  and  C_16
REMARK    7  A    between atoms: C_16  and  O_17
REMARK                            x       y       z     vdW  Elec       q    Type
REMARK                         _______ _______ _______ _____ _____    ______ ____
ROOT
ATOM      1  C   UNL     1       4.973  -4.591  23.170  0.00  0.00    +0.205 A 
ATOM      2  C   UNL     1       4.843  -3.498  24.041  0.00  0.00    +0.090 A 
ATOM      3 CL   UNL     1       3.618  -3.376  25.259  0.00  0.00    -0.080 Cl
ATOM      4  C   UNL     1       5.666  -2.366  23.895  0.00  0.00    +0.047 A 
ATOM      5  C   UNL     1       6.591  -2.279  22.859  0.00  0.00    +0.034 A 
ATOM      6  C   UNL     1       6.740  -3.383  22.012  0.00  0.00    +0.047 A 
ATOM      7  C   UNL     1       5.945  -4.523  22.166  0.00  0.00    +0.090 A 
ATOM      8 CL   UNL     1       6.176  -5.814  21.034  0.00  0.00    -0.080 Cl
ENDROOT
BRANCH   5   9
ATOM      9  N   UNL     1       7.228  -1.057  22.576  0.00  0.00    -0.314 N 
ATOM     10  H   UNL     1       7.239  -0.757  21.598  0.00  0.00    +0.152 HD
BRANCH   9  11
ATOM     11  C   UNL     1       8.083  -0.295  23.412  0.00  0.00    +0.045 A 
ATOM     12  C   UNL     1       9.473  -0.529  23.471  0.00  0.00    +0.080 A 
ATOM     13  C   UNL     1      10.317   0.357  24.169  0.00  0.00    +0.017 A 
ATOM     14  C   UNL     1       9.785   1.468  24.824  0.00  0.00    +0.001 A 
ATOM     15  C   UNL     1       8.412   1.673  24.833  0.00  0.00    +0.002 A 
ATOM     16  C   UNL     1       7.576   0.802  24.135  0.00  0.00    +0.024 A 
BRANCH  12  17
ATOM     17  C   UNL     1      10.033  -1.761  22.860  0.00  0.00    +0.339 C 
ATOM     18  O   UNL     1      10.309  -2.751  23.521  0.00  0.00    -0.245 OA
BRANCH  17  19
ATOM     19  O   UNL     1      10.206  -1.698  21.523  0.00  0.00    -0.477 OA
ATOM     20  H   UNL     1      10.903  -2.280  21.169  0.00  0.00    +0.295 HD
ENDBRANCH  17  19
ENDBRANCH  12  17
ENDBRANCH   9  11
ENDBRANCH   5   9
BRANCH   1  21
ATOM     21  O   UNL     1       4.147  -5.694  23.139  0.00  0.00    -0.304 OA
BRANCH  21  22
ATOM     22  O   UNL     1       4.676  -6.706  24.028  0.00  0.00    -0.015 OA
BRANCH  22  23
ATOM     23  O   UNL     1       3.779  -7.836  24.124  0.00  0.00    -0.210 OA
ATOM     24  H   UNL     1       4.149  -8.178  24.956  0.00  0.00    +0.257 HD
ENDBRANCH  22  23
ENDBRANCH  21  22
ENDBRANCH   1  21
TORSDOF 7
ENDMDL
MODEL 7
REMARK VINA RESULT:      -6.1      2.876      6.589
REMARK  Name = 
REMARK  7 active torsions:
REMARK  status: ('A' for Active; 'I' for Inactive)
REMARK    1  A    between atoms: O_1  and  O_2
REMARK    2  A    between atoms: O_2  and  O_3
REMARK    3  A    between atoms: O_3  and  C_4
REMARK    4  A    between atoms: C_8  and  N_9
REMARK    5  A    between atoms: N_9  and  C_10
REMARK    6  A    between atoms: C_15  and  C_16
REMARK    7  A    between atoms: C_16  and  O_17
REMARK                            x       y       z     vdW  Elec       q    Type
REMARK                         _______ _______ _______ _____ _____    ______ ____
ROOT
ATOM      1  C   UNL     1       8.873   0.099  24.120  0.00  0.00    +0.205 A 
ATOM      2  C   UNL     1       9.386  -0.769  23.143  0.00  0.00    +0.090 A 
ATOM      3 CL   UNL     1       9.854  -0.263  21.554  0.00  0.00    -0.080 Cl
ATOM      4  C   UNL     1       9.453  -2.154  23.382  0.00  0.00    +0.047 A 
ATOM      5  C   UNL     1       8.969  -2.704  24.565  0.00  0.00    +0.034 A 
ATOM      6  C   UNL     1       8.487  -1.833  25.549  0.00  0.00    +0.047 A 
ATOM      7  C   UNL     1       8.440  -0.452  25.332  0.00  0.00    +0.090 A 
ATOM      8 CL   UNL     1       7.781   0.531  26.596  0.00  0.00    -0.080 Cl
ENDROOT
BRANCH   5   9
ATOM      9  N   UNL     1       8.814  -4.096  24.690  0.00  0.00    -0.314 N 
ATOM     10  H   UNL     1       9.667  -4.647  24.822  0.00  0.00    +0.152 HD
BRANCH   9  11
ATOM     11  C   UNL     1       7.669  -4.885  24.407  0.00  0.00    +0.045 A 
ATOM     12  C   UNL     1       6.745  -5.247  25.409  0.00  0.00    +0.080 A 
ATOM     13  C   UNL     1       5.532  -5.873  25.067  0.00  0.00    +0.017 A 
ATOM     14  C   UNL     1       5.236  -6.158  23.733  0.00  0.00    +0.001 A 
ATOM     15  C   UNL     1       6.166  -5.870  22.743  0.00  0.00    +0.002 A 
ATOM     16  C   UNL     1       7.365  -5.241  23.079  0.00  0.00    +0.024 A 
BRANCH  12  17
ATOM     17  C   UNL     1       7.096  -5.037  26.837  0.00  0.00    +0.339 C 
ATOM     18  O   UNL     1       6.477  -4.267  27.555  0.00  0.00    -0.245 OA
BRANCH  17  19
ATOM     19  O   UNL     1       8.148  -5.764  27.270  0.00  0.00    -0.477 OA
ATOM     20  H   UNL     1       8.470  -6.438  26.644  0.00  0.00    +0.295 HD
ENDBRANCH  17  19
ENDBRANCH  12  17
ENDBRANCH   9  11
ENDBRANCH   5   9
BRANCH   1  21
ATOM     21  O   UNL     1       8.645   1.448  23.955  0.00  0.00    -0.304 OA
BRANCH  21  22
ATOM     22  O   UNL     1       9.905   2.154  24.042  0.00  0.00    -0.015 OA
BRANCH  22  23
ATOM     23  O   UNL     1      10.120   2.986  22.879  0.00  0.00    -0.210 OA
ATOM     24  H   UNL     1       9.737   2.358  22.244  0.00  0.00    +0.257 HD
ENDBRANCH  22  23
ENDBRANCH  21  22
ENDBRANCH   1  21
TORSDOF 7
ENDMDL
MODEL 8
REMARK VINA RESULT:      -6.0      3.302      6.465
REMARK  Name = 
REMARK  7 active torsions:
REMARK  status: ('A' for Active; 'I' for Inactive)
REMARK    1  A    between atoms: O_1  and  O_2
REMARK    2  A    between atoms: O_2  and  O_3
REMARK    3  A    between atoms: O_3  and  C_4
REMARK    4  A    between atoms: C_8  and  N_9
REMARK    5  A    between atoms: N_9  and  C_10
REMARK    6  A    between atoms: C_15  and  C_16
REMARK    7  A    between atoms: C_16  and  O_17
REMARK                            x       y       z     vdW  Elec       q    Type
REMARK                         _______ _______ _______ _____ _____    ______ ____
ROOT
ATOM      1  C   UNL     1       8.997   1.696  24.337  0.00  0.00    +0.205 A 
ATOM      2  C   UNL     1       9.842   1.140  23.364  0.00  0.00    +0.090 A 
ATOM      3 CL   UNL     1      10.510   2.035  22.040  0.00  0.00    -0.080 Cl
ATOM      4  C   UNL     1      10.116  -0.240  23.360  0.00  0.00    +0.047 A 
ATOM      5  C   UNL     1       9.520  -1.094  24.283  0.00  0.00    +0.034 A 
ATOM      6  C   UNL     1       8.703  -0.531  25.271  0.00  0.00    +0.047 A 
ATOM      7  C   UNL     1       8.446   0.843  25.299  0.00  0.00    +0.090 A 
ATOM      8 CL   UNL     1       7.382   1.429  26.534  0.00  0.00    -0.080 Cl
ENDROOT
BRANCH   5   9
ATOM      9  N   UNL     1       9.604  -2.488  24.119  0.00  0.00    -0.314 N 
ATOM     10  H   UNL     1      10.542  -2.896  24.095  0.00  0.00    +0.152 HD
BRANCH   9  11
ATOM     11  C   UNL     1       8.583  -3.392  23.727  0.00  0.00    +0.045 A 
ATOM     12  C   UNL     1       8.209  -4.490  24.530  0.00  0.00    +0.080 A 
ATOM     13  C   UNL     1       7.077  -5.260  24.201  0.00  0.00    +0.017 A 
ATOM     14  C   UNL     1       6.321  -4.955  23.068  0.00  0.00    +0.001 A 
ATOM     15  C   UNL     1       6.717  -3.920  22.231  0.00  0.00    +0.002 A 
ATOM     16  C   UNL     1       7.834  -3.151  22.560  0.00  0.00    +0.024 A 
BRANCH  12  17
ATOM     17  C   UNL     1       9.064  -4.879  25.679  0.00  0.00    +0.339 C 
ATOM     18  O   UNL     1       9.086  -4.244  26.723  0.00  0.00    -0.245 OA
BRANCH  17  19
ATOM     19  O   UNL     1       9.808  -5.987  25.476  0.00  0.00    -0.477 OA
ATOM     20  H   UNL     1      10.553  -5.877  24.858  0.00  0.00    +0.295 HD
ENDBRANCH  17  19
ENDBRANCH  12  17
ENDBRANCH   9  11
ENDBRANCH   5   9
BRANCH   1  21
ATOM     21  O   UNL     1       8.561   3.003  24.367  0.00  0.00    -0.304 OA
BRANCH  21  22
ATOM     22  O   UNL     1       7.566   3.194  23.333  0.00  0.00    -0.015 OA
BRANCH  22  23
ATOM     23  O   UNL     1       7.988   4.196  22.381  0.00  0.00    -0.210 OA
ATOM     24  H   UNL     1       7.156   4.204  21.879  0.00  0.00    +0.257 HD
ENDBRANCH  22  23
ENDBRANCH  21  22
ENDBRANCH   1  21
TORSDOF 7
ENDMDL
MODEL 9
REMARK VINA RESULT:      -6.0      2.302      2.852
REMARK  Name = 
REMARK  7 active torsions:
REMARK  status: ('A' for Active; 'I' for Inactive)
REMARK    1  A    between atoms: O_1  and  O_2
REMARK    2  A    between atoms: O_2  and  O_3
REMARK    3  A    between atoms: O_3  and  C_4
REMARK    4  A    between atoms: C_8  and  N_9
REMARK    5  A    between atoms: N_9  and  C_10
REMARK    6  A    between atoms: C_15  and  C_16
REMARK    7  A    between atoms: C_16  and  O_17
REMARK                            x       y       z     vdW  Elec       q    Type
REMARK                         _______ _______ _______ _____ _____    ______ ____
ROOT
ATOM      1  C   UNL     1       7.261  -4.114  24.152  0.00  0.00    +0.205 A 
ATOM      2  C   UNL     1       6.812  -3.743  22.875  0.00  0.00    +0.090 A 
ATOM      3 CL   UNL     1       6.645  -4.848  21.553  0.00  0.00    -0.080 Cl
ATOM      4  C   UNL     1       6.563  -2.392  22.570  0.00  0.00    +0.047 A 
ATOM      5  C   UNL     1       6.802  -1.388  23.503  0.00  0.00    +0.034 A 
ATOM      6  C   UNL     1       7.220  -1.764  24.785  0.00  0.00    +0.047 A 
ATOM      7  C   UNL     1       7.445  -3.107  25.106  0.00  0.00    +0.090 A 
ATOM      8 CL   UNL     1       8.007  -3.459  26.707  0.00  0.00    -0.080 Cl
ENDROOT
BRANCH   5   9
ATOM      9  N   UNL     1       6.787  -0.037  23.113  0.00  0.00    -0.314 N 
ATOM     10  H   UNL     1       5.934   0.306  22.664  0.00  0.00    +0.152 HD
BRANCH   9  11
ATOM     11  C   UNL     1       7.878   0.865  23.020  0.00  0.00    +0.045 A 
ATOM     12  C   UNL     1       8.215   1.742  24.073  0.00  0.00    +0.080 A 
ATOM     13  C   UNL     1       9.404   2.493  24.022  0.00  0.00    +0.017 A 
ATOM     14  C   UNL     1      10.257   2.391  22.922  0.00  0.00    +0.001 A 
ATOM     15  C   UNL     1       9.904   1.585  21.847  0.00  0.00    +0.002 A 
ATOM     16  C   UNL     1       8.730   0.833  21.899  0.00  0.00    +0.024 A 
BRANCH  12  17
ATOM     17  C   UNL     1       7.265   1.929  25.198  0.00  0.00    +0.339 C 
ATOM     18  O   UNL     1       6.100   2.253  25.024  0.00  0.00    -0.245 OA
BRANCH  17  19
ATOM     19  O   UNL     1       7.793   1.712  26.422  0.00  0.00    -0.477 OA
ATOM     20  H   UNL     1       7.370   2.206  27.148  0.00  0.00    +0.295 HD
ENDBRANCH  17  19
ENDBRANCH  12  17
ENDBRANCH   9  11
ENDBRANCH   5   9
BRANCH   1  21
ATOM     21  O   UNL     1       7.653  -5.380  24.528  0.00  0.00    -0.304 OA
BRANCH  21  22
ATOM     22  O   UNL     1       9.010  -5.608  24.078  0.00  0.00    -0.015 OA
BRANCH  22  23
ATOM     23  O   UNL     1       9.877  -5.947  25.184  0.00  0.00    -0.210 OA
ATOM     24  H   UNL     1       9.216  -5.778  25.876  0.00  0.00    +0.257 HD
ENDBRANCH  22  23
ENDBRANCH  21  22
ENDBRANCH   1  21
TORSDOF 7
ENDMDL
