MODEL 1
REMARK VINA RESULT:      -5.7      0.000      0.000
REMARK  Name = 
REMARK  7 active torsions:
REMARK  status: ('A' for Active; 'I' for Inactive)
REMARK    1  A    between atoms: C_5  and  C_7
REMARK    2  A    between atoms: C_7  and  C_8
REMARK    3  A    between atoms: C_8  and  C_9
REMARK    4  A    between atoms: C_9  and  C_10
REMARK    5  A    between atoms: C_10  and  C_11
REMARK    6  A    between atoms: C_11  and  C_12
REMARK    7  A    between atoms: C_12  and  O_13
REMARK                            x       y       z     vdW  Elec       q    Type
REMARK                         _______ _______ _______ _____ _____    ______ ____
ROOT
ATOM      1  C   UNL     1       8.114  -5.236  24.483  0.00  0.00    +0.105 C 
ATOM      2  N   UNL     1       7.144  -5.264  25.553  0.00  0.00    -0.294 N 
ATOM      3  H   UNL     1       6.234  -5.705  25.529  0.00  0.00    +0.151 HD
ATOM      4  C   UNL     1       7.808  -5.165  26.771  0.00  0.00    +0.300 C 
ATOM      5  O   UNL     1       7.325  -5.346  27.871  0.00  0.00    -0.253 OA
ATOM      6  N   UNL     1       9.120  -4.797  26.501  0.00  0.00    -0.294 N 
ATOM      7  H   UNL     1       9.733  -4.525  27.259  0.00  0.00    +0.151 HD
ATOM      8  C   UNL     1       9.259  -4.433  25.106  0.00  0.00    +0.108 C 
ATOM      9  C   UNL     1       9.028  -2.924  24.816  0.00  0.00    +0.069 C 
ATOM     10  S   UNL     1       8.084  -2.854  23.251  0.00  0.00    -0.154 S 
ATOM     11  C   UNL     1       7.685  -4.615  23.172  0.00  0.00    +0.093 C 
ENDROOT
BRANCH   9  12
ATOM     12  C   UNL     1       8.323  -2.129  25.935  0.00  0.00    +0.016 C 
BRANCH  12  13
ATOM     13  C   UNL     1       9.053  -0.858  26.379  0.00  0.00    +0.001 C 
BRANCH  13  14
ATOM     14  C   UNL     1       8.997   0.208  25.281  0.00  0.00    +0.001 C 
BRANCH  14  15
ATOM     15  C   UNL     1      10.394   0.501  24.734  0.00  0.00    +0.011 C 
BRANCH  15  16
ATOM     16  C   UNL     1      10.378   1.649  23.729  0.00  0.00    +0.120 C 
BRANCH  16  17
ATOM     17  C   UNL     1      10.060   1.158  22.334  0.00  0.00    +0.305 C 
ATOM     18  O   UNL     1      10.040  -0.010  21.980  0.00  0.00    -0.251 OA
BRANCH  17  19
ATOM     19  O   UNL     1       9.790   2.174  21.482  0.00  0.00    -0.481 OA
ATOM     20  H   UNL     1      10.534   2.396  20.891  0.00  0.00    +0.295 HD
ENDBRANCH  17  19
ENDBRANCH  16  17
ENDBRANCH  15  16
ENDBRANCH  14  15
ENDBRANCH  13  14
ENDBRANCH  12  13
ENDBRANCH   9  12
TORSDOF 7
ENDMDL
MODEL 2
REMARK VINA RESULT:      -5.5      3.545      4.811
REMARK  Name = 
REMARK  7 active torsions:
REMARK  status: ('A' for Active; 'I' for Inactive)
REMARK    1  A    between atoms: C_5  and  C_7
REMARK    2  A    between atoms: C_7  and  C_8
REMARK    3  A    between atoms: C_8  and  C_9
REMARK    4  A    between atoms: C_9  and  C_10
REMARK    5  A    between atoms: C_10  and  C_11
REMARK    6  A    between atoms: C_11  and  C_12
REMARK    7  A    between atoms: C_12  and  O_13
REMARK                            x       y       z     vdW  Elec       q    Type
REMARK                         _______ _______ _______ _____ _____    ______ ____
ROOT
ATOM      1  C   UNL     1      10.016  -1.289  23.842  0.00  0.00    +0.105 C 
ATOM      2  N   UNL     1       8.855  -1.279  24.703  0.00  0.00    -0.294 N 
ATOM      3  H   UNL     1       8.216  -2.047  24.859  0.00  0.00    +0.151 HD
ATOM      4  C   UNL     1       9.052  -0.353  25.721  0.00  0.00    +0.300 C 
ATOM      5  O   UNL     1       8.370  -0.223  26.717  0.00  0.00    -0.253 OA
ATOM      6  N   UNL     1      10.159   0.414  25.378  0.00  0.00    -0.294 N 
ATOM      7  H   UNL     1      10.382   1.243  25.913  0.00  0.00    +0.151 HD
ATOM      8  C   UNL     1      10.557   0.134  24.014  0.00  0.00    +0.108 C 
ATOM      9  C   UNL     1       9.891   1.055  22.955  0.00  0.00    +0.069 C 
ATOM     10  S   UNL     1       9.485  -0.026  21.536  0.00  0.00    -0.154 S 
ATOM     11  C   UNL     1       9.793  -1.595  22.378  0.00  0.00    +0.093 C 
ENDROOT
BRANCH   9  12
ATOM     12  C   UNL     1       8.652   1.839  23.437  0.00  0.00    +0.016 C 
BRANCH  12  13
ATOM     13  C   UNL     1       8.698   3.346  23.163  0.00  0.00    +0.001 C 
BRANCH  13  14
ATOM     14  C   UNL     1       9.394   4.083  24.311  0.00  0.00    +0.001 C 
BRANCH  14  15
ATOM     15  C   UNL     1      10.446   5.054  23.777  0.00  0.00    +0.011 C 
BRANCH  15  16
ATOM     16  C   UNL     1      11.743   4.338  23.413  0.00  0.00    +0.120 C 
BRANCH  16  17
ATOM     17  C   UNL     1      12.884   5.315  23.241  0.00  0.00    +0.305 C 
ATOM     18  O   UNL     1      13.603   5.401  22.259  0.00  0.00    -0.251 OA
BRANCH  17  19
ATOM     19  O   UNL     1      13.039   6.117  24.320  0.00  0.00    -0.481 OA
ATOM     20  H   UNL     1      13.819   6.701  24.263  0.00  0.00    +0.295 HD
ENDBRANCH  17  19
ENDBRANCH  16  17
ENDBRANCH  15  16
ENDBRANCH  14  15
ENDBRANCH  13  14
ENDBRANCH  12  13
ENDBRANCH   9  12
TORSDOF 7
ENDMDL
MODEL 3
REMARK VINA RESULT:      -5.5      4.068      7.073
REMARK  Name = 
REMARK  7 active torsions:
REMARK  status: ('A' for Active; 'I' for Inactive)
REMARK    1  A    between atoms: C_5  and  C_7
REMARK    2  A    between atoms: C_7  and  C_8
REMARK    3  A    between atoms: C_8  and  C_9
REMARK    4  A    between atoms: C_9  and  C_10
REMARK    5  A    between atoms: C_10  and  C_11
REMARK    6  A    between atoms: C_11  and  C_12
REMARK    7  A    between atoms: C_12  and  O_13
REMARK                            x       y       z     vdW  Elec       q    Type
REMARK                         _______ _______ _______ _____ _____    ______ ____
ROOT
ATOM      1  C   UNL     1       9.966   2.035  22.961  0.00  0.00    +0.105 C 
ATOM      2  N   UNL     1       8.606   2.491  23.139  0.00  0.00    -0.294 N 
ATOM      3  H   UNL     1       8.289   3.196  23.791  0.00  0.00    +0.151 HD
ATOM      4  C   UNL     1       7.910   2.317  21.948  0.00  0.00    +0.300 C 
ATOM      5  O   UNL     1       6.811   2.763  21.686  0.00  0.00    -0.253 OA
ATOM      6  N   UNL     1       8.690   1.518  21.122  0.00  0.00    -0.294 N 
ATOM      7  H   UNL     1       8.300   1.148  20.265  0.00  0.00    +0.151 HD
ATOM      8  C   UNL     1       9.810   0.978  21.863  0.00  0.00    +0.108 C 
ATOM      9  C   UNL     1       9.530  -0.398  22.528  0.00  0.00    +0.069 C 
ATOM     10  S   UNL     1      10.327  -0.330  24.174  0.00  0.00    -0.154 S 
ATOM     11  C   UNL     1      10.664   1.445  24.167  0.00  0.00    +0.093 C 
ENDROOT
BRANCH   9  12
ATOM     12  C   UNL     1       8.043  -0.795  22.640  0.00  0.00    +0.016 C 
BRANCH  12  13
ATOM     13  C   UNL     1       7.783  -2.112  23.377  0.00  0.00    +0.001 C 
BRANCH  13  14
ATOM     14  C   UNL     1       7.408  -3.220  22.388  0.00  0.00    +0.001 C 
BRANCH  14  15
ATOM     15  C   UNL     1       7.264  -4.563  23.103  0.00  0.00    +0.011 C 
BRANCH  15  16
ATOM     16  C   UNL     1       7.294  -5.731  22.121  0.00  0.00    +0.120 C 
BRANCH  16  17
ATOM     17  C   UNL     1       6.041  -5.774  21.276  0.00  0.00    +0.305 C 
ATOM     18  O   UNL     1       5.985  -5.557  20.077  0.00  0.00    -0.251 OA
BRANCH  17  19
ATOM     19  O   UNL     1       4.943  -6.088  22.003  0.00  0.00    -0.481 OA
ATOM     20  H   UNL     1       5.078  -6.012  22.967  0.00  0.00    +0.295 HD
ENDBRANCH  17  19
ENDBRANCH  16  17
ENDBRANCH  15  16
ENDBRANCH  14  15
ENDBRANCH  13  14
ENDBRANCH  12  13
ENDBRANCH   9  12
TORSDOF 7
ENDMDL
MODEL 4
REMARK VINA RESULT:      -5.5      3.433      6.467
REMARK  Name = 
REMARK  7 active torsions:
REMARK  status: ('A' for Active; 'I' for Inactive)
REMARK    1  A    between atoms: C_5  and  C_7
REMARK    2  A    between atoms: C_7  and  C_8
REMARK    3  A    between atoms: C_8  and  C_9
REMARK    4  A    between atoms: C_9  and  C_10
REMARK    5  A    between atoms: C_10  and  C_11
REMARK    6  A    between atoms: C_11  and  C_12
REMARK    7  A    between atoms: C_12  and  O_13
REMARK                            x       y       z     vdW  Elec       q    Type
REMARK                         _______ _______ _______ _____ _____    ______ ____
ROOT
ATOM      1  C   UNL     1       7.534   2.141  22.716  0.00  0.00    +0.105 C 
ATOM      2  N   UNL     1       7.769   0.789  22.260  0.00  0.00    -0.294 N 
ATOM      3  H   UNL     1       7.065   0.092  22.060  0.00  0.00    +0.151 HD
ATOM      4  C   UNL     1       8.970   0.748  21.562  0.00  0.00    +0.300 C 
ATOM      5  O   UNL     1       9.378  -0.176  20.886  0.00  0.00    -0.253 OA
ATOM      6  N   UNL     1       9.632   1.946  21.800  0.00  0.00    -0.294 N 
ATOM      7  H   UNL     1      10.594   2.057  21.505  0.00  0.00    +0.151 HD
ATOM      8  C   UNL     1       8.959   2.689  22.844  0.00  0.00    +0.108 C 
ATOM      9  C   UNL     1       9.483   2.392  24.276  0.00  0.00    +0.069 C 
ATOM     10  S   UNL     1       8.003   2.336  25.350  0.00  0.00    -0.154 S 
ATOM     11  C   UNL     1       6.783   2.314  24.017  0.00  0.00    +0.093 C 
ENDROOT
BRANCH   9  12
ATOM     12  C   UNL     1      10.334   1.113  24.424  0.00  0.00    +0.016 C 
BRANCH  12  13
ATOM     13  C   UNL     1       9.660  -0.021  25.203  0.00  0.00    +0.001 C 
BRANCH  13  14
ATOM     14  C   UNL     1       9.802  -1.350  24.455  0.00  0.00    +0.001 C 
BRANCH  14  15
ATOM     15  C   UNL     1       8.687  -2.318  24.848  0.00  0.00    +0.011 C 
BRANCH  15  16
ATOM     16  C   UNL     1       9.033  -3.758  24.477  0.00  0.00    +0.120 C 
BRANCH  16  17
ATOM     17  C   UNL     1       9.424  -4.563  25.696  0.00  0.00    +0.305 C 
ATOM     18  O   UNL     1       8.986  -4.401  26.824  0.00  0.00    -0.251 OA
BRANCH  17  19
ATOM     19  O   UNL     1      10.341  -5.516  25.409  0.00  0.00    -0.481 OA
ATOM     20  H   UNL     1       9.959  -6.310  24.989  0.00  0.00    +0.295 HD
ENDBRANCH  17  19
ENDBRANCH  16  17
ENDBRANCH  15  16
ENDBRANCH  14  15
ENDBRANCH  13  14
ENDBRANCH  12  13
ENDBRANCH   9  12
TORSDOF 7
ENDMDL
MODEL 5
REMARK VINA RESULT:      -5.5      1.633      1.995
REMARK  Name = 
REMARK  7 active torsions:
REMARK  status: ('A' for Active; 'I' for Inactive)
REMARK    1  A    between atoms: C_5  and  C_7
REMARK    2  A    between atoms: C_7  and  C_8
REMARK    3  A    between atoms: C_8  and  C_9
REMARK    4  A    between atoms: C_9  and  C_10
REMARK    5  A    between atoms: C_10  and  C_11
REMARK    6  A    between atoms: C_11  and  C_12
REMARK    7  A    between atoms: C_12  and  O_13
REMARK                            x       y       z     vdW  Elec       q    Type
REMARK                         _______ _______ _______ _____ _____    ______ ____
ROOT
ATOM      1  C   UNL     1       6.412  -5.299  24.043  0.00  0.00    +0.105 C 
ATOM      2  N   UNL     1       6.323  -5.065  25.466  0.00  0.00    -0.294 N 
ATOM      3  H   UNL     1       5.532  -5.270  26.061  0.00  0.00    +0.151 HD
ATOM      4  C   UNL     1       7.601  -5.104  26.014  0.00  0.00    +0.300 C 
ATOM      5  O   UNL     1       7.876  -5.136  27.196  0.00  0.00    -0.253 OA
ATOM      6  N   UNL     1       8.506  -5.073  24.960  0.00  0.00    -0.294 N 
ATOM      7  H   UNL     1       9.492  -4.943  25.148  0.00  0.00    +0.151 HD
ATOM      8  C   UNL     1       7.819  -4.785  23.719  0.00  0.00    +0.108 C 
ATOM      9  C   UNL     1       7.733  -3.273  23.374  0.00  0.00    +0.069 C 
ATOM     10  S   UNL     1       6.056  -3.009  22.692  0.00  0.00    -0.154 S 
ATOM     11  C   UNL     1       5.387  -4.621  23.162  0.00  0.00    +0.093 C 
ENDROOT
BRANCH   9  12
ATOM     12  C   UNL     1       8.024  -2.305  24.540  0.00  0.00    +0.016 C 
BRANCH  12  13
ATOM     13  C   UNL     1       9.417  -1.668  24.515  0.00  0.00    +0.001 C 
BRANCH  13  14
ATOM     14  C   UNL     1      10.050  -1.809  23.127  0.00  0.00    +0.001 C 
BRANCH  14  15
ATOM     15  C   UNL     1      10.339  -0.437  22.519  0.00  0.00    +0.011 C 
BRANCH  15  16
ATOM     16  C   UNL     1       9.323  -0.073  21.439  0.00  0.00    +0.120 C 
BRANCH  16  17
ATOM     17  C   UNL     1       8.963   1.395  21.493  0.00  0.00    +0.305 C 
ATOM     18  O   UNL     1       7.830   1.849  21.482  0.00  0.00    -0.251 OA
BRANCH  17  19
ATOM     19  O   UNL     1      10.057   2.189  21.556  0.00  0.00    -0.481 OA
ATOM     20  H   UNL     1      10.025   2.947  20.941  0.00  0.00    +0.295 HD
ENDBRANCH  17  19
ENDBRANCH  16  17
ENDBRANCH  15  16
ENDBRANCH  14  15
ENDBRANCH  13  14
ENDBRANCH  12  13
ENDBRANCH   9  12
TORSDOF 7
ENDMDL
MODEL 6
REMARK VINA RESULT:      -5.4      3.430      6.725
REMARK  Name = 
REMARK  7 active torsions:
REMARK  status: ('A' for Active; 'I' for Inactive)
REMARK    1  A    between atoms: C_5  and  C_7
REMARK    2  A    between atoms: C_7  and  C_8
REMARK    3  A    between atoms: C_8  and  C_9
REMARK    4  A    between atoms: C_9  and  C_10
REMARK    5  A    between atoms: C_10  and  C_11
REMARK    6  A    between atoms: C_11  and  C_12
REMARK    7  A    between atoms: C_12  and  O_13
REMARK                            x       y       z     vdW  Elec       q    Type
REMARK                         _______ _______ _______ _____ _____    ______ ____
ROOT
ATOM      1  C   UNL     1      10.094   1.758  22.943  0.00  0.00    +0.105 C 
ATOM      2  N   UNL     1       8.807   2.386  23.134  0.00  0.00    -0.294 N 
ATOM      3  H   UNL     1       8.596   3.143  23.770  0.00  0.00    +0.151 HD
ATOM      4  C   UNL     1       8.066   2.269  21.963  0.00  0.00    +0.300 C 
ATOM      5  O   UNL     1       7.026   2.843  21.709  0.00  0.00    -0.253 OA
ATOM      6  N   UNL     1       8.721   1.356  21.146  0.00  0.00    -0.294 N 
ATOM      7  H   UNL     1       8.268   1.015  20.308  0.00  0.00    +0.151 HD
ATOM      8  C   UNL     1       9.782   0.700  21.881  0.00  0.00    +0.108 C 
ATOM      9  C   UNL     1       9.348  -0.611  22.592  0.00  0.00    +0.069 C 
ATOM     10  S   UNL     1      10.185  -0.600  24.218  0.00  0.00    -0.154 S 
ATOM     11  C   UNL     1      10.741   1.118  24.152  0.00  0.00    +0.093 C 
ENDROOT
BRANCH   9  12
ATOM     12  C   UNL     1       7.825  -0.815  22.744  0.00  0.00    +0.016 C 
BRANCH  12  13
ATOM     13  C   UNL     1       7.420  -1.940  23.702  0.00  0.00    +0.001 C 
BRANCH  13  14
ATOM     14  C   UNL     1       6.952  -3.172  22.922  0.00  0.00    +0.001 C 
BRANCH  14  15
ATOM     15  C   UNL     1       7.669  -4.431  23.410  0.00  0.00    +0.011 C 
BRANCH  15  16
ATOM     16  C   UNL     1       8.777  -4.099  24.406  0.00  0.00    +0.120 C 
BRANCH  16  17
ATOM     17  C   UNL     1       9.004  -5.235  25.377  0.00  0.00    +0.305 C 
ATOM     18  O   UNL     1       8.158  -5.724  26.108  0.00  0.00    -0.251 OA
BRANCH  17  19
ATOM     19  O   UNL     1      10.284  -5.676  25.360  0.00  0.00    -0.481 OA
ATOM     20  H   UNL     1      10.365  -6.642  25.478  0.00  0.00    +0.295 HD
ENDBRANCH  17  19
ENDBRANCH  16  17
ENDBRANCH  15  16
ENDBRANCH  14  15
ENDBRANCH  13  14
ENDBRANCH  12  13
ENDBRANCH   9  12
TORSDOF 7
ENDMDL
MODEL 7
REMARK VINA RESULT:      -5.4      3.166      5.799
REMARK  Name = 
REMARK  7 active torsions:
REMARK  status: ('A' for Active; 'I' for Inactive)
REMARK    1  A    between atoms: C_5  and  C_7
REMARK    2  A    between atoms: C_7  and  C_8
REMARK    3  A    between atoms: C_8  and  C_9
REMARK    4  A    between atoms: C_9  and  C_10
REMARK    5  A    between atoms: C_10  and  C_11
REMARK    6  A    between atoms: C_11  and  C_12
REMARK    7  A    between atoms: C_12  and  O_13
REMARK                            x       y       z     vdW  Elec       q    Type
REMARK                         _______ _______ _______ _____ _____    ______ ____
ROOT
ATOM      1  C   UNL     1       9.561   1.624  24.664  0.00  0.00    +0.105 C 
ATOM      2  N   UNL     1       9.847   0.428  25.422  0.00  0.00    -0.294 N 
ATOM      3  H   UNL     1      10.705   0.220  25.916  0.00  0.00    +0.151 HD
ATOM      4  C   UNL     1       8.654  -0.106  25.896  0.00  0.00    +0.300 C 
ATOM      5  O   UNL     1       8.539  -0.992  26.720  0.00  0.00    -0.253 OA
ATOM      6  N   UNL     1       7.617   0.543  25.238  0.00  0.00    -0.294 N 
ATOM      7  H   UNL     1       6.670   0.199  25.329  0.00  0.00    +0.151 HD
ATOM      8  C   UNL     1       8.141   1.353  24.158  0.00  0.00    +0.108 C 
ATOM      9  C   UNL     1       8.227   0.617  22.793  0.00  0.00    +0.069 C 
ATOM     10  S   UNL     1       9.804   1.149  22.035  0.00  0.00    -0.154 S 
ATOM     11  C   UNL     1      10.480   1.950  23.507  0.00  0.00    +0.093 C 
ENDROOT
BRANCH   9  12
ATOM     12  C   UNL     1       8.125  -0.922  22.857  0.00  0.00    +0.016 C 
BRANCH  12  13
ATOM     13  C   UNL     1       9.445  -1.664  22.626  0.00  0.00    +0.001 C 
BRANCH  13  14
ATOM     14  C   UNL     1       9.654  -2.741  23.695  0.00  0.00    +0.001 C 
BRANCH  14  15
ATOM     15  C   UNL     1       8.332  -3.422  24.048  0.00  0.00    +0.011 C 
BRANCH  15  16
ATOM     16  C   UNL     1       8.545  -4.861  24.512  0.00  0.00    +0.120 C 
BRANCH  16  17
ATOM     17  C   UNL     1       9.262  -4.911  25.842  0.00  0.00    +0.305 C 
ATOM     18  O   UNL     1       8.845  -4.449  26.892  0.00  0.00    -0.251 OA
BRANCH  17  19
ATOM     19  O   UNL     1      10.457  -5.540  25.756  0.00  0.00    -0.481 OA
ATOM     20  H   UNL     1      11.221  -4.933  25.789  0.00  0.00    +0.295 HD
ENDBRANCH  17  19
ENDBRANCH  16  17
ENDBRANCH  15  16
ENDBRANCH  14  15
ENDBRANCH  13  14
ENDBRANCH  12  13
ENDBRANCH   9  12
TORSDOF 7
ENDMDL
MODEL 8
REMARK VINA RESULT:      -5.4      3.128      5.650
REMARK  Name = 
REMARK  7 active torsions:
REMARK  status: ('A' for Active; 'I' for Inactive)
REMARK    1  A    between atoms: C_5  and  C_7
REMARK    2  A    between atoms: C_7  and  C_8
REMARK    3  A    between atoms: C_8  and  C_9
REMARK    4  A    between atoms: C_9  and  C_10
REMARK    5  A    between atoms: C_10  and  C_11
REMARK    6  A    between atoms: C_11  and  C_12
REMARK    7  A    between atoms: C_12  and  O_13
REMARK                            x       y       z     vdW  Elec       q    Type
REMARK                         _______ _______ _______ _____ _____    ______ ____
ROOT
ATOM      1  C   UNL     1       8.795   0.837  21.891  0.00  0.00    +0.105 C 
ATOM      2  N   UNL     1       7.956  -0.291  22.227  0.00  0.00    -0.294 N 
ATOM      3  H   UNL     1       6.950  -0.339  22.138  0.00  0.00    +0.151 HD
ATOM      4  C   UNL     1       8.697  -1.461  22.105  0.00  0.00    +0.300 C 
ATOM      5  O   UNL     1       8.260  -2.594  22.126  0.00  0.00    -0.253 OA
ATOM      6  N   UNL     1      10.032  -1.097  21.979  0.00  0.00    -0.294 N 
ATOM      7  H   UNL     1      10.753  -1.805  22.028  0.00  0.00    +0.151 HD
ATOM      8  C   UNL     1      10.191   0.317  22.246  0.00  0.00    +0.108 C 
ATOM      9  C   UNL     1      10.488   0.654  23.733  0.00  0.00    +0.069 C 
ATOM     10  S   UNL     1       9.521   2.161  24.107  0.00  0.00    -0.154 S 
ATOM     11  C   UNL     1       8.521   2.143  22.602  0.00  0.00    +0.093 C 
ENDROOT
BRANCH   9  12
ATOM     12  C   UNL     1      10.190  -0.472  24.746  0.00  0.00    +0.016 C 
BRANCH  12  13
ATOM     13  C   UNL     1       8.992  -0.211  25.663  0.00  0.00    +0.001 C 
BRANCH  13  14
ATOM     14  C   UNL     1       8.675  -1.451  26.503  0.00  0.00    +0.001 C 
BRANCH  14  15
ATOM     15  C   UNL     1       8.378  -2.654  25.609  0.00  0.00    +0.011 C 
BRANCH  15  16
ATOM     16  C   UNL     1       8.758  -3.969  26.285  0.00  0.00    +0.120 C 
BRANCH  16  17
ATOM     17  C   UNL     1       9.312  -4.962  25.288  0.00  0.00    +0.305 C 
ATOM     18  O   UNL     1       8.826  -5.219  24.198  0.00  0.00    -0.251 OA
BRANCH  17  19
ATOM     19  O   UNL     1      10.439  -5.563  25.735  0.00  0.00    -0.481 OA
ATOM     20  H   UNL     1      10.281  -6.198  26.460  0.00  0.00    +0.295 HD
ENDBRANCH  17  19
ENDBRANCH  16  17
ENDBRANCH  15  16
ENDBRANCH  14  15
ENDBRANCH  13  14
ENDBRANCH  12  13
ENDBRANCH   9  12
TORSDOF 7
ENDMDL
MODEL 9
REMARK VINA RESULT:      -5.4      2.957      5.664
REMARK  Name = 
REMARK  7 active torsions:
REMARK  status: ('A' for Active; 'I' for Inactive)
REMARK    1  A    between atoms: C_5  and  C_7
REMARK    2  A    between atoms: C_7  and  C_8
REMARK    3  A    between atoms: C_8  and  C_9
REMARK    4  A    between atoms: C_9  and  C_10
REMARK    5  A    between atoms: C_10  and  C_11
REMARK    6  A    between atoms: C_11  and  C_12
REMARK    7  A    between atoms: C_12  and  O_13
REMARK                            x       y       z     vdW  Elec       q    Type
REMARK                         _______ _______ _______ _____ _____    ______ ____
ROOT
ATOM      1  C   UNL     1       9.585   0.636  22.286  0.00  0.00    +0.105 C 
ATOM      2  N   UNL     1       9.729  -0.765  21.965  0.00  0.00    -0.294 N 
ATOM      3  H   UNL     1       9.869  -1.161  21.045  0.00  0.00    +0.151 HD
ATOM      4  C   UNL     1      10.253  -1.432  23.067  0.00  0.00    +0.300 C 
ATOM      5  O   UNL     1      10.676  -2.571  23.085  0.00  0.00    -0.253 OA
ATOM      6  N   UNL     1      10.181  -0.566  24.151  0.00  0.00    -0.294 N 
ATOM      7  H   UNL     1      10.373  -0.909  25.083  0.00  0.00    +0.151 HD
ATOM      8  C   UNL     1       9.397   0.601  23.806  0.00  0.00    +0.108 C 
ATOM      9  C   UNL     1       7.881   0.466  24.120  0.00  0.00    +0.069 C 
ATOM     10  S   UNL     1       7.007   1.241  22.712  0.00  0.00    -0.154 S 
ATOM     11  C   UNL     1       8.447   1.386  21.630  0.00  0.00    +0.093 C 
ENDROOT
BRANCH   9  12
ATOM     12  C   UNL     1       7.378  -0.971  24.373  0.00  0.00    +0.016 C 
BRANCH  12  13
ATOM     13  C   UNL     1       6.499  -1.550  23.259  0.00  0.00    +0.001 C 
BRANCH  13  14
ATOM     14  C   UNL     1       6.836  -3.024  23.017  0.00  0.00    +0.001 C 
BRANCH  14  15
ATOM     15  C   UNL     1       7.089  -3.750  24.338  0.00  0.00    +0.011 C 
BRANCH  15  16
ATOM     16  C   UNL     1       8.170  -4.818  24.198  0.00  0.00    +0.120 C 
BRANCH  16  17
ATOM     17  C   UNL     1       9.196  -4.713  25.304  0.00  0.00    +0.305 C 
ATOM     18  O   UNL     1       8.980  -4.314  26.437  0.00  0.00    -0.251 OA
BRANCH  17  19
ATOM     19  O   UNL     1      10.424  -5.119  24.905  0.00  0.00    -0.481 OA
ATOM     20  H   UNL     1      11.102  -5.055  25.604  0.00  0.00    +0.295 HD
ENDBRANCH  17  19
ENDBRANCH  16  17
ENDBRANCH  15  16
ENDBRANCH  14  15
ENDBRANCH  13  14
ENDBRANCH  12  13
ENDBRANCH   9  12
TORSDOF 7
ENDMDL
