MODEL 1
REMARK VINA RESULT:      -6.4      0.000      0.000
REMARK  Name = 
REMARK  18 active torsions:
REMARK  status: ('A' for Active; 'I' for Inactive)
REMARK    1  A    between atoms: C_1  and  O_2
REMARK    2  A    between atoms: O_2  and  C_3
REMARK    3  A    between atoms: C_3  and  C_5
REMARK    4  A    between atoms: C_3  and  C_27
REMARK    5  A    between atoms: C_6  and  C_7
REMARK    6  A    between atoms: C_10  and  C_12
REMARK    7  A    between atoms: C_15  and  C_17
REMARK    8  A    between atoms: C_17  and  C_19
REMARK    9  A    between atoms: C_17  and  C_20
REMARK   10  A    between atoms: C_21  and  C_22
REMARK   11  A    between atoms: C_23  and  C_24
REMARK   12  A    between atoms: C_24  and  C_25
REMARK   13  A    between atoms: C_24  and  C_26
REMARK   14  A    between atoms: C_27  and  C_29
REMARK   15  A    between atoms: C_27  and  C_30
REMARK   16  A    between atoms: C_30  and  O_31
REMARK   17  A    between atoms: O_31  and  C_32
REMARK   18  A    between atoms: C_33  and  C_34
REMARK                            x       y       z     vdW  Elec       q    Type
REMARK                         _______ _______ _______ _____ _____    ______ ____
ROOT
ATOM      1  C   UNL     1       8.243  -1.583  23.046  0.00  0.00    +0.072 A 
ATOM      2  N   UNL     1       8.021  -0.334  23.586  0.00  0.00    -0.238 NA
ATOM      3  C   UNL     1       8.718   0.563  22.911  0.00  0.00    +0.128 A 
ATOM      4  S   UNL     1       9.698  -0.065  21.641  0.00  0.00    -0.074 S 
ATOM      5  C   UNL     1       9.117  -1.639  21.984  0.00  0.00    +0.075 A 
ENDROOT
BRANCH   3   6
ATOM      6  C   UNL     1       8.651   2.033  23.217  0.00  0.00    +0.103 A 
ATOM      7  N   UNL     1       7.545   2.815  22.912  0.00  0.00    -0.241 NA
ATOM      8  C   UNL     1       7.753   4.059  23.301  0.00  0.00    +0.086 A 
ATOM      9  S   UNL     1       9.274   4.348  24.055  0.00  0.00    -0.079 S 
ATOM     10  C   UNL     1       9.688   2.702  23.833  0.00  0.00    +0.077 A 
BRANCH   8  11
ATOM     11  C   UNL     1       6.770   5.196  23.111  0.00  0.00    +0.064 C 
ATOM     12  C   UNL     1       7.252   6.114  21.982  0.00  0.00    +0.019 C 
BRANCH  11  13
ATOM     13  C   UNL     1       5.356   4.735  22.819  0.00  0.00    -0.017 C 
ATOM     14  C   UNL     1       4.317   5.567  22.647  0.00  0.00    -0.004 C 
BRANCH  14  15
ATOM     15  C   UNL     1       2.982   5.101  22.352  0.00  0.00    -0.004 C 
ATOM     16  C   UNL     1       2.738   3.997  21.631  0.00  0.00    -0.024 C 
BRANCH  16  17
ATOM     17  C   UNL     1       1.351   3.491  21.320  0.00  0.00    +0.005 C 
ATOM     18  C   UNL     1       0.723   2.867  22.565  0.00  0.00    +0.011 C 
ATOM     19  C   UNL     1       1.401   2.478  20.173  0.00  0.00    +0.011 C 
ENDBRANCH  16  17
ENDBRANCH  14  15
ENDBRANCH  11  13
ENDBRANCH   8  11
ENDBRANCH   3   6
BRANCH   1  21
ATOM     20  C   UNL     1       7.583  -3.951  23.027  0.00  0.00    +0.007 C 
ATOM     21  C   UNL     1       7.580  -2.726  23.576  0.00  0.00    +0.026 C 
BRANCH  20  22
ATOM     22  C   UNL     1       6.849  -5.158  23.561  0.00  0.00    +0.151 C 
BRANCH  22  24
ATOM     23  C   UNL     1       6.400  -5.824  21.275  0.00  0.00    +0.194 C 
ATOM     24  O   UNL     1       5.882  -5.588  22.577  0.00  0.00    -0.375 OA
ENDBRANCH  22  24
BRANCH  22  25
ATOM     25  C   UNL     1       6.076  -4.945  24.909  0.00  0.00    +0.084 C 
ATOM     26  C   UNL     1       4.558  -5.088  24.714  0.00  0.00    +0.018 C 
BRANCH  25  27
ATOM     27  C   UNL     1       6.511  -5.728  26.158  0.00  0.00    +0.108 C 
ATOM     28  C   UNL     1       7.692  -5.578  26.790  0.00  0.00    +0.108 C 
BRANCH  28  29
ATOM     29  C   UNL     1       8.824  -4.676  26.460  0.00  0.00    +0.238 C 
ATOM     30  O   UNL     1       8.852  -3.469  26.641  0.00  0.00    -0.271 OA
ATOM     31  N   UNL     1       9.901  -5.321  25.930  0.00  0.00    -0.326 N 
ATOM     32  H   UNL     1      10.724  -4.765  25.739  0.00  0.00    +0.145 HD
ATOM     33  H   UNL     1       9.952  -6.319  25.785  0.00  0.00    +0.145 HD
ENDBRANCH  28  29
BRANCH  27  34
ATOM     34  O   UNL     1       5.581  -6.483  26.876  0.00  0.00    -0.499 OA
ATOM     35  C   UNL     1       5.585  -6.461  28.292  0.00  0.00    +0.276 C 
ENDBRANCH  27  34
ENDBRANCH  25  27
ENDBRANCH  22  25
ENDBRANCH  20  22
ENDBRANCH   1  21
TORSDOF 12
ENDMDL
MODEL 2
REMARK VINA RESULT:      -6.3      3.662      6.101
REMARK  Name = 
REMARK  18 active torsions:
REMARK  status: ('A' for Active; 'I' for Inactive)
REMARK    1  A    between atoms: C_1  and  O_2
REMARK    2  A    between atoms: O_2  and  C_3
REMARK    3  A    between atoms: C_3  and  C_5
REMARK    4  A    between atoms: C_3  and  C_27
REMARK    5  A    between atoms: C_6  and  C_7
REMARK    6  A    between atoms: C_10  and  C_12
REMARK    7  A    between atoms: C_15  and  C_17
REMARK    8  A    between atoms: C_17  and  C_19
REMARK    9  A    between atoms: C_17  and  C_20
REMARK   10  A    between atoms: C_21  and  C_22
REMARK   11  A    between atoms: C_23  and  C_24
REMARK   12  A    between atoms: C_24  and  C_25
REMARK   13  A    between atoms: C_24  and  C_26
REMARK   14  A    between atoms: C_27  and  C_29
REMARK   15  A    between atoms: C_27  and  C_30
REMARK   16  A    between atoms: C_30  and  O_31
REMARK   17  A    between atoms: O_31  and  C_32
REMARK   18  A    between atoms: C_33  and  C_34
REMARK                            x       y       z     vdW  Elec       q    Type
REMARK                         _______ _______ _______ _____ _____    ______ ____
ROOT
ATOM      1  C   UNL     1       6.204  -5.279  24.067  0.00  0.00    +0.072 A 
ATOM      2  N   UNL     1       7.023  -4.191  24.282  0.00  0.00    -0.238 NA
ATOM      3  C   UNL     1       7.468  -3.745  23.120  0.00  0.00    +0.128 A 
ATOM      4  S   UNL     1       6.960  -4.641  21.740  0.00  0.00    -0.074 S 
ATOM      5  C   UNL     1       6.044  -5.669  22.757  0.00  0.00    +0.075 A 
ENDROOT
BRANCH   3   6
ATOM      6  C   UNL     1       8.345  -2.529  23.006  0.00  0.00    +0.103 A 
ATOM      7  N   UNL     1       7.967  -1.392  22.307  0.00  0.00    -0.241 NA
ATOM      8  C   UNL     1       8.918  -0.480  22.382  0.00  0.00    +0.086 A 
ATOM      9  S   UNL     1      10.302  -0.938  23.298  0.00  0.00    -0.079 S 
ATOM     10  C   UNL     1       9.587  -2.463  23.602  0.00  0.00    +0.077 A 
BRANCH   8  11
ATOM     11  C   UNL     1       8.861   0.880  21.719  0.00  0.00    +0.064 C 
ATOM     12  C   UNL     1       7.470   1.496  21.916  0.00  0.00    +0.019 C 
BRANCH  11  13
ATOM     13  C   UNL     1       9.916   1.846  22.220  0.00  0.00    -0.017 C 
ATOM     14  C   UNL     1       9.704   2.754  23.185  0.00  0.00    -0.004 C 
BRANCH  14  15
ATOM     15  C   UNL     1      10.735   3.651  23.656  0.00  0.00    -0.004 C 
ATOM     16  C   UNL     1      11.700   4.133  22.861  0.00  0.00    -0.024 C 
BRANCH  16  17
ATOM     17  C   UNL     1      12.779   5.076  23.334  0.00  0.00    +0.005 C 
ATOM     18  C   UNL     1      12.187   6.133  24.264  0.00  0.00    +0.011 C 
ATOM     19  C   UNL     1      13.471   5.734  22.137  0.00  0.00    +0.011 C 
ENDBRANCH  16  17
ENDBRANCH  14  15
ENDBRANCH  11  13
ENDBRANCH   8  11
ENDBRANCH   3   6
BRANCH   1  21
ATOM     20  C   UNL     1       4.242  -5.968  25.380  0.00  0.00    +0.007 C 
ATOM     21  C   UNL     1       5.567  -5.929  25.162  0.00  0.00    +0.026 C 
BRANCH  20  22
ATOM     22  C   UNL     1       3.561  -6.620  26.560  0.00  0.00    +0.151 C 
BRANCH  22  24
ATOM     23  C   UNL     1       1.900  -7.050  24.850  0.00  0.00    +0.194 C 
ATOM     24  O   UNL     1       2.493  -7.463  26.073  0.00  0.00    -0.375 OA
ENDBRANCH  22  24
BRANCH  22  25
ATOM     25  C   UNL     1       2.937  -5.641  27.614  0.00  0.00    +0.084 C 
ATOM     26  C   UNL     1       2.138  -6.403  28.683  0.00  0.00    +0.018 C 
BRANCH  25  27
ATOM     27  C   UNL     1       3.834  -4.593  28.291  0.00  0.00    +0.108 C 
ATOM     28  C   UNL     1       4.973  -4.868  28.957  0.00  0.00    +0.108 C 
BRANCH  28  29
ATOM     29  C   UNL     1       5.620  -6.181  29.208  0.00  0.00    +0.238 C 
ATOM     30  O   UNL     1       5.224  -7.035  29.984  0.00  0.00    -0.271 OA
ATOM     31  N   UNL     1       6.739  -6.391  28.459  0.00  0.00    -0.326 N 
ATOM     32  H   UNL     1       7.189  -7.293  28.546  0.00  0.00    +0.145 HD
ATOM     33  H   UNL     1       7.099  -5.739  27.777  0.00  0.00    +0.145 HD
ENDBRANCH  28  29
BRANCH  27  34
ATOM     34  O   UNL     1       3.647  -3.233  28.035  0.00  0.00    -0.499 OA
ATOM     35  C   UNL     1       3.984  -2.269  29.016  0.00  0.00    +0.276 C 
ENDBRANCH  27  34
ENDBRANCH  25  27
ENDBRANCH  22  25
ENDBRANCH  20  22
ENDBRANCH   1  21
TORSDOF 12
ENDMDL
MODEL 3
REMARK VINA RESULT:      -6.2      4.459      9.587
REMARK  Name = 
REMARK  18 active torsions:
REMARK  status: ('A' for Active; 'I' for Inactive)
REMARK    1  A    between atoms: C_1  and  O_2
REMARK    2  A    between atoms: O_2  and  C_3
REMARK    3  A    between atoms: C_3  and  C_5
REMARK    4  A    between atoms: C_3  and  C_27
REMARK    5  A    between atoms: C_6  and  C_7
REMARK    6  A    between atoms: C_10  and  C_12
REMARK    7  A    between atoms: C_15  and  C_17
REMARK    8  A    between atoms: C_17  and  C_19
REMARK    9  A    between atoms: C_17  and  C_20
REMARK   10  A    between atoms: C_21  and  C_22
REMARK   11  A    between atoms: C_23  and  C_24
REMARK   12  A    between atoms: C_24  and  C_25
REMARK   13  A    between atoms: C_24  and  C_26
REMARK   14  A    between atoms: C_27  and  C_29
REMARK   15  A    between atoms: C_27  and  C_30
REMARK   16  A    between atoms: C_30  and  O_31
REMARK   17  A    between atoms: O_31  and  C_32
REMARK   18  A    between atoms: C_33  and  C_34
REMARK                            x       y       z     vdW  Elec       q    Type
REMARK                         _______ _______ _______ _____ _____    ______ ____
ROOT
ATOM      1  C   UNL     1       9.512   1.008  22.757  0.00  0.00    +0.072 A 
ATOM      2  N   UNL     1       8.768   0.473  23.787  0.00  0.00    -0.238 NA
ATOM      3  C   UNL     1       8.681  -0.836  23.626  0.00  0.00    +0.128 A 
ATOM      4  S   UNL     1       9.443  -1.461  22.214  0.00  0.00    -0.074 S 
ATOM      5  C   UNL     1       9.967   0.118  21.811  0.00  0.00    +0.075 A 
ENDROOT
BRANCH   3   6
ATOM      6  C   UNL     1       7.978  -1.724  24.615  0.00  0.00    +0.103 A 
ATOM      7  N   UNL     1       7.990  -3.109  24.523  0.00  0.00    -0.241 NA
ATOM      8  C   UNL     1       7.308  -3.632  25.525  0.00  0.00    +0.086 A 
ATOM      9  S   UNL     1       6.629  -2.494  26.624  0.00  0.00    -0.079 S 
ATOM     10  C   UNL     1       7.279  -1.216  25.690  0.00  0.00    +0.077 A 
BRANCH   8  11
ATOM     11  C   UNL     1       7.090  -5.116  25.735  0.00  0.00    +0.064 C 
ATOM     12  C   UNL     1       6.840  -5.398  27.221  0.00  0.00    +0.019 C 
BRANCH  11  13
ATOM     13  C   UNL     1       5.951  -5.686  24.914  0.00  0.00    -0.017 C 
ATOM     14  C   UNL     1       4.971  -6.452  25.420  0.00  0.00    -0.004 C 
BRANCH  14  15
ATOM     15  C   UNL     1       3.886  -6.967  24.617  0.00  0.00    -0.004 C 
ATOM     16  C   UNL     1       3.217  -6.218  23.730  0.00  0.00    -0.024 C 
BRANCH  16  17
ATOM     17  C   UNL     1       2.087  -6.741  22.878  0.00  0.00    +0.005 C 
ATOM     18  C   UNL     1       0.949  -5.723  22.825  0.00  0.00    +0.011 C 
ATOM     19  C   UNL     1       1.589  -8.082  23.422  0.00  0.00    +0.011 C 
ENDBRANCH  16  17
ENDBRANCH  14  15
ENDBRANCH  11  13
ENDBRANCH   8  11
ENDBRANCH   3   6
BRANCH   1  21
ATOM     20  C   UNL     1      10.792   3.022  23.349  0.00  0.00    +0.007 C 
ATOM     21  C   UNL     1       9.783   2.404  22.713  0.00  0.00    +0.026 C 
BRANCH  20  22
ATOM     22  C   UNL     1      11.062   4.508  23.341  0.00  0.00    +0.151 C 
BRANCH  22  24
ATOM     23  C   UNL     1      13.228   5.254  22.553  0.00  0.00    +0.194 C 
ATOM     24  O   UNL     1      12.462   4.728  23.628  0.00  0.00    -0.375 OA
ENDBRANCH  22  24
BRANCH  22  25
ATOM     25  C   UNL     1      10.238   5.356  24.371  0.00  0.00    +0.084 C 
ATOM     26  C   UNL     1      10.958   6.668  24.720  0.00  0.00    +0.018 C 
BRANCH  25  27
ATOM     27  C   UNL     1       8.753   5.643  24.092  0.00  0.00    +0.108 C 
ATOM     28  C   UNL     1       7.727   5.183  24.835  0.00  0.00    +0.108 C 
BRANCH  28  29
ATOM     29  C   UNL     1       7.755   4.320  26.042  0.00  0.00    +0.238 C 
ATOM     30  O   UNL     1       7.633   4.701  27.195  0.00  0.00    -0.271 OA
ATOM     31  N   UNL     1       7.916   2.996  25.765  0.00  0.00    -0.326 N 
ATOM     32  H   UNL     1       7.885   2.353  26.546  0.00  0.00    +0.145 HD
ATOM     33  H   UNL     1       7.990   2.615  24.833  0.00  0.00    +0.145 HD
ENDBRANCH  28  29
BRANCH  27  34
ATOM     34  O   UNL     1       8.386   6.628  23.174  0.00  0.00    -0.499 OA
ATOM     35  C   UNL     1       7.217   6.472  22.389  0.00  0.00    +0.276 C 
ENDBRANCH  27  34
ENDBRANCH  25  27
ENDBRANCH  22  25
ENDBRANCH  20  22
ENDBRANCH   1  21
TORSDOF 12
ENDMDL
MODEL 4
REMARK VINA RESULT:      -6.2      1.533      2.325
REMARK  Name = 
REMARK  18 active torsions:
REMARK  status: ('A' for Active; 'I' for Inactive)
REMARK    1  A    between atoms: C_1  and  O_2
REMARK    2  A    between atoms: O_2  and  C_3
REMARK    3  A    between atoms: C_3  and  C_5
REMARK    4  A    between atoms: C_3  and  C_27
REMARK    5  A    between atoms: C_6  and  C_7
REMARK    6  A    between atoms: C_10  and  C_12
REMARK    7  A    between atoms: C_15  and  C_17
REMARK    8  A    between atoms: C_17  and  C_19
REMARK    9  A    between atoms: C_17  and  C_20
REMARK   10  A    between atoms: C_21  and  C_22
REMARK   11  A    between atoms: C_23  and  C_24
REMARK   12  A    between atoms: C_24  and  C_25
REMARK   13  A    between atoms: C_24  and  C_26
REMARK   14  A    between atoms: C_27  and  C_29
REMARK   15  A    between atoms: C_27  and  C_30
REMARK   16  A    between atoms: C_30  and  O_31
REMARK   17  A    between atoms: O_31  and  C_32
REMARK   18  A    between atoms: C_33  and  C_34
REMARK                            x       y       z     vdW  Elec       q    Type
REMARK                         _______ _______ _______ _____ _____    ______ ____
ROOT
ATOM      1  C   UNL     1       8.520  -0.729  23.307  0.00  0.00    +0.072 A 
ATOM      2  N   UNL     1       8.054   0.563  23.181  0.00  0.00    -0.238 NA
ATOM      3  C   UNL     1       8.961   1.400  23.653  0.00  0.00    +0.128 A 
ATOM      4  S   UNL     1      10.376   0.668  24.307  0.00  0.00    -0.074 S 
ATOM      5  C   UNL     1       9.759  -0.874  23.889  0.00  0.00    +0.075 A 
ENDROOT
BRANCH   3   6
ATOM      6  C   UNL     1       8.780   2.892  23.611  0.00  0.00    +0.103 A 
ATOM      7  N   UNL     1       7.570   3.495  23.296  0.00  0.00    -0.241 NA
ATOM      8  C   UNL     1       7.694   4.807  23.346  0.00  0.00    +0.086 A 
ATOM      9  S   UNL     1       9.259   5.380  23.780  0.00  0.00    -0.079 S 
ATOM     10  C   UNL     1       9.811   3.764  23.893  0.00  0.00    +0.077 A 
BRANCH   8  11
ATOM     11  C   UNL     1       6.583   5.790  23.039  0.00  0.00    +0.064 C 
ATOM     12  C   UNL     1       7.003   6.703  21.882  0.00  0.00    +0.019 C 
BRANCH  11  13
ATOM     13  C   UNL     1       5.260   5.128  22.707  0.00  0.00    -0.017 C 
ATOM     14  C   UNL     1       4.262   4.963  23.588  0.00  0.00    -0.004 C 
BRANCH  14  15
ATOM     15  C   UNL     1       3.003   4.345  23.238  0.00  0.00    -0.004 C 
ATOM     16  C   UNL     1       2.636   4.107  21.971  0.00  0.00    -0.024 C 
BRANCH  16  17
ATOM     17  C   UNL     1       1.330   3.456  21.588  0.00  0.00    +0.005 C 
ATOM     18  C   UNL     1       0.661   2.847  22.819  0.00  0.00    +0.011 C 
ATOM     19  C   UNL     1       1.563   2.388  20.517  0.00  0.00    +0.011 C 
ENDBRANCH  16  17
ENDBRANCH  14  15
ENDBRANCH  11  13
ENDBRANCH   8  11
ENDBRANCH   3   6
BRANCH   1  21
ATOM     20  C   UNL     1       6.777  -2.448  23.537  0.00  0.00    +0.007 C 
ATOM     21  C   UNL     1       7.741  -1.824  22.840  0.00  0.00    +0.026 C 
BRANCH  20  22
ATOM     22  C   UNL     1       5.974  -3.636  23.064  0.00  0.00    +0.151 C 
BRANCH  22  24
ATOM     23  C   UNL     1       3.826  -4.702  23.409  0.00  0.00    +0.194 C 
ATOM     24  O   UNL     1       4.665  -3.587  23.674  0.00  0.00    -0.375 OA
ENDBRANCH  22  24
BRANCH  22  25
ATOM     25  C   UNL     1       6.584  -5.044  23.388  0.00  0.00    +0.084 C 
ATOM     26  C   UNL     1       7.181  -5.700  22.132  0.00  0.00    +0.018 C 
BRANCH  25  27
ATOM     27  C   UNL     1       7.569  -5.186  24.560  0.00  0.00    +0.108 C 
ATOM     28  C   UNL     1       7.221  -5.480  25.828  0.00  0.00    +0.108 C 
BRANCH  28  29
ATOM     29  C   UNL     1       5.872  -5.720  26.399  0.00  0.00    +0.238 C 
ATOM     30  O   UNL     1       5.378  -6.813  26.625  0.00  0.00    -0.271 OA
ATOM     31  N   UNL     1       5.190  -4.578  26.691  0.00  0.00    -0.326 N 
ATOM     32  H   UNL     1       4.287  -4.681  27.136  0.00  0.00    +0.145 HD
ATOM     33  H   UNL     1       5.556  -3.647  26.558  0.00  0.00    +0.145 HD
ENDBRANCH  28  29
BRANCH  27  34
ATOM     34  O   UNL     1       8.942  -5.265  24.320  0.00  0.00    -0.499 OA
ATOM     35  C   UNL     1       9.865  -4.866  25.318  0.00  0.00    +0.276 C 
ENDBRANCH  27  34
ENDBRANCH  25  27
ENDBRANCH  22  25
ENDBRANCH  20  22
ENDBRANCH   1  21
TORSDOF 12
ENDMDL
MODEL 5
REMARK VINA RESULT:      -6.1      3.872      6.257
REMARK  Name = 
REMARK  18 active torsions:
REMARK  status: ('A' for Active; 'I' for Inactive)
REMARK    1  A    between atoms: C_1  and  O_2
REMARK    2  A    between atoms: O_2  and  C_3
REMARK    3  A    between atoms: C_3  and  C_5
REMARK    4  A    between atoms: C_3  and  C_27
REMARK    5  A    between atoms: C_6  and  C_7
REMARK    6  A    between atoms: C_10  and  C_12
REMARK    7  A    between atoms: C_15  and  C_17
REMARK    8  A    between atoms: C_17  and  C_19
REMARK    9  A    between atoms: C_17  and  C_20
REMARK   10  A    between atoms: C_21  and  C_22
REMARK   11  A    between atoms: C_23  and  C_24
REMARK   12  A    between atoms: C_24  and  C_25
REMARK   13  A    between atoms: C_24  and  C_26
REMARK   14  A    between atoms: C_27  and  C_29
REMARK   15  A    between atoms: C_27  and  C_30
REMARK   16  A    between atoms: C_30  and  O_31
REMARK   17  A    between atoms: O_31  and  C_32
REMARK   18  A    between atoms: C_33  and  C_34
REMARK                            x       y       z     vdW  Elec       q    Type
REMARK                         _______ _______ _______ _____ _____    ______ ____
ROOT
ATOM      1  C   UNL     1       5.487  -5.658  23.339  0.00  0.00    +0.072 A 
ATOM      2  N   UNL     1       6.081  -4.463  23.686  0.00  0.00    -0.238 NA
ATOM      3  C   UNL     1       7.156  -4.279  22.940  0.00  0.00    +0.128 A 
ATOM      4  S   UNL     1       7.518  -5.550  21.836  0.00  0.00    -0.074 S 
ATOM      5  C   UNL     1       6.116  -6.385  22.354  0.00  0.00    +0.075 A 
ENDROOT
BRANCH   3   6
ATOM      6  C   UNL     1       8.000  -3.038  23.035  0.00  0.00    +0.103 A 
ATOM      7  N   UNL     1       7.730  -1.887  22.309  0.00  0.00    -0.241 NA
ATOM      8  C   UNL     1       8.619  -0.955  22.595  0.00  0.00    +0.086 A 
ATOM      9  S   UNL     1       9.812  -1.409  23.752  0.00  0.00    -0.079 S 
ATOM     10  C   UNL     1       9.099  -2.961  23.865  0.00  0.00    +0.077 A 
BRANCH   8  11
ATOM     11  C   UNL     1       8.650   0.426  21.974  0.00  0.00    +0.064 C 
ATOM     12  C   UNL     1       7.439   1.237  22.451  0.00  0.00    +0.019 C 
BRANCH  11  13
ATOM     13  C   UNL     1       9.921   1.197  22.267  0.00  0.00    -0.017 C 
ATOM     14  C   UNL     1       9.945   2.446  22.757  0.00  0.00    -0.004 C 
BRANCH  14  15
ATOM     15  C   UNL     1      11.173   3.151  23.044  0.00  0.00    -0.004 C 
ATOM     16  C   UNL     1      11.204   4.439  23.415  0.00  0.00    -0.024 C 
BRANCH  16  17
ATOM     17  C   UNL     1      12.476   5.189  23.727  0.00  0.00    +0.005 C 
ATOM     18  C   UNL     1      12.165   6.440  24.546  0.00  0.00    +0.011 C 
ATOM     19  C   UNL     1      13.206   5.556  22.433  0.00  0.00    +0.011 C 
ENDBRANCH  16  17
ENDBRANCH  14  15
ENDBRANCH  11  13
ENDBRANCH   8  11
ENDBRANCH   3   6
BRANCH   1  21
ATOM     20  C   UNL     1       4.205  -6.972  24.975  0.00  0.00    +0.007 C 
ATOM     21  C   UNL     1       4.285  -6.077  23.976  0.00  0.00    +0.026 C 
BRANCH  20  22
ATOM     22  C   UNL     1       2.931  -7.452  25.629  0.00  0.00    +0.151 C 
BRANCH  22  24
ATOM     23  C   UNL     1       1.541  -8.633  24.035  0.00  0.00    +0.194 C 
ATOM     24  O   UNL     1       1.861  -7.397  24.658  0.00  0.00    -0.375 OA
ENDBRANCH  22  24
BRANCH  22  25
ATOM     25  C   UNL     1       2.461  -6.638  26.884  0.00  0.00    +0.084 C 
ATOM     26  C   UNL     1       1.198  -7.251  27.509  0.00  0.00    +0.018 C 
BRANCH  25  27
ATOM     27  C   UNL     1       3.476  -6.309  27.991  0.00  0.00    +0.108 C 
ATOM     28  C   UNL     1       4.109  -5.128  28.131  0.00  0.00    +0.108 C 
BRANCH  28  29
ATOM     29  C   UNL     1       4.009  -3.905  27.295  0.00  0.00    +0.238 C 
ATOM     30  O   UNL     1       3.082  -3.111  27.301  0.00  0.00    -0.271 OA
ATOM     31  N   UNL     1       5.088  -3.703  26.488  0.00  0.00    -0.326 N 
ATOM     32  H   UNL     1       5.100  -2.854  25.938  0.00  0.00    +0.145 HD
ATOM     33  H   UNL     1       5.898  -4.305  26.461  0.00  0.00    +0.145 HD
ENDBRANCH  28  29
BRANCH  27  34
ATOM     34  O   UNL     1       3.616  -7.156  29.092  0.00  0.00    -0.499 OA
ATOM     35  C   UNL     1       3.992  -6.631  30.353  0.00  0.00    +0.276 C 
ENDBRANCH  27  34
ENDBRANCH  25  27
ENDBRANCH  22  25
ENDBRANCH  20  22
ENDBRANCH   1  21
TORSDOF 12
ENDMDL
MODEL 6
REMARK VINA RESULT:      -6.1      4.253      6.417
REMARK  Name = 
REMARK  18 active torsions:
REMARK  status: ('A' for Active; 'I' for Inactive)
REMARK    1  A    between atoms: C_1  and  O_2
REMARK    2  A    between atoms: O_2  and  C_3
REMARK    3  A    between atoms: C_3  and  C_5
REMARK    4  A    between atoms: C_3  and  C_27
REMARK    5  A    between atoms: C_6  and  C_7
REMARK    6  A    between atoms: C_10  and  C_12
REMARK    7  A    between atoms: C_15  and  C_17
REMARK    8  A    between atoms: C_17  and  C_19
REMARK    9  A    between atoms: C_17  and  C_20
REMARK   10  A    between atoms: C_21  and  C_22
REMARK   11  A    between atoms: C_23  and  C_24
REMARK   12  A    between atoms: C_24  and  C_25
REMARK   13  A    between atoms: C_24  and  C_26
REMARK   14  A    between atoms: C_27  and  C_29
REMARK   15  A    between atoms: C_27  and  C_30
REMARK   16  A    between atoms: C_30  and  O_31
REMARK   17  A    between atoms: O_31  and  C_32
REMARK   18  A    between atoms: C_33  and  C_34
REMARK                            x       y       z     vdW  Elec       q    Type
REMARK                         _______ _______ _______ _____ _____    ______ ____
ROOT
ATOM      1  C   UNL     1       5.417  -4.368  26.958  0.00  0.00    +0.072 A 
ATOM      2  N   UNL     1       5.366  -2.992  26.887  0.00  0.00    -0.238 NA
ATOM      3  C   UNL     1       4.716  -2.525  27.939  0.00  0.00    +0.128 A 
ATOM      4  S   UNL     1       4.103  -3.719  29.019  0.00  0.00    -0.074 S 
ATOM      5  C   UNL     1       4.793  -4.943  28.041  0.00  0.00    +0.075 A 
ENDROOT
BRANCH   3   6
ATOM      6  C   UNL     1       4.536  -1.054  28.187  0.00  0.00    +0.103 A 
ATOM      7  N   UNL     1       5.523  -0.118  27.912  0.00  0.00    -0.241 NA
ATOM      8  C   UNL     1       5.092   1.093  28.212  0.00  0.00    +0.086 A 
ATOM      9  S   UNL     1       3.486   1.168  28.829  0.00  0.00    -0.079 S 
ATOM     10  C   UNL     1       3.365  -0.534  28.698  0.00  0.00    +0.077 A 
BRANCH   8  11
ATOM     11  C   UNL     1       5.909   2.359  28.063  0.00  0.00    +0.064 C 
ATOM     12  C   UNL     1       6.495   2.761  29.422  0.00  0.00    +0.019 C 
BRANCH  11  13
ATOM     13  C   UNL     1       7.026   2.247  27.045  0.00  0.00    -0.017 C 
ATOM     14  C   UNL     1       7.183   3.084  26.008  0.00  0.00    -0.004 C 
BRANCH  14  15
ATOM     15  C   UNL     1       8.268   2.964  25.062  0.00  0.00    -0.004 C 
ATOM     16  C   UNL     1       8.886   1.802  24.805  0.00  0.00    -0.024 C 
BRANCH  16  17
ATOM     17  C   UNL     1      10.016   1.657  23.815  0.00  0.00    +0.005 C 
ATOM     18  C   UNL     1      11.117   0.771  24.394  0.00  0.00    +0.011 C 
ATOM     19  C   UNL     1      10.571   3.033  23.438  0.00  0.00    +0.011 C 
ENDBRANCH  16  17
ENDBRANCH  14  15
ENDBRANCH  11  13
ENDBRANCH   8  11
ENDBRANCH   3   6
BRANCH   1  21
ATOM     20  C   UNL     1       7.110  -4.667  25.201  0.00  0.00    +0.007 C 
ATOM     21  C   UNL     1       6.095  -5.117  25.956  0.00  0.00    +0.026 C 
BRANCH  20  22
ATOM     22  C   UNL     1       7.808  -5.442  24.108  0.00  0.00    +0.151 C 
BRANCH  22  24
ATOM     23  C   UNL     1       9.606  -4.935  25.651  0.00  0.00    +0.194 C 
ATOM     24  O   UNL     1       9.224  -5.479  24.395  0.00  0.00    -0.375 OA
ENDBRANCH  22  24
BRANCH  22  25
ATOM     25  C   UNL     1       7.644  -4.872  22.656  0.00  0.00    +0.084 C 
ATOM     26  C   UNL     1       7.052  -5.923  21.704  0.00  0.00    +0.018 C 
BRANCH  25  27
ATOM     27  C   UNL     1       6.923  -3.529  22.453  0.00  0.00    +0.108 C 
ATOM     28  C   UNL     1       7.530  -2.328  22.402  0.00  0.00    +0.108 C 
BRANCH  28  29
ATOM     29  C   UNL     1       8.972  -1.999  22.532  0.00  0.00    +0.238 C 
ATOM     30  O   UNL     1       9.668  -2.215  23.512  0.00  0.00    -0.271 OA
ATOM     31  N   UNL     1       9.505  -1.425  21.417  0.00  0.00    -0.326 N 
ATOM     32  H   UNL     1      10.499  -1.231  21.428  0.00  0.00    +0.145 HD
ATOM     33  H   UNL     1       8.992  -1.250  20.566  0.00  0.00    +0.145 HD
ENDBRANCH  28  29
BRANCH  27  34
ATOM     34  O   UNL     1       5.586  -3.501  22.048  0.00  0.00    -0.499 OA
ATOM     35  C   UNL     1       4.552  -3.736  22.986  0.00  0.00    +0.276 C 
ENDBRANCH  27  34
ENDBRANCH  25  27
ENDBRANCH  22  25
ENDBRANCH  20  22
ENDBRANCH   1  21
TORSDOF 12
ENDMDL
MODEL 7
REMARK VINA RESULT:      -6.1      3.124      5.359
REMARK  Name = 
REMARK  18 active torsions:
REMARK  status: ('A' for Active; 'I' for Inactive)
REMARK    1  A    between atoms: C_1  and  O_2
REMARK    2  A    between atoms: O_2  and  C_3
REMARK    3  A    between atoms: C_3  and  C_5
REMARK    4  A    between atoms: C_3  and  C_27
REMARK    5  A    between atoms: C_6  and  C_7
REMARK    6  A    between atoms: C_10  and  C_12
REMARK    7  A    between atoms: C_15  and  C_17
REMARK    8  A    between atoms: C_17  and  C_19
REMARK    9  A    between atoms: C_17  and  C_20
REMARK   10  A    between atoms: C_21  and  C_22
REMARK   11  A    between atoms: C_23  and  C_24
REMARK   12  A    between atoms: C_24  and  C_25
REMARK   13  A    between atoms: C_24  and  C_26
REMARK   14  A    between atoms: C_27  and  C_29
REMARK   15  A    between atoms: C_27  and  C_30
REMARK   16  A    between atoms: C_30  and  O_31
REMARK   17  A    between atoms: O_31  and  C_32
REMARK   18  A    between atoms: C_33  and  C_34
REMARK                            x       y       z     vdW  Elec       q    Type
REMARK                         _______ _______ _______ _____ _____    ______ ____
ROOT
ATOM      1  C   UNL     1       5.877  -5.502  23.719  0.00  0.00    +0.072 A 
ATOM      2  N   UNL     1       6.653  -4.417  24.068  0.00  0.00    -0.238 NA
ATOM      3  C   UNL     1       7.157  -3.873  22.975  0.00  0.00    +0.128 A 
ATOM      4  S   UNL     1       6.760  -4.670  21.500  0.00  0.00    -0.074 S 
ATOM      5  C   UNL     1       5.809  -5.793  22.376  0.00  0.00    +0.075 A 
ENDROOT
BRANCH   3   6
ATOM      6  C   UNL     1       8.008  -2.633  23.009  0.00  0.00    +0.103 A 
ATOM      7  N   UNL     1       8.071  -1.796  24.114  0.00  0.00    -0.241 NA
ATOM      8  C   UNL     1       8.900  -0.797  23.875  0.00  0.00    +0.086 A 
ATOM      9  S   UNL     1       9.646  -0.819  22.323  0.00  0.00    -0.079 S 
ATOM     10  C   UNL     1       8.792  -2.252  21.941  0.00  0.00    +0.077 A 
BRANCH   8  11
ATOM     11  C   UNL     1       9.201   0.324  24.847  0.00  0.00    +0.064 C 
ATOM     12  C   UNL     1      10.718   0.500  24.983  0.00  0.00    +0.019 C 
BRANCH  11  13
ATOM     13  C   UNL     1       8.571   1.648  24.463  0.00  0.00    -0.017 C 
ATOM     14  C   UNL     1       9.270   2.766  24.212  0.00  0.00    -0.004 C 
BRANCH  14  15
ATOM     15  C   UNL     1       8.644   4.011  23.829  0.00  0.00    -0.004 C 
ATOM     16  C   UNL     1       7.820   4.119  22.777  0.00  0.00    -0.024 C 
BRANCH  16  17
ATOM     17  C   UNL     1       7.151   5.408  22.368  0.00  0.00    +0.005 C 
ATOM     18  C   UNL     1       8.053   6.598  22.692  0.00  0.00    +0.011 C 
ATOM     19  C   UNL     1       5.798   5.550  23.068  0.00  0.00    +0.011 C 
ENDBRANCH  16  17
ENDBRANCH  14  15
ENDBRANCH  11  13
ENDBRANCH   8  11
ENDBRANCH   3   6
BRANCH   1  21
ATOM     20  C   UNL     1       3.993  -6.837  24.564  0.00  0.00    +0.007 C 
ATOM     21  C   UNL     1       5.190  -6.248  24.718  0.00  0.00    +0.026 C 
BRANCH  20  22
ATOM     22  C   UNL     1       3.240  -7.596  25.631  0.00  0.00    +0.151 C 
BRANCH  22  24
ATOM     23  C   UNL     1       1.877  -8.291  23.753  0.00  0.00    +0.194 C 
ATOM     24  O   UNL     1       2.462  -8.638  25.000  0.00  0.00    -0.375 OA
ENDBRANCH  22  24
BRANCH  22  25
ATOM     25  C   UNL     1       2.253  -6.745  26.505  0.00  0.00    +0.084 C 
ATOM     26  C   UNL     1       1.390  -7.640  27.408  0.00  0.00    +0.018 C 
BRANCH  25  27
ATOM     27  C   UNL     1       2.800  -5.563  27.322  0.00  0.00    +0.108 C 
ATOM     28  C   UNL     1       3.633  -5.674  28.376  0.00  0.00    +0.108 C 
BRANCH  28  29
ATOM     29  C   UNL     1       4.202  -6.897  28.997  0.00  0.00    +0.238 C 
ATOM     30  O   UNL     1       3.744  -7.485  29.964  0.00  0.00    -0.271 OA
ATOM     31  N   UNL     1       5.322  -7.358  28.373  0.00  0.00    -0.326 N 
ATOM     32  H   UNL     1       5.721  -8.221  28.719  0.00  0.00    +0.145 HD
ATOM     33  H   UNL     1       5.730  -6.935  27.552  0.00  0.00    +0.145 HD
ENDBRANCH  28  29
BRANCH  27  34
ATOM     34  O   UNL     1       2.659  -4.256  26.851  0.00  0.00    -0.499 OA
ATOM     35  C   UNL     1       3.798  -3.428  26.693  0.00  0.00    +0.276 C 
ENDBRANCH  27  34
ENDBRANCH  25  27
ENDBRANCH  22  25
ENDBRANCH  20  22
ENDBRANCH   1  21
TORSDOF 12
ENDMDL
MODEL 8
REMARK VINA RESULT:      -6.0      4.220     10.126
REMARK  Name = 
REMARK  18 active torsions:
REMARK  status: ('A' for Active; 'I' for Inactive)
REMARK    1  A    between atoms: C_1  and  O_2
REMARK    2  A    between atoms: O_2  and  C_3
REMARK    3  A    between atoms: C_3  and  C_5
REMARK    4  A    between atoms: C_3  and  C_27
REMARK    5  A    between atoms: C_6  and  C_7
REMARK    6  A    between atoms: C_10  and  C_12
REMARK    7  A    between atoms: C_15  and  C_17
REMARK    8  A    between atoms: C_17  and  C_19
REMARK    9  A    between atoms: C_17  and  C_20
REMARK   10  A    between atoms: C_21  and  C_22
REMARK   11  A    between atoms: C_23  and  C_24
REMARK   12  A    between atoms: C_24  and  C_25
REMARK   13  A    between atoms: C_24  and  C_26
REMARK   14  A    between atoms: C_27  and  C_29
REMARK   15  A    between atoms: C_27  and  C_30
REMARK   16  A    between atoms: C_30  and  O_31
REMARK   17  A    between atoms: O_31  and  C_32
REMARK   18  A    between atoms: C_33  and  C_34
REMARK                            x       y       z     vdW  Elec       q    Type
REMARK                         _______ _______ _______ _____ _____    ______ ____
ROOT
ATOM      1  C   UNL     1       9.010   1.511  23.604  0.00  0.00    +0.072 A 
ATOM      2  N   UNL     1       8.516   0.284  23.991  0.00  0.00    -0.238 NA
ATOM      3  C   UNL     1       8.706  -0.589  23.017  0.00  0.00    +0.128 A 
ATOM      4  S   UNL     1       9.436   0.041  21.590  0.00  0.00    -0.074 S 
ATOM      5  C   UNL     1       9.551   1.576  22.340  0.00  0.00    +0.075 A 
ENDROOT
BRANCH   3   6
ATOM      6  C   UNL     1       8.327  -2.038  23.148  0.00  0.00    +0.103 A 
ATOM      7  N   UNL     1       8.753  -2.835  24.201  0.00  0.00    -0.241 NA
ATOM      8  C   UNL     1       8.262  -4.053  24.071  0.00  0.00    +0.086 A 
ATOM      9  S   UNL     1       7.263  -4.298  22.690  0.00  0.00    -0.079 S 
ATOM     10  C   UNL     1       7.516  -2.670  22.228  0.00  0.00    +0.077 A 
BRANCH   8  11
ATOM     11  C   UNL     1       8.535  -5.198  25.025  0.00  0.00    +0.064 C 
ATOM     12  C   UNL     1       9.987  -5.133  25.512  0.00  0.00    +0.019 C 
BRANCH  11  13
ATOM     13  C   UNL     1       7.602  -5.231  26.219  0.00  0.00    -0.017 C 
ATOM     14  C   UNL     1       6.309  -5.583  26.152  0.00  0.00    -0.004 C 
BRANCH  14  15
ATOM     15  C   UNL     1       5.447  -5.623  27.310  0.00  0.00    -0.004 C 
ATOM     16  C   UNL     1       5.822  -6.164  28.479  0.00  0.00    -0.024 C 
BRANCH  16  17
ATOM     17  C   UNL     1       4.938  -6.208  29.701  0.00  0.00    +0.005 C 
ATOM     18  C   UNL     1       3.706  -7.070  29.433  0.00  0.00    +0.011 C 
ATOM     19  C   UNL     1       4.527  -4.791  30.109  0.00  0.00    +0.011 C 
ENDBRANCH  16  17
ENDBRANCH  14  15
ENDBRANCH  11  13
ENDBRANCH   8  11
ENDBRANCH   3   6
BRANCH   1  21
ATOM     20  C   UNL     1       7.846   3.100  25.074  0.00  0.00    +0.007 C 
ATOM     21  C   UNL     1       8.958   2.622  24.491  0.00  0.00    +0.026 C 
BRANCH  20  22
ATOM     22  C   UNL     1       7.776   4.303  25.985  0.00  0.00    +0.151 C 
BRANCH  22  24
ATOM     23  C   UNL     1       6.864   3.465  28.067  0.00  0.00    +0.194 C 
ATOM     24  O   UNL     1       6.628   4.164  26.853  0.00  0.00    -0.375 OA
ENDBRANCH  22  24
BRANCH  22  25
ATOM     25  C   UNL     1       7.651   5.694  25.270  0.00  0.00    +0.084 C 
ATOM     26  C   UNL     1       7.319   6.811  26.271  0.00  0.00    +0.018 C 
BRANCH  25  27
ATOM     27  C   UNL     1       8.776   6.160  24.332  0.00  0.00    +0.108 C 
ATOM     28  C   UNL     1       8.696   6.187  22.987  0.00  0.00    +0.108 C 
BRANCH  28  29
ATOM     29  C   UNL     1       7.571   5.785  22.105  0.00  0.00    +0.238 C 
ATOM     30  O   UNL     1       7.119   4.657  21.995  0.00  0.00    -0.271 OA
ATOM     31  N   UNL     1       7.032   6.820  21.401  0.00  0.00    -0.326 N 
ATOM     32  H   UNL     1       6.225   6.615  20.826  0.00  0.00    +0.145 HD
ATOM     33  H   UNL     1       7.340   7.778  21.472  0.00  0.00    +0.145 HD
ENDBRANCH  28  29
BRANCH  27  34
ATOM     34  O   UNL     1       9.885   6.838  24.843  0.00  0.00    -0.499 OA
ATOM     35  C   UNL     1      11.194   6.454  24.462  0.00  0.00    +0.276 C 
ENDBRANCH  27  34
ENDBRANCH  25  27
ENDBRANCH  22  25
ENDBRANCH  20  22
ENDBRANCH   1  21
TORSDOF 12
ENDMDL
MODEL 9
REMARK VINA RESULT:      -6.0      3.443      6.485
REMARK  Name = 
REMARK  18 active torsions:
REMARK  status: ('A' for Active; 'I' for Inactive)
REMARK    1  A    between atoms: C_1  and  O_2
REMARK    2  A    between atoms: O_2  and  C_3
REMARK    3  A    between atoms: C_3  and  C_5
REMARK    4  A    between atoms: C_3  and  C_27
REMARK    5  A    between atoms: C_6  and  C_7
REMARK    6  A    between atoms: C_10  and  C_12
REMARK    7  A    between atoms: C_15  and  C_17
REMARK    8  A    between atoms: C_17  and  C_19
REMARK    9  A    between atoms: C_17  and  C_20
REMARK   10  A    between atoms: C_21  and  C_22
REMARK   11  A    between atoms: C_23  and  C_24
REMARK   12  A    between atoms: C_24  and  C_25
REMARK   13  A    between atoms: C_24  and  C_26
REMARK   14  A    between atoms: C_27  and  C_29
REMARK   15  A    between atoms: C_27  and  C_30
REMARK   16  A    between atoms: C_30  and  O_31
REMARK   17  A    between atoms: O_31  and  C_32
REMARK   18  A    between atoms: C_33  and  C_34
REMARK                            x       y       z     vdW  Elec       q    Type
REMARK                         _______ _______ _______ _____ _____    ______ ____
ROOT
ATOM      1  C   UNL     1       6.291  -4.299  25.495  0.00  0.00    +0.072 A 
ATOM      2  N   UNL     1       6.769  -3.053  25.150  0.00  0.00    -0.238 NA
ATOM      3  C   UNL     1       7.735  -3.188  24.258  0.00  0.00    +0.128 A 
ATOM      4  S   UNL     1       8.135  -4.811  23.841  0.00  0.00    -0.074 S 
ATOM      5  C   UNL     1       6.901  -5.373  24.887  0.00  0.00    +0.075 A 
ENDROOT
BRANCH   3   6
ATOM      6  C   UNL     1       8.429  -2.008  23.636  0.00  0.00    +0.103 A 
ATOM      7  N   UNL     1       7.744  -0.913  23.130  0.00  0.00    -0.241 NA
ATOM      8  C   UNL     1       8.599  -0.025  22.659  0.00  0.00    +0.086 A 
ATOM      9  S   UNL     1      10.260  -0.456  22.808  0.00  0.00    -0.079 S 
ATOM     10  C   UNL     1       9.803  -1.935  23.538  0.00  0.00    +0.077 A 
BRANCH   8  11
ATOM     11  C   UNL     1       8.209   1.286  22.010  0.00  0.00    +0.064 C 
ATOM     12  C   UNL     1       6.833   1.729  22.521  0.00  0.00    +0.019 C 
BRANCH  11  13
ATOM     13  C   UNL     1       9.213   2.399  22.234  0.00  0.00    -0.017 C 
ATOM     14  C   UNL     1       9.369   3.046  23.400  0.00  0.00    -0.004 C 
BRANCH  14  15
ATOM     15  C   UNL     1      10.348   4.091  23.592  0.00  0.00    -0.004 C 
ATOM     16  C   UNL     1      11.639   3.948  23.261  0.00  0.00    -0.024 C 
BRANCH  16  17
ATOM     17  C   UNL     1      12.674   5.031  23.447  0.00  0.00    +0.005 C 
ATOM     18  C   UNL     1      12.093   6.182  24.266  0.00  0.00    +0.011 C 
ATOM     19  C   UNL     1      13.168   5.531  22.087  0.00  0.00    +0.011 C 
ENDBRANCH  16  17
ENDBRANCH  14  15
ENDBRANCH  11  13
ENDBRANCH   8  11
ENDBRANCH   3   6
BRANCH   1  21
ATOM     20  C   UNL     1       4.991  -5.495  27.205  0.00  0.00    +0.007 C 
ATOM     21  C   UNL     1       5.218  -4.428  26.421  0.00  0.00    +0.026 C 
BRANCH  20  22
ATOM     22  C   UNL     1       3.832  -5.656  28.160  0.00  0.00    +0.151 C 
BRANCH  22  24
ATOM     23  C   UNL     1       5.222  -5.566  30.142  0.00  0.00    +0.194 C 
ATOM     24  O   UNL     1       4.304  -6.314  29.358  0.00  0.00    -0.375 OA
ENDBRANCH  22  24
BRANCH  22  25
ATOM     25  C   UNL     1       2.616  -6.488  27.622  0.00  0.00    +0.084 C 
ATOM     26  C   UNL     1       1.627  -6.827  28.749  0.00  0.00    +0.018 C 
BRANCH  25  27
ATOM     27  C   UNL     1       1.843  -5.982  26.394  0.00  0.00    +0.108 C 
ATOM     28  C   UNL     1       1.989  -6.458  25.142  0.00  0.00    +0.108 C 
BRANCH  28  29
ATOM     29  C   UNL     1       2.889  -7.529  24.643  0.00  0.00    +0.238 C 
ATOM     30  O   UNL     1       2.755  -8.725  24.846  0.00  0.00    -0.271 OA
ATOM     31  N   UNL     1       3.923  -7.066  23.886  0.00  0.00    -0.326 N 
ATOM     32  H   UNL     1       4.536  -7.756  23.472  0.00  0.00    +0.145 HD
ATOM     33  H   UNL     1       4.069  -6.094  23.657  0.00  0.00    +0.145 HD
ENDBRANCH  28  29
BRANCH  27  34
ATOM     34  O   UNL     1       0.736  -5.146  26.552  0.00  0.00    -0.499 OA
ATOM     35  C   UNL     1       0.673  -3.907  25.870  0.00  0.00    +0.276 C 
ENDBRANCH  27  34
ENDBRANCH  25  27
ENDBRANCH  22  25
ENDBRANCH  20  22
ENDBRANCH   1  21
TORSDOF 12
ENDMDL
