MODEL 1
REMARK VINA RESULT:      -6.1      0.000      0.000
REMARK  Name = 
REMARK  4 active torsions:
REMARK  status: ('A' for Active; 'I' for Inactive)
REMARK    1  A    between atoms: O_1  and  C_2
REMARK    2  A    between atoms: C_2  and  CA_4
REMARK    3  A    between atoms: CA_4  and  CB_6
REMARK    4  A    between atoms: CB_6  and  CG_7
REMARK                            x       y       z     vdW  Elec       q    Type
REMARK                         _______ _______ _______ _____ _____    ______ ____
ROOT
ATOM      1  CG  TRP A   1       8.882  -2.688  24.245  0.00  0.00    -0.016 A 
ATOM      2  CD2 TRP A   1       9.418  -1.452  23.759  0.00  0.00    +0.003 A 
ATOM      3  CE2 TRP A   1       8.993  -1.299  22.439  0.00  0.00    +0.047 A 
ATOM      4  CZ2 TRP A   1       9.281  -0.159  21.676  0.00  0.00    +0.026 A 
ATOM      5  CH2 TRP A   1      10.039   0.849  22.280  0.00  0.00    +0.002 A 
ATOM      6  CZ3 TRP A   1      10.501   0.715  23.586  0.00  0.00    +0.001 A 
ATOM      7  NE1 TRP A   1       8.277  -2.426  22.113  0.00  0.00    -0.360 N 
ATOM      8  HE1 TRP A   1       7.839  -2.585  21.215  0.00  0.00    +0.165 HD
ATOM      9  CE3 TRP A   1      10.198  -0.428  24.336  0.00  0.00    +0.010 A 
ATOM     10  CD1 TRP A   1       8.201  -3.268  23.191  0.00  0.00    +0.087 A 
ENDROOT
BRANCH   1  11
ATOM     11  CB  TRP A   1       8.961  -3.200  25.647  0.00  0.00    +0.099 C 
BRANCH  11  12
ATOM     12  CA  TRP A   1       9.030  -4.700  25.725  0.00  0.00    +0.121 C 
ATOM     13  N   TRP A   1      10.093  -5.372  25.390  0.00  0.00    -0.297 NA
ATOM     14  H   TRP A   1       9.999  -6.371  25.609  0.00  0.00    +0.187 HD
BRANCH  12  15
ATOM     15  C   TRP A   1       7.782  -5.416  26.235  0.00  0.00    +0.351 C 
ATOM     16  OXT TRP A   1       6.767  -5.515  25.581  0.00  0.00    -0.244 OA
BRANCH  15  17
ATOM     17  O   TRP A   1       7.946  -5.852  27.497  0.00  0.00    -0.476 OA
ATOM     18  H   TRP A   1       7.444  -6.673  27.673  0.00  0.00    +0.295 HD
ENDBRANCH  15  17
ENDBRANCH  12  15
ENDBRANCH  11  12
ENDBRANCH   1  11
TORSDOF 4
ENDMDL
MODEL 2
REMARK VINA RESULT:      -5.9      1.836      2.162
REMARK  Name = 
REMARK  4 active torsions:
REMARK  status: ('A' for Active; 'I' for Inactive)
REMARK    1  A    between atoms: O_1  and  C_2
REMARK    2  A    between atoms: C_2  and  CA_4
REMARK    3  A    between atoms: CA_4  and  CB_6
REMARK    4  A    between atoms: CB_6  and  CG_7
REMARK                            x       y       z     vdW  Elec       q    Type
REMARK                         _______ _______ _______ _____ _____    ______ ____
ROOT
ATOM      1  CG  TRP A   1       9.810  -1.713  23.077  0.00  0.00    -0.016 A 
ATOM      2  CD2 TRP A   1      10.128  -0.327  23.248  0.00  0.00    +0.003 A 
ATOM      3  CE2 TRP A   1       9.792   0.331  22.065  0.00  0.00    +0.047 A 
ATOM      4  CZ2 TRP A   1       9.909   1.719  21.909  0.00  0.00    +0.026 A 
ATOM      5  CH2 TRP A   1      10.398   2.453  22.994  0.00  0.00    +0.002 A 
ATOM      6  CZ3 TRP A   1      10.767   1.823  24.179  0.00  0.00    +0.001 A 
ATOM      7  NE1 TRP A   1       9.344  -0.625  21.185  0.00  0.00    -0.360 N 
ATOM      8  HE1 TRP A   1       9.023  -0.432  20.245  0.00  0.00    +0.165 HD
ATOM      9  CE3 TRP A   1      10.637   0.436  24.320  0.00  0.00    +0.010 A 
ATOM     10  CD1 TRP A   1       9.349  -1.858  21.782  0.00  0.00    +0.087 A 
ENDROOT
BRANCH   1  11
ATOM     11  CB  TRP A   1       9.874  -2.775  24.127  0.00  0.00    +0.099 C 
BRANCH  11  12
ATOM     12  CA  TRP A   1       8.537  -3.396  24.422  0.00  0.00    +0.121 C 
ATOM     13  N   TRP A   1       7.529  -2.709  24.878  0.00  0.00    -0.297 NA
ATOM     14  H   TRP A   1       6.670  -3.269  24.918  0.00  0.00    +0.187 HD
BRANCH  12  15
ATOM     15  C   TRP A   1       8.401  -4.891  24.146  0.00  0.00    +0.351 C 
ATOM     16  OXT TRP A   1       7.399  -5.385  23.677  0.00  0.00    -0.244 OA
BRANCH  15  17
ATOM     17  O   TRP A   1       9.495  -5.565  24.544  0.00  0.00    -0.476 OA
ATOM     18  H   TRP A   1       9.625  -6.391  24.034  0.00  0.00    +0.295 HD
ENDBRANCH  15  17
ENDBRANCH  12  15
ENDBRANCH  11  12
ENDBRANCH   1  11
TORSDOF 4
ENDMDL
MODEL 3
REMARK VINA RESULT:      -5.8      1.999      2.651
REMARK  Name = 
REMARK  4 active torsions:
REMARK  status: ('A' for Active; 'I' for Inactive)
REMARK    1  A    between atoms: O_1  and  C_2
REMARK    2  A    between atoms: C_2  and  CA_4
REMARK    3  A    between atoms: CA_4  and  CB_6
REMARK    4  A    between atoms: CB_6  and  CG_7
REMARK                            x       y       z     vdW  Elec       q    Type
REMARK                         _______ _______ _______ _____ _____    ______ ____
ROOT
ATOM      1  CG  TRP A   1       9.464  -1.441  24.526  0.00  0.00    -0.016 A 
ATOM      2  CD2 TRP A   1       9.580  -0.237  23.761  0.00  0.00    +0.003 A 
ATOM      3  CE2 TRP A   1       9.345   0.835  24.622  0.00  0.00    +0.047 A 
ATOM      4  CZ2 TRP A   1       9.447   2.172  24.215  0.00  0.00    +0.026 A 
ATOM      5  CH2 TRP A   1       9.787   2.419  22.881  0.00  0.00    +0.002 A 
ATOM      6  CZ3 TRP A   1      10.002   1.371  21.990  0.00  0.00    +0.001 A 
ATOM      7  NE1 TRP A   1       9.037   0.303  25.852  0.00  0.00    -0.360 N 
ATOM      8  HE1 TRP A   1       8.828   0.852  26.675  0.00  0.00    +0.165 HD
ATOM      9  CE3 TRP A   1       9.903   0.041  22.415  0.00  0.00    +0.010 A 
ATOM     10  CD1 TRP A   1       9.107  -1.065  25.807  0.00  0.00    +0.087 A 
ENDROOT
BRANCH   1  11
ATOM     11  CB  TRP A   1       9.767  -2.826  24.054  0.00  0.00    +0.099 C 
BRANCH  11  12
ATOM     12  CA  TRP A   1       8.822  -3.858  24.605  0.00  0.00    +0.121 C 
ATOM     13  N   TRP A   1       7.615  -4.023  24.143  0.00  0.00    -0.297 NA
ATOM     14  H   TRP A   1       7.153  -4.838  24.562  0.00  0.00    +0.187 HD
BRANCH  12  15
ATOM     15  C   TRP A   1       9.348  -4.731  25.741  0.00  0.00    +0.351 C 
ATOM     16  OXT TRP A   1       9.041  -4.557  26.901  0.00  0.00    -0.244 OA
BRANCH  15  17
ATOM     17  O   TRP A   1      10.221  -5.650  25.292  0.00  0.00    -0.476 OA
ATOM     18  H   TRP A   1      10.772  -6.019  26.011  0.00  0.00    +0.295 HD
ENDBRANCH  15  17
ENDBRANCH  12  15
ENDBRANCH  11  12
ENDBRANCH   1  11
TORSDOF 4
ENDMDL
MODEL 4
REMARK VINA RESULT:      -5.7      3.282      4.968
REMARK  Name = 
REMARK  4 active torsions:
REMARK  status: ('A' for Active; 'I' for Inactive)
REMARK    1  A    between atoms: O_1  and  C_2
REMARK    2  A    between atoms: C_2  and  CA_4
REMARK    3  A    between atoms: CA_4  and  CB_6
REMARK    4  A    between atoms: CB_6  and  CG_7
REMARK                            x       y       z     vdW  Elec       q    Type
REMARK                         _______ _______ _______ _____ _____    ______ ____
ROOT
ATOM      1  CG  TRP A   1       7.203  -4.969  23.399  0.00  0.00    -0.016 A 
ATOM      2  CD2 TRP A   1       5.809  -4.805  23.681  0.00  0.00    +0.003 A 
ATOM      3  CE2 TRP A   1       5.110  -5.725  22.899  0.00  0.00    +0.047 A 
ATOM      4  CZ2 TRP A   1       3.720  -5.885  22.975  0.00  0.00    +0.026 A 
ATOM      5  CH2 TRP A   1       3.023  -5.067  23.871  0.00  0.00    +0.002 A 
ATOM      6  CZ3 TRP A   1       3.688  -4.122  24.646  0.00  0.00    +0.001 A 
ATOM      7  NE1 TRP A   1       6.036  -6.382  22.125  0.00  0.00    -0.360 N 
ATOM      8  HE1 TRP A   1       5.813  -7.114  21.464  0.00  0.00    +0.165 HD
ATOM      9  CE3 TRP A   1       5.078  -3.980  24.561  0.00  0.00    +0.010 A 
ATOM     10  CD1 TRP A   1       7.299  -5.938  22.418  0.00  0.00    +0.087 A 
ENDROOT
BRANCH   1  11
ATOM     11  CB  TRP A   1       8.336  -4.293  24.101  0.00  0.00    +0.099 C 
BRANCH  11  12
ATOM     12  CA  TRP A   1       8.859  -5.079  25.272  0.00  0.00    +0.121 C 
ATOM     13  N   TRP A   1       9.891  -5.867  25.184  0.00  0.00    -0.297 NA
ATOM     14  H   TRP A   1      10.171  -6.236  26.100  0.00  0.00    +0.187 HD
BRANCH  12  15
ATOM     15  C   TRP A   1       8.123  -4.901  26.597  0.00  0.00    +0.351 C 
ATOM     16  OXT TRP A   1       7.766  -3.819  27.012  0.00  0.00    -0.244 OA
BRANCH  15  17
ATOM     17  O   TRP A   1       7.987  -6.072  27.246  0.00  0.00    -0.476 OA
ATOM     18  H   TRP A   1       8.845  -6.528  27.368  0.00  0.00    +0.295 HD
ENDBRANCH  15  17
ENDBRANCH  12  15
ENDBRANCH  11  12
ENDBRANCH   1  11
TORSDOF 4
ENDMDL
MODEL 5
REMARK VINA RESULT:      -5.6      1.668      1.988
REMARK  Name = 
REMARK  4 active torsions:
REMARK  status: ('A' for Active; 'I' for Inactive)
REMARK    1  A    between atoms: O_1  and  C_2
REMARK    2  A    between atoms: C_2  and  CA_4
REMARK    3  A    between atoms: CA_4  and  CB_6
REMARK    4  A    between atoms: CB_6  and  CG_7
REMARK                            x       y       z     vdW  Elec       q    Type
REMARK                         _______ _______ _______ _____ _____    ______ ____
ROOT
ATOM      1  CG  TRP A   1       7.267  -2.766  23.183  0.00  0.00    -0.016 A 
ATOM      2  CD2 TRP A   1       7.993  -1.670  22.617  0.00  0.00    +0.003 A 
ATOM      3  CE2 TRP A   1       7.298  -0.500  22.924  0.00  0.00    +0.047 A 
ATOM      4  CZ2 TRP A   1       7.768   0.775  22.579  0.00  0.00    +0.026 A 
ATOM      5  CH2 TRP A   1       8.980   0.853  21.886  0.00  0.00    +0.002 A 
ATOM      6  CZ3 TRP A   1       9.684  -0.297  21.541  0.00  0.00    +0.001 A 
ATOM      7  NE1 TRP A   1       6.160  -0.873  23.598  0.00  0.00    -0.360 N 
ATOM      8  HE1 TRP A   1       5.468  -0.226  23.952  0.00  0.00    +0.165 HD
ATOM      9  CE3 TRP A   1       9.204  -1.562  21.900  0.00  0.00    +0.010 A 
ATOM     10  CD1 TRP A   1       6.131  -2.233  23.762  0.00  0.00    +0.087 A 
ENDROOT
BRANCH   1  11
ATOM     11  CB  TRP A   1       7.705  -4.194  23.224  0.00  0.00    +0.099 C 
BRANCH  11  12
ATOM     12  CA  TRP A   1       8.464  -4.544  24.474  0.00  0.00    +0.121 C 
ATOM     13  N   TRP A   1       9.723  -4.254  24.636  0.00  0.00    -0.297 NA
ATOM     14  H   TRP A   1      10.046  -4.469  25.586  0.00  0.00    +0.187 HD
BRANCH  12  15
ATOM     15  C   TRP A   1       7.679  -5.257  25.573  0.00  0.00    +0.351 C 
ATOM     16  OXT TRP A   1       6.468  -5.255  25.623  0.00  0.00    -0.244 OA
BRANCH  15  17
ATOM     17  O   TRP A   1       8.500  -5.816  26.479  0.00  0.00    -0.476 OA
ATOM     18  H   TRP A   1       9.444  -5.652  26.275  0.00  0.00    +0.295 HD
ENDBRANCH  15  17
ENDBRANCH  12  15
ENDBRANCH  11  12
ENDBRANCH   1  11
TORSDOF 4
ENDMDL
MODEL 6
REMARK VINA RESULT:      -5.5      3.802      5.951
REMARK  Name = 
REMARK  4 active torsions:
REMARK  status: ('A' for Active; 'I' for Inactive)
REMARK    1  A    between atoms: O_1  and  C_2
REMARK    2  A    between atoms: C_2  and  CA_4
REMARK    3  A    between atoms: CA_4  and  CB_6
REMARK    4  A    between atoms: CB_6  and  CG_7
REMARK                            x       y       z     vdW  Elec       q    Type
REMARK                         _______ _______ _______ _____ _____    ______ ____
ROOT
ATOM      1  CG  TRP A   1       8.384  -1.916  23.428  0.00  0.00    -0.016 A 
ATOM      2  CD2 TRP A   1       7.688  -3.060  22.919  0.00  0.00    +0.003 A 
ATOM      3  CE2 TRP A   1       8.174  -4.182  23.592  0.00  0.00    +0.047 A 
ATOM      4  CZ2 TRP A   1       7.661  -5.470  23.387  0.00  0.00    +0.026 A 
ATOM      5  CH2 TRP A   1       6.628  -5.615  22.456  0.00  0.00    +0.002 A 
ATOM      6  CZ3 TRP A   1       6.140  -4.520  21.749  0.00  0.00    +0.001 A 
ATOM      7  NE1 TRP A   1       9.170  -3.748  24.433  0.00  0.00    -0.360 N 
ATOM      8  HE1 TRP A   1       9.696  -4.349  25.053  0.00  0.00    +0.165 HD
ATOM      9  CE3 TRP A   1       6.659  -3.239  21.971  0.00  0.00    +0.010 A 
ATOM     10  CD1 TRP A   1       9.304  -2.387  24.346  0.00  0.00    +0.087 A 
ENDROOT
BRANCH   1  11
ATOM     11  CB  TRP A   1       8.099  -0.487  23.101  0.00  0.00    +0.099 C 
BRANCH  11  12
ATOM     12  CA  TRP A   1       8.920   0.032  21.953  0.00  0.00    +0.121 C 
ATOM     13  N   TRP A   1       9.693  -0.736  21.240  0.00  0.00    -0.297 NA
ATOM     14  H   TRP A   1      10.091  -0.237  20.436  0.00  0.00    +0.187 HD
BRANCH  12  15
ATOM     15  C   TRP A   1       8.798   1.521  21.642  0.00  0.00    +0.351 C 
ATOM     16  OXT TRP A   1       7.732   2.073  21.474  0.00  0.00    -0.244 OA
BRANCH  15  17
ATOM     17  O   TRP A   1      10.006   2.100  21.526  0.00  0.00    -0.476 OA
ATOM     18  H   TRP A   1      10.565   1.952  22.317  0.00  0.00    +0.295 HD
ENDBRANCH  15  17
ENDBRANCH  12  15
ENDBRANCH  11  12
ENDBRANCH   1  11
TORSDOF 4
ENDMDL
MODEL 7
REMARK VINA RESULT:      -5.5      3.726      5.794
REMARK  Name = 
REMARK  4 active torsions:
REMARK  status: ('A' for Active; 'I' for Inactive)
REMARK    1  A    between atoms: O_1  and  C_2
REMARK    2  A    between atoms: C_2  and  CA_4
REMARK    3  A    between atoms: CA_4  and  CB_6
REMARK    4  A    between atoms: CB_6  and  CG_7
REMARK                            x       y       z     vdW  Elec       q    Type
REMARK                         _______ _______ _______ _____ _____    ______ ____
ROOT
ATOM      1  CG  TRP A   1       9.777  -0.563  24.393  0.00  0.00    -0.016 A 
ATOM      2  CD2 TRP A   1       9.327  -1.879  24.732  0.00  0.00    +0.003 A 
ATOM      3  CE2 TRP A   1       8.472  -1.763  25.827  0.00  0.00    +0.047 A 
ATOM      4  CZ2 TRP A   1       7.793  -2.859  26.380  0.00  0.00    +0.026 A 
ATOM      5  CH2 TRP A   1       8.010  -4.113  25.800  0.00  0.00    +0.002 A 
ATOM      6  CZ3 TRP A   1       8.878  -4.266  24.723  0.00  0.00    +0.001 A 
ATOM      7  NE1 TRP A   1       8.449  -0.436  26.182  0.00  0.00    -0.360 N 
ATOM      8  HE1 TRP A   1       7.901  -0.057  26.944  0.00  0.00    +0.165 HD
ATOM      9  CE3 TRP A   1       9.542  -3.160  24.179  0.00  0.00    +0.010 A 
ATOM     10  CD1 TRP A   1       9.229   0.297  25.326  0.00  0.00    +0.087 A 
ENDROOT
BRANCH   1  11
ATOM     11  CB  TRP A   1      10.600  -0.184  23.205  0.00  0.00    +0.099 C 
BRANCH  11  12
ATOM     12  CA  TRP A   1       9.786  -0.014  21.952  0.00  0.00    +0.121 C 
ATOM     13  N   TRP A   1       9.531  -1.001  21.141  0.00  0.00    -0.297 NA
ATOM     14  H   TRP A   1       8.875  -0.728  20.400  0.00  0.00    +0.187 HD
BRANCH  12  15
ATOM     15  C   TRP A   1       9.248   1.386  21.670  0.00  0.00    +0.351 C 
ATOM     16  OXT TRP A   1       8.075   1.613  21.468  0.00  0.00    -0.244 OA
BRANCH  15  17
ATOM     17  O   TRP A   1      10.241   2.293  21.619  0.00  0.00    -0.476 OA
ATOM     18  H   TRP A   1       9.908   3.210  21.696  0.00  0.00    +0.295 HD
ENDBRANCH  15  17
ENDBRANCH  12  15
ENDBRANCH  11  12
ENDBRANCH   1  11
TORSDOF 4
ENDMDL
MODEL 8
REMARK VINA RESULT:      -5.5      1.948      2.386
REMARK  Name = 
REMARK  4 active torsions:
REMARK  status: ('A' for Active; 'I' for Inactive)
REMARK    1  A    between atoms: O_1  and  C_2
REMARK    2  A    between atoms: C_2  and  CA_4
REMARK    3  A    between atoms: CA_4  and  CB_6
REMARK    4  A    between atoms: CB_6  and  CG_7
REMARK                            x       y       z     vdW  Elec       q    Type
REMARK                         _______ _______ _______ _____ _____    ______ ____
ROOT
ATOM      1  CG  TRP A   1       9.787  -1.720  23.082  0.00  0.00    -0.016 A 
ATOM      2  CD2 TRP A   1      10.108  -0.335  23.254  0.00  0.00    +0.003 A 
ATOM      3  CE2 TRP A   1       9.792   0.323  22.066  0.00  0.00    +0.047 A 
ATOM      4  CZ2 TRP A   1       9.917   1.710  21.909  0.00  0.00    +0.026 A 
ATOM      5  CH2 TRP A   1      10.396   2.444  22.999  0.00  0.00    +0.002 A 
ATOM      6  CZ3 TRP A   1      10.745   1.814  24.190  0.00  0.00    +0.001 A 
ATOM      7  NE1 TRP A   1       9.352  -0.633  21.181  0.00  0.00    -0.360 N 
ATOM      8  HE1 TRP A   1       9.045  -0.439  20.237  0.00  0.00    +0.165 HD
ATOM      9  CE3 TRP A   1      10.607   0.428  24.332  0.00  0.00    +0.010 A 
ATOM     10  CD1 TRP A   1       9.343  -1.865  21.781  0.00  0.00    +0.087 A 
ENDROOT
BRANCH   1  11
ATOM     11  CB  TRP A   1       9.831  -2.779  24.134  0.00  0.00    +0.099 C 
BRANCH  11  12
ATOM     12  CA  TRP A   1       8.564  -3.585  24.215  0.00  0.00    +0.121 C 
ATOM     13  N   TRP A   1       8.519  -4.853  23.922  0.00  0.00    -0.297 NA
ATOM     14  H   TRP A   1       7.603  -5.263  24.136  0.00  0.00    +0.187 HD
BRANCH  12  15
ATOM     15  C   TRP A   1       7.311  -2.845  24.676  0.00  0.00    +0.351 C 
ATOM     16  OXT TRP A   1       7.230  -2.298  25.755  0.00  0.00    -0.244 OA
BRANCH  15  17
ATOM     17  O   TRP A   1       6.323  -2.938  23.768  0.00  0.00    -0.476 OA
ATOM     18  H   TRP A   1       5.688  -2.196  23.837  0.00  0.00    +0.295 HD
ENDBRANCH  15  17
ENDBRANCH  12  15
ENDBRANCH  11  12
ENDBRANCH   1  11
TORSDOF 4
ENDMDL
MODEL 9
REMARK VINA RESULT:      -5.3      2.027      2.677
REMARK  Name = 
REMARK  4 active torsions:
REMARK  status: ('A' for Active; 'I' for Inactive)
REMARK    1  A    between atoms: O_1  and  C_2
REMARK    2  A    between atoms: C_2  and  CA_4
REMARK    3  A    between atoms: CA_4  and  CB_6
REMARK    4  A    between atoms: CB_6  and  CG_7
REMARK                            x       y       z     vdW  Elec       q    Type
REMARK                         _______ _______ _______ _____ _____    ______ ____
ROOT
ATOM      1  CG  TRP A   1       8.186  -1.890  25.442  0.00  0.00    -0.016 A 
ATOM      2  CD2 TRP A   1       8.684  -1.329  24.223  0.00  0.00    +0.003 A 
ATOM      3  CE2 TRP A   1       9.541  -0.281  24.560  0.00  0.00    +0.047 A 
ATOM      4  CZ2 TRP A   1      10.261   0.448  23.603  0.00  0.00    +0.026 A 
ATOM      5  CH2 TRP A   1      10.086   0.102  22.260  0.00  0.00    +0.002 A 
ATOM      6  CZ3 TRP A   1       9.218  -0.920  21.889  0.00  0.00    +0.001 A 
ATOM      7  NE1 TRP A   1       9.519  -0.167  25.929  0.00  0.00    -0.360 N 
ATOM      8  HE1 TRP A   1      10.057   0.509  26.455  0.00  0.00    +0.165 HD
ATOM      9  CE3 TRP A   1       8.512  -1.643  22.858  0.00  0.00    +0.010 A 
ATOM     10  CD1 TRP A   1       8.709  -1.130  26.472  0.00  0.00    +0.087 A 
ENDROOT
BRANCH   1  11
ATOM     11  CB  TRP A   1       7.343  -3.117  25.576  0.00  0.00    +0.099 C 
BRANCH  11  12
ATOM     12  CA  TRP A   1       8.134  -4.337  25.961  0.00  0.00    +0.121 C 
ATOM     13  N   TRP A   1       8.020  -4.908  27.126  0.00  0.00    -0.297 NA
ATOM     14  H   TRP A   1       8.550  -5.786  27.175  0.00  0.00    +0.187 HD
BRANCH  12  15
ATOM     15  C   TRP A   1       9.083  -4.898  24.906  0.00  0.00    +0.351 C 
ATOM     16  OXT TRP A   1      10.282  -4.969  25.071  0.00  0.00    -0.244 OA
BRANCH  15  17
ATOM     17  O   TRP A   1       8.426  -5.233  23.781  0.00  0.00    -0.476 OA
ATOM     18  H   TRP A   1       8.443  -4.516  23.115  0.00  0.00    +0.295 HD
ENDBRANCH  15  17
ENDBRANCH  12  15
ENDBRANCH  11  12
ENDBRANCH   1  11
TORSDOF 4
ENDMDL
