MODEL 1
REMARK VINA RESULT:      -6.4      0.000      0.000
REMARK  Name = 
REMARK  9 active torsions:
REMARK  status: ('A' for Active; 'I' for Inactive)
REMARK    1  A    between atoms: C_2  and  C_3
REMARK    2  A    between atoms: C_3  and  S_4
REMARK    3  A    between atoms: S_4  and  C_7
REMARK    4  A    between atoms: C_10  and  O_11
REMARK    5  A    between atoms: O_11  and  C_12
REMARK    6  A    between atoms: C_19  and  C_21
REMARK    7  A    between atoms: N_23  and  C_24
REMARK    8  A    between atoms: C_24  and  C_25
REMARK    9  A    between atoms: C_25  and  N_26
REMARK                            x       y       z     vdW  Elec       q    Type
REMARK                         _______ _______ _______ _____ _____    ______ ____
ROOT
ATOM      1  C   UNL     1       7.760  -2.590  24.960  0.00  0.00    +0.022 C 
ATOM      2  C   UNL     1       7.852  -4.070  25.445  0.00  0.00    +0.080 C 
ATOM      3  C   UNL     1       6.548  -4.533  26.120  0.00  0.00    +0.013 C 
ATOM      4  C   UNL     1       6.096  -3.586  27.226  0.00  0.00    +0.001 C 
ATOM      5  C   UNL     1       5.930  -2.176  26.692  0.00  0.00    +0.000 C 
ATOM      6  C   UNL     1       7.228  -1.675  26.079  0.00  0.00    +0.006 C 
ENDROOT
BRANCH   2   7
ATOM      7  C   UNL     1       8.166  -5.035  24.293  0.00  0.00    +0.216 C 
ATOM      8  N   UNL     1       7.178  -5.128  23.338  0.00  0.00    -0.314 N 
ATOM      9  H   UNL     1       6.349  -4.552  23.403  0.00  0.00    +0.149 HD
ATOM     10  O   UNL     1       9.214  -5.671  24.225  0.00  0.00    -0.276 OA
BRANCH   8  11
ATOM     11  C   UNL     1       7.323  -5.972  22.158  0.00  0.00    +0.119 C 
BRANCH  11  12
ATOM     12  C   UNL     1       6.286  -5.680  21.061  0.00  0.00    +0.096 C 
BRANCH  12  13
ATOM     13  N   UNL     1       5.803  -4.294  21.113  0.00  0.00    -0.329 NA
ATOM     14  H   UNL     1       4.969  -4.261  21.699  0.00  0.00    +0.118 HD
ATOM     15  H   UNL     1       6.504  -3.728  21.589  0.00  0.00    +0.118 HD
ENDBRANCH  12  13
ENDBRANCH  11  12
ENDBRANCH   8  11
ENDBRANCH   2   7
BRANCH   1  16
ATOM     16  C   UNL     1       9.133  -2.087  24.466  0.00  0.00    +0.176 C 
BRANCH  16  17
ATOM     17  S   UNL     1       9.201  -1.790  22.696  0.00  0.00    -0.003 S 
ATOM     18  O   UNL     1       8.153  -2.548  22.040  0.00  0.00    -0.169 OA
ATOM     19  O   UNL     1      10.579  -1.886  22.252  0.00  0.00    -0.169 OA
BRANCH  17  20
ATOM     20  C   UNL     1       8.723  -0.083  22.577  0.00  0.00    +0.088 A 
ATOM     21  C   UNL     1       9.681   0.869  22.216  0.00  0.00    +0.030 A 
ATOM     22  C   UNL     1       9.306   2.206  22.073  0.00  0.00    +0.047 A 
ATOM     23  C   UNL     1       7.982   2.587  22.298  0.00  0.00    +0.120 A 
ATOM     24  C   UNL     1       7.041   1.628  22.687  0.00  0.00    +0.047 A 
ATOM     25  C   UNL     1       7.408   0.291  22.845  0.00  0.00    +0.030 A 
BRANCH  23  26
ATOM     26  O   UNL     1       7.477   3.844  22.114  0.00  0.00    -0.495 OA
ATOM     27  C   UNL     1       6.154   4.073  22.581  0.00  0.00    +0.277 C 
ENDBRANCH  23  26
ENDBRANCH  17  20
ENDBRANCH  16  17
ENDBRANCH   1  16
TORSDOF 8
ENDMDL
MODEL 2
REMARK VINA RESULT:      -6.3      2.884      6.629
REMARK  Name = 
REMARK  9 active torsions:
REMARK  status: ('A' for Active; 'I' for Inactive)
REMARK    1  A    between atoms: C_2  and  C_3
REMARK    2  A    between atoms: C_3  and  S_4
REMARK    3  A    between atoms: S_4  and  C_7
REMARK    4  A    between atoms: C_10  and  O_11
REMARK    5  A    between atoms: O_11  and  C_12
REMARK    6  A    between atoms: C_19  and  C_21
REMARK    7  A    between atoms: N_23  and  C_24
REMARK    8  A    between atoms: C_24  and  C_25
REMARK    9  A    between atoms: C_25  and  N_26
REMARK                            x       y       z     vdW  Elec       q    Type
REMARK                         _______ _______ _______ _____ _____    ______ ____
ROOT
ATOM      1  C   UNL     1       8.990  -0.516  23.230  0.00  0.00    +0.022 C 
ATOM      2  C   UNL     1       9.551   0.141  24.528  0.00  0.00    +0.080 C 
ATOM      3  C   UNL     1       9.653   1.672  24.397  0.00  0.00    +0.013 C 
ATOM      4  C   UNL     1      10.419   2.101  23.151  0.00  0.00    +0.001 C 
ATOM      5  C   UNL     1       9.786   1.515  21.902  0.00  0.00    +0.000 C 
ATOM      6  C   UNL     1       9.737  -0.002  21.984  0.00  0.00    +0.006 C 
ENDROOT
BRANCH   2   7
ATOM      7  C   UNL     1       8.688  -0.180  25.756  0.00  0.00    +0.216 C 
ATOM      8  N   UNL     1       7.368   0.198  25.643  0.00  0.00    -0.314 N 
ATOM      9  H   UNL     1       7.026   0.608  24.784  0.00  0.00    +0.149 HD
ATOM     10  O   UNL     1       9.133  -0.732  26.757  0.00  0.00    -0.276 OA
BRANCH   8  11
ATOM     11  C   UNL     1       6.399  -0.060  26.701  0.00  0.00    +0.119 C 
BRANCH  11  12
ATOM     12  C   UNL     1       5.722  -1.437  26.594  0.00  0.00    +0.096 C 
BRANCH  12  13
ATOM     13  N   UNL     1       4.634  -1.442  25.610  0.00  0.00    -0.329 NA
ATOM     14  H   UNL     1       3.924  -2.110  25.910  0.00  0.00    +0.118 HD
ATOM     15  H   UNL     1       4.183  -0.528  25.625  0.00  0.00    +0.118 HD
ENDBRANCH  12  13
ENDBRANCH  11  12
ENDBRANCH   8  11
ENDBRANCH   2   7
BRANCH   1  16
ATOM     16  C   UNL     1       9.080  -2.055  23.308  0.00  0.00    +0.176 C 
BRANCH  16  17
ATOM     17  S   UNL     1       7.490  -2.881  23.172  0.00  0.00    -0.003 S 
ATOM     18  O   UNL     1       7.518  -3.795  22.046  0.00  0.00    -0.169 OA
ATOM     19  O   UNL     1       6.432  -1.898  23.307  0.00  0.00    -0.169 OA
BRANCH  17  20
ATOM     20  C   UNL     1       7.462  -3.895  24.630  0.00  0.00    +0.088 A 
ATOM     21  C   UNL     1       8.573  -3.900  25.477  0.00  0.00    +0.030 A 
ATOM     22  C   UNL     1       8.543  -4.656  26.651  0.00  0.00    +0.047 A 
ATOM     23  C   UNL     1       7.409  -5.406  26.969  0.00  0.00    +0.120 A 
ATOM     24  C   UNL     1       6.316  -5.414  26.096  0.00  0.00    +0.047 A 
ATOM     25  C   UNL     1       6.340  -4.672  24.915  0.00  0.00    +0.030 A 
BRANCH  23  26
ATOM     26  O   UNL     1       7.229  -6.120  28.121  0.00  0.00    -0.495 OA
ATOM     27  C   UNL     1       5.950  -6.024  28.735  0.00  0.00    +0.277 C 
ENDBRANCH  23  26
ENDBRANCH  17  20
ENDBRANCH  16  17
ENDBRANCH   1  16
TORSDOF 8
ENDMDL
MODEL 3
REMARK VINA RESULT:      -6.1      2.563      4.152
REMARK  Name = 
REMARK  9 active torsions:
REMARK  status: ('A' for Active; 'I' for Inactive)
REMARK    1  A    between atoms: C_2  and  C_3
REMARK    2  A    between atoms: C_3  and  S_4
REMARK    3  A    between atoms: S_4  and  C_7
REMARK    4  A    between atoms: C_10  and  O_11
REMARK    5  A    between atoms: O_11  and  C_12
REMARK    6  A    between atoms: C_19  and  C_21
REMARK    7  A    between atoms: N_23  and  C_24
REMARK    8  A    between atoms: C_24  and  C_25
REMARK    9  A    between atoms: C_25  and  N_26
REMARK                            x       y       z     vdW  Elec       q    Type
REMARK                         _______ _______ _______ _____ _____    ______ ____
ROOT
ATOM      1  C   UNL     1       7.140  -4.245  23.475  0.00  0.00    +0.022 C 
ATOM      2  C   UNL     1       5.767  -4.507  24.168  0.00  0.00    +0.080 C 
ATOM      3  C   UNL     1       5.238  -5.923  23.871  0.00  0.00    +0.013 C 
ATOM      4  C   UNL     1       5.205  -6.232  22.379  0.00  0.00    +0.001 C 
ATOM      5  C   UNL     1       6.580  -6.054  21.763  0.00  0.00    +0.000 C 
ATOM      6  C   UNL     1       7.092  -4.641  21.988  0.00  0.00    +0.006 C 
ENDROOT
BRANCH   2   7
ATOM      7  C   UNL     1       5.847  -4.332  25.691  0.00  0.00    +0.216 C 
ATOM      8  N   UNL     1       6.479  -5.361  26.353  0.00  0.00    -0.314 N 
ATOM      9  H   UNL     1       6.887  -6.129  25.834  0.00  0.00    +0.149 HD
ATOM     10  O   UNL     1       5.388  -3.354  26.273  0.00  0.00    -0.276 OA
BRANCH   8  11
ATOM     11  C   UNL     1       6.673  -5.344  27.798  0.00  0.00    +0.119 C 
BRANCH  11  12
ATOM     12  C   UNL     1       5.536  -6.025  28.579  0.00  0.00    +0.096 C 
BRANCH  12  13
ATOM     13  N   UNL     1       5.410  -7.448  28.241  0.00  0.00    -0.329 NA
ATOM     14  H   UNL     1       4.437  -7.642  28.001  0.00  0.00    +0.118 HD
ATOM     15  H   UNL     1       5.949  -7.626  27.395  0.00  0.00    +0.118 HD
ENDBRANCH  12  13
ENDBRANCH  11  12
ENDBRANCH   8  11
ENDBRANCH   2   7
BRANCH   1  16
ATOM     16  C   UNL     1       7.557  -2.766  23.621  0.00  0.00    +0.176 C 
BRANCH  16  17
ATOM     17  S   UNL     1       9.070  -2.529  24.559  0.00  0.00    -0.003 S 
ATOM     18  O   UNL     1      10.078  -3.461  24.091  0.00  0.00    -0.169 OA
ATOM     19  O   UNL     1       8.744  -2.431  25.969  0.00  0.00    -0.169 OA
BRANCH  17  20
ATOM     20  C   UNL     1       9.601  -0.920  24.025  0.00  0.00    +0.088 A 
ATOM     21  C   UNL     1       9.508  -0.587  22.671  0.00  0.00    +0.030 A 
ATOM     22  C   UNL     1       9.877   0.691  22.247  0.00  0.00    +0.047 A 
ATOM     23  C   UNL     1      10.342   1.627  23.173  0.00  0.00    +0.120 A 
ATOM     24  C   UNL     1      10.457   1.270  24.521  0.00  0.00    +0.047 A 
ATOM     25  C   UNL     1      10.102  -0.009  24.953  0.00  0.00    +0.030 A 
BRANCH  23  26
ATOM     26  O   UNL     1      10.657   2.927  22.895  0.00  0.00    -0.495 OA
ATOM     27  C   UNL     1      10.018   3.920  23.688  0.00  0.00    +0.277 C 
ENDBRANCH  23  26
ENDBRANCH  17  20
ENDBRANCH  16  17
ENDBRANCH   1  16
TORSDOF 8
ENDMDL
MODEL 4
REMARK VINA RESULT:      -6.1      2.497      6.068
REMARK  Name = 
REMARK  9 active torsions:
REMARK  status: ('A' for Active; 'I' for Inactive)
REMARK    1  A    between atoms: C_2  and  C_3
REMARK    2  A    between atoms: C_3  and  S_4
REMARK    3  A    between atoms: S_4  and  C_7
REMARK    4  A    between atoms: C_10  and  O_11
REMARK    5  A    between atoms: O_11  and  C_12
REMARK    6  A    between atoms: C_19  and  C_21
REMARK    7  A    between atoms: N_23  and  C_24
REMARK    8  A    between atoms: C_24  and  C_25
REMARK    9  A    between atoms: C_25  and  N_26
REMARK                            x       y       z     vdW  Elec       q    Type
REMARK                         _______ _______ _______ _____ _____    ______ ____
ROOT
ATOM      1  C   UNL     1       8.376  -0.358  24.054  0.00  0.00    +0.022 C 
ATOM      2  C   UNL     1       8.436  -1.297  22.811  0.00  0.00    +0.080 C 
ATOM      3  C   UNL     1       9.600  -0.931  21.872  0.00  0.00    +0.013 C 
ATOM      4  C   UNL     1       9.596   0.544  21.486  0.00  0.00    +0.001 C 
ATOM      5  C   UNL     1       9.630   1.423  22.722  0.00  0.00    +0.000 C 
ATOM      6  C   UNL     1       8.451   1.122  23.632  0.00  0.00    +0.006 C 
ENDROOT
BRANCH   2   7
ATOM      7  C   UNL     1       8.586  -2.772  23.209  0.00  0.00    +0.216 C 
ATOM      8  N   UNL     1       7.537  -3.578  22.825  0.00  0.00    -0.314 N 
ATOM      9  H   UNL     1       6.772  -3.198  22.283  0.00  0.00    +0.149 HD
ATOM     10  O   UNL     1       9.561  -3.202  23.817  0.00  0.00    -0.276 OA
BRANCH   8  11
ATOM     11  C   UNL     1       7.528  -5.012  23.092  0.00  0.00    +0.119 C 
BRANCH  11  12
ATOM     12  C   UNL     1       7.125  -5.862  21.875  0.00  0.00    +0.096 C 
BRANCH  12  13
ATOM     13  N   UNL     1       5.777  -6.424  22.017  0.00  0.00    -0.329 NA
ATOM     14  H   UNL     1       5.844  -7.442  22.002  0.00  0.00    +0.118 HD
ATOM     15  H   UNL     1       5.423  -6.180  22.941  0.00  0.00    +0.118 HD
ENDBRANCH  12  13
ENDBRANCH  11  12
ENDBRANCH   8  11
ENDBRANCH   2   7
BRANCH   1  16
ATOM     16  C   UNL     1       7.095  -0.614  24.876  0.00  0.00    +0.176 C 
BRANCH  16  17
ATOM     17  S   UNL     1       7.411  -1.191  26.548  0.00  0.00    -0.003 S 
ATOM     18  O   UNL     1       6.503  -0.528  27.466  0.00  0.00    -0.169 OA
ATOM     19  O   UNL     1       8.841  -1.193  26.786  0.00  0.00    -0.169 OA
BRANCH  17  20
ATOM     20  C   UNL     1       6.884  -2.886  26.471  0.00  0.00    +0.088 A 
ATOM     21  C   UNL     1       7.788  -3.896  26.812  0.00  0.00    +0.030 A 
ATOM     22  C   UNL     1       7.371  -5.228  26.802  0.00  0.00    +0.047 A 
ATOM     23  C   UNL     1       6.058  -5.546  26.445  0.00  0.00    +0.120 A 
ATOM     24  C   UNL     1       5.173  -4.527  26.078  0.00  0.00    +0.047 A 
ATOM     25  C   UNL     1       5.584  -3.193  26.073  0.00  0.00    +0.030 A 
BRANCH  23  26
ATOM     26  O   UNL     1       5.511  -6.798  26.473  0.00  0.00    -0.495 OA
ATOM     27  C   UNL     1       4.275  -6.967  25.793  0.00  0.00    +0.277 C 
ENDBRANCH  23  26
ENDBRANCH  17  20
ENDBRANCH  16  17
ENDBRANCH   1  16
TORSDOF 8
ENDMDL
MODEL 5
REMARK VINA RESULT:      -6.0      4.459      7.904
REMARK  Name = 
REMARK  9 active torsions:
REMARK  status: ('A' for Active; 'I' for Inactive)
REMARK    1  A    between atoms: C_2  and  C_3
REMARK    2  A    between atoms: C_3  and  S_4
REMARK    3  A    between atoms: S_4  and  C_7
REMARK    4  A    between atoms: C_10  and  O_11
REMARK    5  A    between atoms: O_11  and  C_12
REMARK    6  A    between atoms: C_19  and  C_21
REMARK    7  A    between atoms: N_23  and  C_24
REMARK    8  A    between atoms: C_24  and  C_25
REMARK    9  A    between atoms: C_25  and  N_26
REMARK                            x       y       z     vdW  Elec       q    Type
REMARK                         _______ _______ _______ _____ _____    ______ ____
ROOT
ATOM      1  C   UNL     1       8.397   3.263  24.782  0.00  0.00    +0.022 C 
ATOM      2  C   UNL     1       8.089   4.784  24.631  0.00  0.00    +0.080 C 
ATOM      3  C   UNL     1       7.867   5.461  25.997  0.00  0.00    +0.013 C 
ATOM      4  C   UNL     1       6.825   4.738  26.843  0.00  0.00    +0.001 C 
ATOM      5  C   UNL     1       7.210   3.284  27.043  0.00  0.00    +0.000 C 
ATOM      6  C   UNL     1       7.370   2.580  25.705  0.00  0.00    +0.006 C 
ENDROOT
BRANCH   2   7
ATOM      7  C   UNL     1       9.214   5.531  23.901  0.00  0.00    +0.216 C 
ATOM      8  N   UNL     1      10.484   5.211  24.328  0.00  0.00    -0.314 N 
ATOM      9  H   UNL     1      10.622   4.501  25.035  0.00  0.00    +0.149 HD
ATOM     10  O   UNL     1       9.003   6.344  23.007  0.00  0.00    -0.276 OA
BRANCH   8  11
ATOM     11  C   UNL     1      11.672   5.801  23.723  0.00  0.00    +0.119 C 
BRANCH  11  12
ATOM     12  C   UNL     1      12.628   4.764  23.108  0.00  0.00    +0.096 C 
BRANCH  12  13
ATOM     13  N   UNL     1      14.024   5.219  23.131  0.00  0.00    -0.329 NA
ATOM     14  H   UNL     1      14.070   6.106  23.635  0.00  0.00    +0.118 HD
ATOM     15  H   UNL     1      14.569   4.555  23.679  0.00  0.00    +0.118 HD
ENDBRANCH  12  13
ENDBRANCH  11  12
ENDBRANCH   8  11
ENDBRANCH   2   7
BRANCH   1  16
ATOM     16  C   UNL     1       8.422   2.567  23.405  0.00  0.00    +0.176 C 
BRANCH  16  17
ATOM     17  S   UNL     1       9.969   1.728  23.045  0.00  0.00    -0.003 S 
ATOM     18  O   UNL     1      10.932   2.025  24.089  0.00  0.00    -0.169 OA
ATOM     19  O   UNL     1      10.302   1.927  21.647  0.00  0.00    -0.169 OA
BRANCH  17  20
ATOM     20  C   UNL     1       9.532   0.019  23.248  0.00  0.00    +0.088 A 
ATOM     21  C   UNL     1       9.076  -0.704  22.141  0.00  0.00    +0.030 A 
ATOM     22  C   UNL     1       8.776  -2.060  22.279  0.00  0.00    +0.047 A 
ATOM     23  C   UNL     1       8.924  -2.686  23.518  0.00  0.00    +0.120 A 
ATOM     24  C   UNL     1       9.352  -1.943  24.624  0.00  0.00    +0.047 A 
ATOM     25  C   UNL     1       9.644  -0.584  24.500  0.00  0.00    +0.030 A 
BRANCH  23  26
ATOM     26  O   UNL     1       8.738  -4.019  23.760  0.00  0.00    -0.495 OA
ATOM     27  C   UNL     1       7.531  -4.591  23.274  0.00  0.00    +0.277 C 
ENDBRANCH  23  26
ENDBRANCH  17  20
ENDBRANCH  16  17
ENDBRANCH   1  16
TORSDOF 8
ENDMDL
MODEL 6
REMARK VINA RESULT:      -5.8      4.211      8.267
REMARK  Name = 
REMARK  9 active torsions:
REMARK  status: ('A' for Active; 'I' for Inactive)
REMARK    1  A    between atoms: C_2  and  C_3
REMARK    2  A    between atoms: C_3  and  S_4
REMARK    3  A    between atoms: S_4  and  C_7
REMARK    4  A    between atoms: C_10  and  O_11
REMARK    5  A    between atoms: O_11  and  C_12
REMARK    6  A    between atoms: C_19  and  C_21
REMARK    7  A    between atoms: N_23  and  C_24
REMARK    8  A    between atoms: C_24  and  C_25
REMARK    9  A    between atoms: C_25  and  N_26
REMARK                            x       y       z     vdW  Elec       q    Type
REMARK                         _______ _______ _______ _____ _____    ______ ____
ROOT
ATOM      1  C   UNL     1       7.395   3.841  23.271  0.00  0.00    +0.022 C 
ATOM      2  C   UNL     1       8.051   5.235  23.024  0.00  0.00    +0.080 C 
ATOM      3  C   UNL     1       7.096   6.388  23.383  0.00  0.00    +0.013 C 
ATOM      4  C   UNL     1       5.739   6.255  22.703  0.00  0.00    +0.001 C 
ATOM      5  C   UNL     1       5.094   4.925  23.044  0.00  0.00    +0.000 C 
ATOM      6  C   UNL     1       5.994   3.770  22.636  0.00  0.00    +0.006 C 
ENDROOT
BRANCH   2   7
ATOM      7  C   UNL     1       9.346   5.414  23.828  0.00  0.00    +0.216 C 
ATOM      8  N   UNL     1      10.498   5.373  23.073  0.00  0.00    -0.314 N 
ATOM      9  H   UNL     1      10.447   5.278  22.067  0.00  0.00    +0.149 HD
ATOM     10  O   UNL     1       9.358   5.583  25.043  0.00  0.00    -0.276 OA
BRANCH   8  11
ATOM     11  C   UNL     1      11.816   5.558  23.668  0.00  0.00    +0.119 C 
BRANCH  11  12
ATOM     12  C   UNL     1      12.960   5.562  22.640  0.00  0.00    +0.096 C 
BRANCH  12  13
ATOM     13  N   UNL     1      14.216   5.058  23.210  0.00  0.00    -0.329 NA
ATOM     14  H   UNL     1      14.543   4.277  22.641  0.00  0.00    +0.118 HD
ATOM     15  H   UNL     1      14.923   5.786  23.122  0.00  0.00    +0.118 HD
ENDBRANCH  12  13
ENDBRANCH  11  12
ENDBRANCH   8  11
ENDBRANCH   2   7
BRANCH   1  16
ATOM     16  C   UNL     1       8.288   2.707  22.724  0.00  0.00    +0.176 C 
BRANCH  16  17
ATOM     17  S   UNL     1       9.271   1.887  23.984  0.00  0.00    -0.003 S 
ATOM     18  O   UNL     1       8.689   2.141  25.289  0.00  0.00    -0.169 OA
ATOM     19  O   UNL     1      10.675   2.145  23.732  0.00  0.00    -0.169 OA
BRANCH  17  20
ATOM     20  C   UNL     1       8.976   0.170  23.638  0.00  0.00    +0.088 A 
ATOM     21  C   UNL     1       9.937  -0.775  24.011  0.00  0.00    +0.030 A 
ATOM     22  C   UNL     1       9.695  -2.131  23.788  0.00  0.00    +0.047 A 
ATOM     23  C   UNL     1       8.501  -2.538  23.188  0.00  0.00    +0.120 A 
ATOM     24  C   UNL     1       7.562  -1.579  22.794  0.00  0.00    +0.047 A 
ATOM     25  C   UNL     1       7.799  -0.220  23.002  0.00  0.00    +0.030 A 
BRANCH  23  26
ATOM     26  O   UNL     1       8.116  -3.834  22.990  0.00  0.00    -0.495 OA
ATOM     27  C   UNL     1       7.755  -4.575  24.148  0.00  0.00    +0.277 C 
ENDBRANCH  23  26
ENDBRANCH  17  20
ENDBRANCH  16  17
ENDBRANCH   1  16
TORSDOF 8
ENDMDL
MODEL 7
REMARK VINA RESULT:      -5.8      3.620      7.416
REMARK  Name = 
REMARK  9 active torsions:
REMARK  status: ('A' for Active; 'I' for Inactive)
REMARK    1  A    between atoms: C_2  and  C_3
REMARK    2  A    between atoms: C_3  and  S_4
REMARK    3  A    between atoms: S_4  and  C_7
REMARK    4  A    between atoms: C_10  and  O_11
REMARK    5  A    between atoms: O_11  and  C_12
REMARK    6  A    between atoms: C_19  and  C_21
REMARK    7  A    between atoms: N_23  and  C_24
REMARK    8  A    between atoms: C_24  and  C_25
REMARK    9  A    between atoms: C_25  and  N_26
REMARK                            x       y       z     vdW  Elec       q    Type
REMARK                         _______ _______ _______ _____ _____    ______ ____
ROOT
ATOM      1  C   UNL     1       7.850   0.731  23.579  0.00  0.00    +0.022 C 
ATOM      2  C   UNL     1       8.059   2.048  22.771  0.00  0.00    +0.080 C 
ATOM      3  C   UNL     1       7.376   3.250  23.449  0.00  0.00    +0.013 C 
ATOM      4  C   UNL     1       5.908   2.987  23.761  0.00  0.00    +0.001 C 
ATOM      5  C   UNL     1       5.755   1.750  24.625  0.00  0.00    +0.000 C 
ATOM      6  C   UNL     1       6.365   0.536  23.943  0.00  0.00    +0.006 C 
ENDROOT
BRANCH   2   7
ATOM      7  C   UNL     1       9.547   2.381  22.586  0.00  0.00    +0.216 C 
ATOM      8  N   UNL     1       9.986   3.462  23.316  0.00  0.00    -0.314 N 
ATOM      9  H   UNL     1       9.358   3.942  23.949  0.00  0.00    +0.149 HD
ATOM     10  O   UNL     1      10.287   1.735  21.851  0.00  0.00    -0.276 OA
BRANCH   8  11
ATOM     11  C   UNL     1      11.377   3.898  23.287  0.00  0.00    +0.119 C 
BRANCH  11  12
ATOM     12  C   UNL     1      11.559   5.396  23.586  0.00  0.00    +0.096 C 
BRANCH  12  13
ATOM     13  N   UNL     1      12.944   5.723  23.943  0.00  0.00    -0.329 NA
ATOM     14  H   UNL     1      13.100   6.718  23.774  0.00  0.00    +0.118 HD
ATOM     15  H   UNL     1      13.058   5.587  24.947  0.00  0.00    +0.118 HD
ENDBRANCH  12  13
ENDBRANCH  11  12
ENDBRANCH   8  11
ENDBRANCH   2   7
BRANCH   1  16
ATOM     16  C   UNL     1       8.370  -0.489  22.789  0.00  0.00    +0.176 C 
BRANCH  16  17
ATOM     17  S   UNL     1       9.703  -1.369  23.610  0.00  0.00    -0.003 S 
ATOM     18  O   UNL     1      10.250  -0.538  24.666  0.00  0.00    -0.169 OA
ATOM     19  O   UNL     1      10.566  -1.964  22.608  0.00  0.00    -0.169 OA
BRANCH  17  20
ATOM     20  C   UNL     1       8.841  -2.693  24.422  0.00  0.00    +0.088 A 
ATOM     21  C   UNL     1       8.337  -3.748  23.656  0.00  0.00    +0.030 A 
ATOM     22  C   UNL     1       7.700  -4.818  24.288  0.00  0.00    +0.047 A 
ATOM     23  C   UNL     1       7.564  -4.826  25.678  0.00  0.00    +0.120 A 
ATOM     24  C   UNL     1       8.047  -3.750  26.429  0.00  0.00    +0.047 A 
ATOM     25  C   UNL     1       8.675  -2.670  25.806  0.00  0.00    +0.030 A 
BRANCH  23  26
ATOM     26  O   UNL     1       7.033  -5.848  26.415  0.00  0.00    -0.495 OA
ATOM     27  C   UNL     1       5.640  -6.086  26.262  0.00  0.00    +0.277 C 
ENDBRANCH  23  26
ENDBRANCH  17  20
ENDBRANCH  16  17
ENDBRANCH   1  16
TORSDOF 8
ENDMDL
MODEL 8
REMARK VINA RESULT:      -5.8      4.101      7.371
REMARK  Name = 
REMARK  9 active torsions:
REMARK  status: ('A' for Active; 'I' for Inactive)
REMARK    1  A    between atoms: C_2  and  C_3
REMARK    2  A    between atoms: C_3  and  S_4
REMARK    3  A    between atoms: S_4  and  C_7
REMARK    4  A    between atoms: C_10  and  O_11
REMARK    5  A    between atoms: O_11  and  C_12
REMARK    6  A    between atoms: C_19  and  C_21
REMARK    7  A    between atoms: N_23  and  C_24
REMARK    8  A    between atoms: C_24  and  C_25
REMARK    9  A    between atoms: C_25  and  N_26
REMARK                            x       y       z     vdW  Elec       q    Type
REMARK                         _______ _______ _______ _____ _____    ______ ____
ROOT
ATOM      1  C   UNL     1       8.299   0.995  23.144  0.00  0.00    +0.022 C 
ATOM      2  C   UNL     1       8.956   2.301  22.599  0.00  0.00    +0.080 C 
ATOM      3  C   UNL     1       8.050   3.528  22.808  0.00  0.00    +0.013 C 
ATOM      4  C   UNL     1       6.643   3.314  22.262  0.00  0.00    +0.001 C 
ATOM      5  C   UNL     1       6.005   2.087  22.886  0.00  0.00    +0.000 C 
ATOM      6  C   UNL     1       6.853   0.851  22.634  0.00  0.00    +0.006 C 
ENDROOT
BRANCH   2   7
ATOM      7  C   UNL     1      10.311   2.584  23.263  0.00  0.00    +0.216 C 
ATOM      8  N   UNL     1      10.935   3.730  22.822  0.00  0.00    -0.314 N 
ATOM      9  H   UNL     1      10.481   4.334  22.149  0.00  0.00    +0.149 HD
ATOM     10  O   UNL     1      10.799   1.853  24.119  0.00  0.00    -0.276 OA
BRANCH   8  11
ATOM     11  C   UNL     1      12.214   4.170  23.368  0.00  0.00    +0.119 C 
BRANCH  11  12
ATOM     12  C   UNL     1      12.694   5.518  22.801  0.00  0.00    +0.096 C 
BRANCH  12  13
ATOM     13  N   UNL     1      14.149   5.550  22.614  0.00  0.00    -0.329 NA
ATOM     14  H   UNL     1      14.462   4.623  22.325  0.00  0.00    +0.118 HD
ATOM     15  H   UNL     1      14.359   6.173  21.835  0.00  0.00    +0.118 HD
ENDBRANCH  12  13
ENDBRANCH  11  12
ENDBRANCH   8  11
ENDBRANCH   2   7
BRANCH   1  16
ATOM     16  C   UNL     1       9.130  -0.245  22.752  0.00  0.00    +0.176 C 
BRANCH  16  17
ATOM     17  S   UNL     1       9.076  -1.566  23.967  0.00  0.00    -0.003 S 
ATOM     18  O   UNL     1       8.860  -1.000  25.285  0.00  0.00    -0.169 OA
ATOM     19  O   UNL     1      10.174  -2.481  23.721  0.00  0.00    -0.169 OA
BRANCH  17  20
ATOM     20  C   UNL     1       7.574  -2.414  23.542  0.00  0.00    +0.088 A 
ATOM     21  C   UNL     1       7.382  -2.839  22.224  0.00  0.00    +0.030 A 
ATOM     22  C   UNL     1       6.228  -3.548  21.888  0.00  0.00    +0.047 A 
ATOM     23  C   UNL     1       5.268  -3.823  22.866  0.00  0.00    +0.120 A 
ATOM     24  C   UNL     1       5.461  -3.365  24.174  0.00  0.00    +0.047 A 
ATOM     25  C   UNL     1       6.606  -2.646  24.517  0.00  0.00    +0.030 A 
BRANCH  23  26
ATOM     26  O   UNL     1       4.141  -4.572  22.680  0.00  0.00    -0.495 OA
ATOM     27  C   UNL     1       3.289  -4.730  23.808  0.00  0.00    +0.277 C 
ENDBRANCH  23  26
ENDBRANCH  17  20
ENDBRANCH  16  17
ENDBRANCH   1  16
TORSDOF 8
ENDMDL
MODEL 9
REMARK VINA RESULT:      -5.8      2.286      3.909
REMARK  Name = 
REMARK  9 active torsions:
REMARK  status: ('A' for Active; 'I' for Inactive)
REMARK    1  A    between atoms: C_2  and  C_3
REMARK    2  A    between atoms: C_3  and  S_4
REMARK    3  A    between atoms: S_4  and  C_7
REMARK    4  A    between atoms: C_10  and  O_11
REMARK    5  A    between atoms: O_11  and  C_12
REMARK    6  A    between atoms: C_19  and  C_21
REMARK    7  A    between atoms: N_23  and  C_24
REMARK    8  A    between atoms: C_24  and  C_25
REMARK    9  A    between atoms: C_25  and  N_26
REMARK                            x       y       z     vdW  Elec       q    Type
REMARK                         _______ _______ _______ _____ _____    ______ ____
ROOT
ATOM      1  C   UNL     1       7.550  -3.768  23.064  0.00  0.00    +0.022 C 
ATOM      2  C   UNL     1       6.399  -3.768  24.116  0.00  0.00    +0.080 C 
ATOM      3  C   UNL     1       5.949  -5.197  24.473  0.00  0.00    +0.013 C 
ATOM      4  C   UNL     1       5.608  -6.025  23.240  0.00  0.00    +0.001 C 
ATOM      5  C   UNL     1       6.786  -6.077  22.285  0.00  0.00    +0.000 C 
ATOM      6  C   UNL     1       7.204  -4.676  21.868  0.00  0.00    +0.006 C 
ENDROOT
BRANCH   2   7
ATOM      7  C   UNL     1       6.804  -3.053  25.413  0.00  0.00    +0.216 C 
ATOM      8  N   UNL     1       6.262  -1.796  25.567  0.00  0.00    -0.314 N 
ATOM      9  H   UNL     1       5.616  -1.430  24.880  0.00  0.00    +0.149 HD
ATOM     10  O   UNL     1       7.547  -3.559  26.249  0.00  0.00    -0.276 OA
BRANCH   8  11
ATOM     11  C   UNL     1       6.514  -0.988  26.755  0.00  0.00    +0.119 C 
BRANCH  11  12
ATOM     12  C   UNL     1       7.718  -0.041  26.611  0.00  0.00    +0.096 C 
BRANCH  12  13
ATOM     13  N   UNL     1       8.976  -0.684  27.011  0.00  0.00    -0.329 NA
ATOM     14  H   UNL     1       8.856  -1.085  27.941  0.00  0.00    +0.118 HD
ATOM     15  H   UNL     1       9.147  -1.470  26.385  0.00  0.00    +0.118 HD
ENDBRANCH  12  13
ENDBRANCH  11  12
ENDBRANCH   8  11
ENDBRANCH   2   7
BRANCH   1  16
ATOM     16  C   UNL     1       7.851  -2.335  22.576  0.00  0.00    +0.176 C 
BRANCH  16  17
ATOM     17  S   UNL     1       9.467  -1.726  23.072  0.00  0.00    -0.003 S 
ATOM     18  O   UNL     1      10.389  -1.845  21.958  0.00  0.00    -0.169 OA
ATOM     19  O   UNL     1       9.799  -2.270  24.375  0.00  0.00    -0.169 OA
BRANCH  17  20
ATOM     20  C   UNL     1       9.170   0.013  23.283  0.00  0.00    +0.088 A 
ATOM     21  C   UNL     1       7.933   0.543  22.903  0.00  0.00    +0.030 A 
ATOM     22  C   UNL     1       7.671   1.899  23.109  0.00  0.00    +0.047 A 
ATOM     23  C   UNL     1       8.644   2.719  23.685  0.00  0.00    +0.120 A 
ATOM     24  C   UNL     1       9.887   2.179  24.033  0.00  0.00    +0.047 A 
ATOM     25  C   UNL     1      10.164   0.828  23.821  0.00  0.00    +0.030 A 
BRANCH  23  26
ATOM     26  O   UNL     1       8.479   4.036  24.008  0.00  0.00    -0.495 OA
ATOM     27  C   UNL     1       9.660   4.826  24.079  0.00  0.00    +0.277 C 
ENDBRANCH  23  26
ENDBRANCH  17  20
ENDBRANCH  16  17
ENDBRANCH   1  16
TORSDOF 8
ENDMDL
