MODEL 1
REMARK VINA RESULT:      -6.1      0.000      0.000
REMARK  Name = 
REMARK  2 active torsions:
REMARK  status: ('A' for Active; 'I' for Inactive)
REMARK    1  A    between atoms: N_1  and  S_2
REMARK    2  A    between atoms: S_2  and  C_5
REMARK                            x       y       z     vdW  Elec       q    Type
REMARK                         _______ _______ _______ _____ _____    ______ ____
ROOT
ATOM      1  C   UNL     1       7.680  -3.407  22.977  0.00  0.00    +0.125 A 
ATOM      2  C   UNL     1       7.610  -2.094  22.498  0.00  0.00    +0.060 A 
ATOM      3  C   UNL     1       8.481  -1.129  23.015  0.00  0.00    +0.128 A 
ATOM      4  C   UNL     1       9.425  -1.426  23.999  0.00  0.00    +0.056 A 
ATOM      5  N   UNL     1      10.231  -0.461  24.605  0.00  0.00    -0.328 N 
ATOM      6  H   UNL     1      11.059  -0.837  25.058  0.00  0.00    +0.147 HD
ATOM      7  C   UNL     1      10.478   0.772  23.899  0.00  0.00    +0.209 C 
ATOM      8  N   UNL     1       9.219   1.399  23.565  0.00  0.00    -0.173 NA
ATOM      9  H   UNL     1       9.348   2.347  23.216  0.00  0.00    +0.150 HD
ATOM     10  C   UNL     1       9.446  -2.738  24.491  0.00  0.00    +0.047 A 
ATOM     11  S   UNL     1       8.380   0.517  22.412  0.00  0.00    +0.062 S 
ATOM     12  O   UNL     1       9.158   0.582  21.194  0.00  0.00    -0.153 OA
ATOM     13  O   UNL     1       7.003   0.951  22.456  0.00  0.00    -0.153 OA
ATOM     14  C   UNL     1       8.597  -3.733  23.977  0.00  0.00    +0.069 A 
ATOM     15 CL   UNL     1       8.783  -5.319  24.640  0.00  0.00    -0.081 Cl
ENDROOT
BRANCH   1  16
ATOM     16  S   UNL     1       6.564  -4.605  22.320  0.00  0.00    +0.057 S 
ATOM     17  O   UNL     1       7.299  -5.573  21.545  0.00  0.00    -0.153 OA
ATOM     18  O   UNL     1       5.642  -5.003  23.357  0.00  0.00    -0.153 OA
BRANCH  16  19
ATOM     19  N   UNL     1       5.636  -3.707  21.247  0.00  0.00    -0.203 NA
ATOM     20  H   UNL     1       4.970  -4.315  20.768  0.00  0.00    +0.144 HD
ATOM     21  H   UNL     1       5.198  -2.927  21.741  0.00  0.00    +0.144 HD
ENDBRANCH  16  19
ENDBRANCH   1  16
TORSDOF 2
ENDMDL
MODEL 2
REMARK VINA RESULT:      -6.0      2.802      3.317
REMARK  Name = 
REMARK  2 active torsions:
REMARK  status: ('A' for Active; 'I' for Inactive)
REMARK    1  A    between atoms: N_1  and  S_2
REMARK    2  A    between atoms: S_2  and  C_5
REMARK                            x       y       z     vdW  Elec       q    Type
REMARK                         _______ _______ _______ _____ _____    ______ ____
ROOT
ATOM      1  C   UNL     1       8.673  -3.290  24.487  0.00  0.00    +0.125 A 
ATOM      2  C   UNL     1       9.191  -2.031  24.813  0.00  0.00    +0.060 A 
ATOM      3  C   UNL     1       9.239  -1.036  23.831  0.00  0.00    +0.128 A 
ATOM      4  C   UNL     1       8.788  -1.250  22.527  0.00  0.00    +0.056 A 
ATOM      5  N   UNL     1       8.923  -0.310  21.504  0.00  0.00    -0.328 N 
ATOM      6  H   UNL     1       8.298  -0.460  20.718  0.00  0.00    +0.147 HD
ATOM      7  C   UNL     1       9.066   1.080  21.861  0.00  0.00    +0.209 C 
ATOM      8  N   UNL     1      10.193   1.237  22.752  0.00  0.00    -0.173 NA
ATOM      9  H   UNL     1      10.430   2.217  22.894  0.00  0.00    +0.150 HD
ATOM     10  C   UNL     1       8.314  -2.531  22.217  0.00  0.00    +0.047 A 
ATOM     11  S   UNL     1       9.897   0.538  24.247  0.00  0.00    +0.062 S 
ATOM     12  O   UNL     1       8.833   1.305  24.859  0.00  0.00    -0.153 OA
ATOM     13  O   UNL     1      11.173   0.358  24.899  0.00  0.00    -0.153 OA
ATOM     14  C   UNL     1       8.234  -3.545  23.187  0.00  0.00    +0.069 A 
ATOM     15 CL   UNL     1       7.568  -5.054  22.669  0.00  0.00    -0.081 Cl
ENDROOT
BRANCH   1  16
ATOM     16  S   UNL     1       8.633  -4.534  25.738  0.00  0.00    +0.057 S 
ATOM     17  O   UNL     1       9.068  -3.970  26.991  0.00  0.00    -0.153 OA
ATOM     18  O   UNL     1       7.396  -5.270  25.623  0.00  0.00    -0.153 OA
BRANCH  16  19
ATOM     19  N   UNL     1       9.818  -5.611  25.235  0.00  0.00    -0.203 NA
ATOM     20  H   UNL     1      10.192  -6.118  26.039  0.00  0.00    +0.144 HD
ATOM     21  H   UNL     1       9.442  -6.218  24.505  0.00  0.00    +0.144 HD
ENDBRANCH  16  19
ENDBRANCH   1  16
TORSDOF 2
ENDMDL
MODEL 3
REMARK VINA RESULT:      -6.0      2.606      5.727
REMARK  Name = 
REMARK  2 active torsions:
REMARK  status: ('A' for Active; 'I' for Inactive)
REMARK    1  A    between atoms: N_1  and  S_2
REMARK    2  A    between atoms: S_2  and  C_5
REMARK                            x       y       z     vdW  Elec       q    Type
REMARK                         _______ _______ _______ _____ _____    ______ ____
ROOT
ATOM      1  C   UNL     1       7.622  -1.799  22.985  0.00  0.00    +0.125 A 
ATOM      2  C   UNL     1       7.586  -3.066  22.393  0.00  0.00    +0.060 A 
ATOM      3  C   UNL     1       6.500  -3.911  22.648  0.00  0.00    +0.128 A 
ATOM      4  C   UNL     1       5.442  -3.537  23.478  0.00  0.00    +0.056 A 
ATOM      5  N   UNL     1       4.403  -4.399  23.832  0.00  0.00    -0.328 N 
ATOM      6  H   UNL     1       3.569  -3.927  24.170  0.00  0.00    +0.147 HD
ATOM      7  C   UNL     1       4.114  -5.518  22.970  0.00  0.00    +0.209 C 
ATOM      8  N   UNL     1       5.306  -6.317  22.798  0.00  0.00    -0.173 NA
ATOM      9  H   UNL     1       5.106  -7.202  22.336  0.00  0.00    +0.150 HD
ATOM     10  C   UNL     1       5.524  -2.280  24.092  0.00  0.00    +0.047 A 
ATOM     11  S   UNL     1       6.468  -5.501  21.906  0.00  0.00    +0.062 S 
ATOM     12  O   UNL     1       5.931  -5.347  20.571  0.00  0.00    -0.153 OA
ATOM     13  O   UNL     1       7.732  -6.158  22.143  0.00  0.00    -0.153 OA
ATOM     14  C   UNL     1       6.591  -1.402  23.839  0.00  0.00    +0.069 A 
ATOM     15 CL   UNL     1       6.520   0.139  24.620  0.00  0.00    -0.081 Cl
ENDROOT
BRANCH   1  16
ATOM     16  S   UNL     1       9.006  -0.755  22.660  0.00  0.00    +0.057 S 
ATOM     17  O   UNL     1       8.569   0.412  21.935  0.00  0.00    -0.153 OA
ATOM     18  O   UNL     1       9.805  -0.651  23.858  0.00  0.00    -0.153 OA
BRANCH  16  19
ATOM     19  N   UNL     1       9.935  -1.677  21.608  0.00  0.00    -0.203 NA
ATOM     20  H   UNL     1      10.905  -1.361  21.632  0.00  0.00    +0.144 HD
ATOM     21  H   UNL     1       9.820  -2.668  21.828  0.00  0.00    +0.144 HD
ENDBRANCH  16  19
ENDBRANCH   1  16
TORSDOF 2
ENDMDL
MODEL 4
REMARK VINA RESULT:      -5.8      3.647      4.213
REMARK  Name = 
REMARK  2 active torsions:
REMARK  status: ('A' for Active; 'I' for Inactive)
REMARK    1  A    between atoms: N_1  and  S_2
REMARK    2  A    between atoms: S_2  and  C_5
REMARK                            x       y       z     vdW  Elec       q    Type
REMARK                         _______ _______ _______ _____ _____    ______ ____
ROOT
ATOM      1  C   UNL     1       6.584  -3.940  25.934  0.00  0.00    +0.125 A 
ATOM      2  C   UNL     1       7.795  -3.402  25.486  0.00  0.00    +0.060 A 
ATOM      3  C   UNL     1       7.778  -2.359  24.554  0.00  0.00    +0.128 A 
ATOM      4  C   UNL     1       6.589  -1.829  24.048  0.00  0.00    +0.056 A 
ATOM      5  N   UNL     1       6.548  -0.863  23.041  0.00  0.00    -0.328 N 
ATOM      6  H   UNL     1       5.669  -0.356  22.989  0.00  0.00    +0.147 HD
ATOM      7  C   UNL     1       7.703  -0.023  22.845  0.00  0.00    +0.209 C 
ATOM      8  N   UNL     1       8.867  -0.847  22.613  0.00  0.00    -0.173 NA
ATOM      9  H   UNL     1       9.666  -0.296  22.306  0.00  0.00    +0.150 HD
ATOM     10  C   UNL     1       5.392  -2.414  24.482  0.00  0.00    +0.047 A 
ATOM     11  S   UNL     1       9.303  -1.696  23.992  0.00  0.00    +0.062 S 
ATOM     12  O   UNL     1       9.734  -0.714  24.963  0.00  0.00    -0.153 OA
ATOM     13  O   UNL     1      10.163  -2.779  23.576  0.00  0.00    -0.153 OA
ATOM     14  C   UNL     1       5.378  -3.449  25.432  0.00  0.00    +0.069 A 
ATOM     15 CL   UNL     1       3.821  -4.025  25.917  0.00  0.00    -0.081 Cl
ENDROOT
BRANCH   1  16
ATOM     16  S   UNL     1       6.629  -5.263  27.101  0.00  0.00    +0.057 S 
ATOM     17  O   UNL     1       6.245  -4.771  28.401  0.00  0.00    -0.153 OA
ATOM     18  O   UNL     1       6.006  -6.425  26.513  0.00  0.00    -0.153 OA
BRANCH  16  19
ATOM     19  N   UNL     1       8.262  -5.646  27.173  0.00  0.00    -0.203 NA
ATOM     20  H   UNL     1       8.470  -6.409  26.527  0.00  0.00    +0.144 HD
ATOM     21  H   UNL     1       8.819  -4.805  27.009  0.00  0.00    +0.144 HD
ENDBRANCH  16  19
ENDBRANCH   1  16
TORSDOF 2
ENDMDL
MODEL 5
REMARK VINA RESULT:      -5.8      2.387      5.194
REMARK  Name = 
REMARK  2 active torsions:
REMARK  status: ('A' for Active; 'I' for Inactive)
REMARK    1  A    between atoms: N_1  and  S_2
REMARK    2  A    between atoms: S_2  and  C_5
REMARK                            x       y       z     vdW  Elec       q    Type
REMARK                         _______ _______ _______ _____ _____    ______ ____
ROOT
ATOM      1  C   UNL     1       8.410   0.007  23.079  0.00  0.00    +0.125 A 
ATOM      2  C   UNL     1       7.335  -0.848  22.811  0.00  0.00    +0.060 A 
ATOM      3  C   UNL     1       7.419  -2.192  23.189  0.00  0.00    +0.128 A 
ATOM      4  C   UNL     1       8.543  -2.720  23.828  0.00  0.00    +0.056 A 
ATOM      5  N   UNL     1       8.693  -4.077  24.118  0.00  0.00    -0.328 N 
ATOM      6  H   UNL     1       9.386  -4.273  24.835  0.00  0.00    +0.147 HD
ATOM      7  C   UNL     1       7.509  -4.892  24.231  0.00  0.00    +0.209 C 
ATOM      8  N   UNL     1       6.732  -4.788  23.017  0.00  0.00    -0.173 NA
ATOM      9  H   UNL     1       5.980  -5.473  22.988  0.00  0.00    +0.150 HD
ATOM     10  C   UNL     1       9.621  -1.852  24.046  0.00  0.00    +0.047 A 
ATOM     11  S   UNL     1       6.068  -3.258  22.842  0.00  0.00    +0.062 S 
ATOM     12  O   UNL     1       5.105  -3.101  23.910  0.00  0.00    -0.153 OA
ATOM     13  O   UNL     1       5.693  -3.108  21.455  0.00  0.00    -0.153 OA
ATOM     14  C   UNL     1       9.558  -0.493  23.696  0.00  0.00    +0.069 A 
ATOM     15 CL   UNL     1      10.943   0.466  24.087  0.00  0.00    -0.081 Cl
ENDROOT
BRANCH   1  16
ATOM     16  S   UNL     1       8.288   1.696  22.584  0.00  0.00    +0.057 S 
ATOM     17  O   UNL     1       7.058   1.898  21.860  0.00  0.00    -0.153 OA
ATOM     18  O   UNL     1       8.663   2.537  23.696  0.00  0.00    -0.153 OA
BRANCH  16  19
ATOM     19  N   UNL     1       9.547   1.858  21.485  0.00  0.00    -0.203 NA
ATOM     20  H   UNL     1       9.790   0.945  21.097  0.00  0.00    +0.144 HD
ATOM     21  H   UNL     1       9.299   2.553  20.778  0.00  0.00    +0.144 HD
ENDBRANCH  16  19
ENDBRANCH   1  16
TORSDOF 2
ENDMDL
MODEL 6
REMARK VINA RESULT:      -5.8      2.801      5.736
REMARK  Name = 
REMARK  2 active torsions:
REMARK  status: ('A' for Active; 'I' for Inactive)
REMARK    1  A    between atoms: N_1  and  S_2
REMARK    2  A    between atoms: S_2  and  C_5
REMARK                            x       y       z     vdW  Elec       q    Type
REMARK                         _______ _______ _______ _____ _____    ______ ____
ROOT
ATOM      1  C   UNL     1       8.915  -1.088  24.152  0.00  0.00    +0.125 A 
ATOM      2  C   UNL     1       8.358  -2.156  24.864  0.00  0.00    +0.060 A 
ATOM      3  C   UNL     1       7.836  -3.248  24.163  0.00  0.00    +0.128 A 
ATOM      4  C   UNL     1       7.848  -3.315  22.769  0.00  0.00    +0.056 A 
ATOM      5  N   UNL     1       7.240  -4.342  22.045  0.00  0.00    -0.328 N 
ATOM      6  H   UNL     1       7.578  -4.434  21.091  0.00  0.00    +0.147 HD
ATOM      7  C   UNL     1       7.022  -5.609  22.697  0.00  0.00    +0.209 C 
ATOM      8  N   UNL     1       6.251  -5.407  23.903  0.00  0.00    -0.173 NA
ATOM      9  H   UNL     1       5.935  -6.288  24.303  0.00  0.00    +0.150 HD
ATOM     10  C   UNL     1       8.373  -2.214  22.080  0.00  0.00    +0.047 A 
ATOM     11  S   UNL     1       7.133  -4.581  25.065  0.00  0.00    +0.062 S 
ATOM     12  O   UNL     1       8.215  -5.455  25.462  0.00  0.00    -0.153 OA
ATOM     13  O   UNL     1       6.192  -4.054  26.026  0.00  0.00    -0.153 OA
ATOM     14  C   UNL     1       8.922  -1.112  22.757  0.00  0.00    +0.069 A 
ATOM     15 CL   UNL     1       9.589   0.141  21.770  0.00  0.00    -0.081 Cl
ENDROOT
BRANCH   1  16
ATOM     16  S   UNL     1       9.556   0.285  25.057  0.00  0.00    +0.057 S 
ATOM     17  O   UNL     1      10.982   0.368  24.857  0.00  0.00    -0.153 OA
ATOM     18  O   UNL     1       8.692   1.423  24.852  0.00  0.00    -0.153 OA
BRANCH  16  19
ATOM     19  N   UNL     1       9.299  -0.164  26.654  0.00  0.00    -0.203 NA
ATOM     20  H   UNL     1       8.964  -1.127  26.696  0.00  0.00    +0.144 HD
ATOM     21  H   UNL     1      10.149  -0.000  27.197  0.00  0.00    +0.144 HD
ENDBRANCH  16  19
ENDBRANCH   1  16
TORSDOF 2
ENDMDL
MODEL 7
REMARK VINA RESULT:      -5.7      3.327      5.965
REMARK  Name = 
REMARK  2 active torsions:
REMARK  status: ('A' for Active; 'I' for Inactive)
REMARK    1  A    between atoms: N_1  and  S_2
REMARK    2  A    between atoms: S_2  and  C_5
REMARK                            x       y       z     vdW  Elec       q    Type
REMARK                         _______ _______ _______ _____ _____    ______ ____
ROOT
ATOM      1  C   UNL     1       7.756  -3.655  24.374  0.00  0.00    +0.125 A 
ATOM      2  C   UNL     1       6.766  -4.131  23.508  0.00  0.00    +0.060 A 
ATOM      3  C   UNL     1       5.884  -5.120  23.953  0.00  0.00    +0.128 A 
ATOM      4  C   UNL     1       5.953  -5.658  25.240  0.00  0.00    +0.056 A 
ATOM      5  N   UNL     1       5.155  -6.718  25.672  0.00  0.00    -0.328 N 
ATOM      6  H   UNL     1       5.086  -6.801  26.682  0.00  0.00    +0.147 HD
ATOM      7  C   UNL     1       3.905  -6.960  24.995  0.00  0.00    +0.209 C 
ATOM      8  N   UNL     1       4.147  -7.142  23.582  0.00  0.00    -0.173 NA
ATOM      9  H   UNL     1       3.319  -7.478  23.095  0.00  0.00    +0.150 HD
ATOM     10  C   UNL     1       6.979  -5.194  26.073  0.00  0.00    +0.047 A 
ATOM     11  S   UNL     1       4.650  -5.716  22.856  0.00  0.00    +0.062 S 
ATOM     12  O   UNL     1       3.531  -4.801  22.923  0.00  0.00    -0.153 OA
ATOM     13  O   UNL     1       5.267  -6.068  21.598  0.00  0.00    -0.153 OA
ATOM     14  C   UNL     1       7.868  -4.186  25.660  0.00  0.00    +0.069 A 
ATOM     15 CL   UNL     1       9.041  -3.673  26.822  0.00  0.00    -0.081 Cl
ENDROOT
BRANCH   1  16
ATOM     16  S   UNL     1       8.866  -2.415  23.788  0.00  0.00    +0.057 S 
ATOM     17  O   UNL     1       8.574  -1.161  24.437  0.00  0.00    -0.153 OA
ATOM     18  O   UNL     1      10.202  -2.962  23.755  0.00  0.00    -0.153 OA
BRANCH  16  19
ATOM     19  N   UNL     1       8.432  -2.254  22.174  0.00  0.00    -0.203 NA
ATOM     20  H   UNL     1       8.842  -3.012  21.626  0.00  0.00    +0.144 HD
ATOM     21  H   UNL     1       7.415  -2.195  22.096  0.00  0.00    +0.144 HD
ENDBRANCH  16  19
ENDBRANCH   1  16
TORSDOF 2
ENDMDL
MODEL 8
REMARK VINA RESULT:      -5.6      3.575      5.824
REMARK  Name = 
REMARK  2 active torsions:
REMARK  status: ('A' for Active; 'I' for Inactive)
REMARK    1  A    between atoms: N_1  and  S_2
REMARK    2  A    between atoms: S_2  and  C_5
REMARK                            x       y       z     vdW  Elec       q    Type
REMARK                         _______ _______ _______ _____ _____    ______ ____
ROOT
ATOM      1  C   UNL     1       8.816  -0.908  24.919  0.00  0.00    +0.125 A 
ATOM      2  C   UNL     1       9.125  -2.246  24.647  0.00  0.00    +0.060 A 
ATOM      3  C   UNL     1       8.486  -3.257  25.373  0.00  0.00    +0.128 A 
ATOM      4  C   UNL     1       7.545  -2.983  26.367  0.00  0.00    +0.056 A 
ATOM      5  N   UNL     1       6.974  -3.967  27.175  0.00  0.00    -0.328 N 
ATOM      6  H   UNL     1       6.108  -3.683  27.625  0.00  0.00    +0.147 HD
ATOM      7  C   UNL     1       6.947  -5.325  26.691  0.00  0.00    +0.209 C 
ATOM      8  N   UNL     1       8.289  -5.750  26.366  0.00  0.00    -0.173 NA
ATOM      9  H   UNL     1       8.335  -6.749  26.180  0.00  0.00    +0.150 HD
ATOM     10  C   UNL     1       7.286  -1.635  26.648  0.00  0.00    +0.047 A 
ATOM     11  S   UNL     1       8.885  -4.932  25.029  0.00  0.00    +0.062 S 
ATOM     12  O   UNL     1       8.083  -5.346  23.898  0.00  0.00    -0.153 OA
ATOM     13  O   UNL     1      10.322  -5.085  25.036  0.00  0.00    -0.153 OA
ATOM     14  C   UNL     1       7.896  -0.598  25.922  0.00  0.00    +0.069 A 
ATOM     15 CL   UNL     1       7.428   1.013  26.341  0.00  0.00    -0.081 Cl
ENDROOT
BRANCH   1  16
ATOM     16  S   UNL     1       9.642   0.352  24.000  0.00  0.00    +0.057 S 
ATOM     17  O   UNL     1       8.668   1.172  23.324  0.00  0.00    -0.153 OA
ATOM     18  O   UNL     1      10.679   0.926  24.825  0.00  0.00    -0.153 OA
BRANCH  16  19
ATOM     19  N   UNL     1      10.466  -0.519  22.825  0.00  0.00    -0.203 NA
ATOM     20  H   UNL     1      10.883   0.120  22.146  0.00  0.00    +0.144 HD
ATOM     21  H   UNL     1      11.140  -1.144  23.269  0.00  0.00    +0.144 HD
ENDBRANCH  16  19
ENDBRANCH   1  16
TORSDOF 2
ENDMDL
MODEL 9
REMARK VINA RESULT:      -5.6      3.941      5.320
REMARK  Name = 
REMARK  2 active torsions:
REMARK  status: ('A' for Active; 'I' for Inactive)
REMARK    1  A    between atoms: N_1  and  S_2
REMARK    2  A    between atoms: S_2  and  C_5
REMARK                            x       y       z     vdW  Elec       q    Type
REMARK                         _______ _______ _______ _____ _____    ______ ____
ROOT
ATOM      1  C   UNL     1       3.992  -6.547  24.507  0.00  0.00    +0.125 A 
ATOM      2  C   UNL     1       4.604  -6.042  23.354  0.00  0.00    +0.060 A 
ATOM      3  C   UNL     1       5.787  -5.305  23.475  0.00  0.00    +0.128 A 
ATOM      4  C   UNL     1       6.386  -5.050  24.709  0.00  0.00    +0.056 A 
ATOM      5  N   UNL     1       7.505  -4.230  24.865  0.00  0.00    -0.328 N 
ATOM      6  H   UNL     1       8.008  -4.375  25.735  0.00  0.00    +0.147 HD
ATOM      7  C   UNL     1       8.373  -4.029  23.732  0.00  0.00    +0.209 C 
ATOM      8  N   UNL     1       7.606  -3.517  22.619  0.00  0.00    -0.173 NA
ATOM      9  H   UNL     1       8.205  -3.205  21.857  0.00  0.00    +0.150 HD
ATOM     10  C   UNL     1       5.730  -5.531  25.850  0.00  0.00    +0.047 A 
ATOM     11  S   UNL     1       6.544  -4.669  22.023  0.00  0.00    +0.062 S 
ATOM     12  O   UNL     1       7.354  -5.726  21.457  0.00  0.00    -0.153 OA
ATOM     13  O   UNL     1       5.549  -3.974  21.240  0.00  0.00    -0.153 OA
ATOM     14  C   UNL     1       4.552  -6.292  25.759  0.00  0.00    +0.069 A 
ATOM     15 CL   UNL     1       3.894  -6.870  27.250  0.00  0.00    -0.081 Cl
ENDROOT
BRANCH   1  16
ATOM     16  S   UNL     1       2.494  -7.464  24.333  0.00  0.00    +0.057 S 
ATOM     17  O   UNL     1       2.719  -8.831  24.730  0.00  0.00    -0.153 OA
ATOM     18  O   UNL     1       1.405  -6.684  24.873  0.00  0.00    -0.153 OA
BRANCH  16  19
ATOM     19  N   UNL     1       2.240  -7.459  22.674  0.00  0.00    -0.203 NA
ATOM     20  H   UNL     1       3.136  -7.439  22.184  0.00  0.00    +0.144 HD
ATOM     21  H   UNL     1       1.648  -8.250  22.415  0.00  0.00    +0.144 HD
ENDBRANCH  16  19
ENDBRANCH   1  16
TORSDOF 2
ENDMDL
