MODEL 1
REMARK VINA RESULT:      -5.2      0.000      0.000
REMARK  Name = 
REMARK  5 active torsions:
REMARK  status: ('A' for Active; 'I' for Inactive)
REMARK    1  A    between atoms: C_1  and  C_2
REMARK    2  A    between atoms: C_5  and  S_13
REMARK    3  A    between atoms: CA_8  and  C_10
REMARK    4  A    between atoms: C_10  and  O_11
REMARK    5  A    between atoms: S_13  and  O_14
REMARK                            x       y       z     vdW  Elec       q    Type
REMARK                         _______ _______ _______ _____ _____    ______ ____
ROOT
ATOM      1  C   UNL     1       6.364  -5.320  23.913  0.00  0.00    +0.010 C 
ATOM      2  C   UNL     1       6.803  -4.874  25.301  0.00  0.00    +0.017 C 
ATOM      3  CA  UNL     1       8.059  -5.589  25.790  0.00  0.00    +0.168 C 
ATOM      4  N   UNL     1       7.943  -5.698  27.284  0.00  0.00    -0.281 NA
ATOM      5  H   UNL     1       7.930  -6.702  27.512  0.00  0.00    +0.125 HD
ATOM      6  C   UNL     1       6.578  -5.173  27.654  0.00  0.00    +0.228 C 
ATOM      7  C   UNL     1       5.772  -5.200  26.366  0.00  0.00    +0.050 C 
ENDROOT
BRANCH   6   8
ATOM      8  S   UNL     1       5.653  -6.060  28.977  0.00  0.00    +0.096 S 
ATOM      9  O   UNL     1       4.267  -5.648  28.952  0.00  0.00    -0.146 OA
ATOM     10  O   UNL     1       6.422  -6.107  30.197  0.00  0.00    -0.146 OA
BRANCH   8  11
ATOM     11  O   UNL     1       5.694  -7.546  28.342  0.00  0.00    -0.253 OA
ATOM     12  H   UNL     1       6.192  -7.510  27.498  0.00  0.00    +0.245 HD
ENDBRANCH   8  11
ENDBRANCH   6   8
BRANCH   3  13
ATOM     13  C   UNL     1       9.325  -4.793  25.443  0.00  0.00    +0.322 C 
ATOM     14  OXT UNL     1       9.347  -3.607  25.152  0.00  0.00    -0.249 OA
BRANCH  13  15
ATOM     15  O   UNL     1      10.439  -5.566  25.510  0.00  0.00    -0.480 OA
ATOM     16  H   UNL     1      10.524  -6.003  24.626  0.00  0.00    +0.295 HD
ENDBRANCH  13  15
ENDBRANCH   3  13
TORSDOF 4
ENDMDL
MODEL 2
REMARK VINA RESULT:      -5.1      3.173      4.529
REMARK  Name = 
REMARK  5 active torsions:
REMARK  status: ('A' for Active; 'I' for Inactive)
REMARK    1  A    between atoms: C_1  and  C_2
REMARK    2  A    between atoms: C_5  and  S_13
REMARK    3  A    between atoms: CA_8  and  C_10
REMARK    4  A    between atoms: C_10  and  O_11
REMARK    5  A    between atoms: S_13  and  O_14
REMARK                            x       y       z     vdW  Elec       q    Type
REMARK                         _______ _______ _______ _____ _____    ______ ____
ROOT
ATOM      1  C   UNL     1       4.451  -6.665  24.044  0.00  0.00    +0.010 C 
ATOM      2  C   UNL     1       5.429  -5.509  23.884  0.00  0.00    +0.017 C 
ATOM      3  CA  UNL     1       6.444  -5.734  22.768  0.00  0.00    +0.168 C 
ATOM      4  N   UNL     1       7.709  -5.037  23.185  0.00  0.00    -0.281 NA
ATOM      5  H   UNL     1       8.438  -5.760  23.265  0.00  0.00    +0.125 HD
ATOM      6  C   UNL     1       7.482  -4.523  24.585  0.00  0.00    +0.228 C 
ATOM      7  C   UNL     1       6.293  -5.307  25.115  0.00  0.00    +0.050 C 
ENDROOT
BRANCH   6   8
ATOM      8  S   UNL     1       8.881  -4.647  25.776  0.00  0.00    +0.096 S 
ATOM      9  O   UNL     1       8.809  -3.549  26.716  0.00  0.00    -0.146 OA
ATOM     10  O   UNL     1      10.103  -5.000  25.095  0.00  0.00    -0.146 OA
BRANCH   8  11
ATOM     11  O   UNL     1       8.396  -5.962  26.579  0.00  0.00    -0.253 OA
ATOM     12  H   UNL     1       9.178  -6.531  26.745  0.00  0.00    +0.245 HD
ENDBRANCH   8  11
ENDBRANCH   6   8
BRANCH   3  13
ATOM     13  C   UNL     1       5.957  -5.134  21.441  0.00  0.00    +0.322 C 
ATOM     14  OXT UNL     1       5.980  -5.708  20.364  0.00  0.00    -0.249 OA
BRANCH  13  15
ATOM     15  O   UNL     1       5.478  -3.874  21.605  0.00  0.00    -0.480 OA
ATOM     16  H   UNL     1       4.914  -3.689  20.814  0.00  0.00    +0.295 HD
ENDBRANCH  13  15
ENDBRANCH   3  13
TORSDOF 4
ENDMDL
MODEL 3
REMARK VINA RESULT:      -5.1      1.838      4.739
REMARK  Name = 
REMARK  5 active torsions:
REMARK  status: ('A' for Active; 'I' for Inactive)
REMARK    1  A    between atoms: C_1  and  C_2
REMARK    2  A    between atoms: C_5  and  S_13
REMARK    3  A    between atoms: CA_8  and  C_10
REMARK    4  A    between atoms: C_10  and  O_11
REMARK    5  A    between atoms: S_13  and  O_14
REMARK                            x       y       z     vdW  Elec       q    Type
REMARK                         _______ _______ _______ _____ _____    ______ ____
ROOT
ATOM      1  C   UNL     1       4.171  -4.514  27.277  0.00  0.00    +0.010 C 
ATOM      2  C   UNL     1       5.360  -5.415  26.977  0.00  0.00    +0.017 C 
ATOM      3  CA  UNL     1       6.384  -5.451  28.109  0.00  0.00    +0.168 C 
ATOM      4  N   UNL     1       7.729  -5.654  27.471  0.00  0.00    -0.281 NA
ATOM      5  H   UNL     1       8.299  -4.828  27.701  0.00  0.00    +0.125 HD
ATOM      6  C   UNL     1       7.516  -5.606  25.979  0.00  0.00    +0.228 C 
ATOM      7  C   UNL     1       6.167  -4.933  25.785  0.00  0.00    +0.050 C 
ENDROOT
BRANCH   6   8
ATOM      8  S   UNL     1       8.785  -4.740  24.963  0.00  0.00    +0.096 S 
ATOM      9  O   UNL     1       9.087  -3.458  25.563  0.00  0.00    -0.146 OA
ATOM     10  O   UNL     1       8.500  -4.884  23.556  0.00  0.00    -0.146 OA
BRANCH   8  11
ATOM     11  O   UNL     1      10.045  -5.697  25.286  0.00  0.00    -0.253 OA
ATOM     12  H   UNL     1      10.123  -5.793  26.259  0.00  0.00    +0.245 HD
ENDBRANCH   8  11
ENDBRANCH   6   8
BRANCH   3  13
ATOM     13  C   UNL     1       6.108  -6.613  29.074  0.00  0.00    +0.322 C 
ATOM     14  OXT UNL     1       6.427  -6.634  30.253  0.00  0.00    -0.249 OA
BRANCH  13  15
ATOM     15  O   UNL     1       5.446  -7.628  28.462  0.00  0.00    -0.480 OA
ATOM     16  H   UNL     1       4.557  -7.270  28.217  0.00  0.00    +0.295 HD
ENDBRANCH  13  15
ENDBRANCH   3  13
TORSDOF 4
ENDMDL
MODEL 4
REMARK VINA RESULT:      -5.1      3.805      5.043
REMARK  Name = 
REMARK  5 active torsions:
REMARK  status: ('A' for Active; 'I' for Inactive)
REMARK    1  A    between atoms: C_1  and  C_2
REMARK    2  A    between atoms: C_5  and  S_13
REMARK    3  A    between atoms: CA_8  and  C_10
REMARK    4  A    between atoms: C_10  and  O_11
REMARK    5  A    between atoms: S_13  and  O_14
REMARK                            x       y       z     vdW  Elec       q    Type
REMARK                         _______ _______ _______ _____ _____    ______ ____
ROOT
ATOM      1  C   UNL     1       8.458  -1.653  24.803  0.00  0.00    +0.010 C 
ATOM      2  C   UNL     1       7.853  -3.048  24.735  0.00  0.00    +0.017 C 
ATOM      3  CA  UNL     1       8.885  -4.136  24.451  0.00  0.00    +0.168 C 
ATOM      4  N   UNL     1       8.182  -5.208  23.667  0.00  0.00    -0.281 NA
ATOM      5  H   UNL     1       8.652  -5.270  22.754  0.00  0.00    +0.125 HD
ATOM      6  C   UNL     1       6.791  -4.697  23.381  0.00  0.00    +0.228 C 
ATOM      7  C   UNL     1       6.861  -3.194  23.596  0.00  0.00    +0.050 C 
ENDROOT
BRANCH   6   8
ATOM      8  S   UNL     1       6.079  -5.048  21.720  0.00  0.00    +0.096 S 
ATOM      9  O   UNL     1       6.969  -5.928  20.992  0.00  0.00    -0.146 OA
ATOM     10  O   UNL     1       5.532  -3.848  21.133  0.00  0.00    -0.146 OA
BRANCH   8  11
ATOM     11  O   UNL     1       4.825  -5.956  22.182  0.00  0.00    -0.253 OA
ATOM     12  H   UNL     1       4.000  -5.534  21.861  0.00  0.00    +0.245 HD
ENDBRANCH   8  11
ENDBRANCH   6   8
BRANCH   3  13
ATOM     13  C   UNL     1       9.429  -4.743  25.752  0.00  0.00    +0.322 C 
ATOM     14  OXT UNL     1       9.018  -4.479  26.872  0.00  0.00    -0.249 OA
BRANCH  13  15
ATOM     15  O   UNL     1      10.428  -5.631  25.513  0.00  0.00    -0.480 OA
ATOM     16  H   UNL     1      10.110  -6.501  25.860  0.00  0.00    +0.295 HD
ENDBRANCH  13  15
ENDBRANCH   3  13
TORSDOF 4
ENDMDL
MODEL 5
REMARK VINA RESULT:      -5.1      4.806      5.532
REMARK  Name = 
REMARK  5 active torsions:
REMARK  status: ('A' for Active; 'I' for Inactive)
REMARK    1  A    between atoms: C_1  and  C_2
REMARK    2  A    between atoms: C_5  and  S_13
REMARK    3  A    between atoms: CA_8  and  C_10
REMARK    4  A    between atoms: C_10  and  O_11
REMARK    5  A    between atoms: S_13  and  O_14
REMARK                            x       y       z     vdW  Elec       q    Type
REMARK                         _______ _______ _______ _____ _____    ______ ____
ROOT
ATOM      1  C   UNL     1       8.622  -3.701  25.689  0.00  0.00    +0.010 C 
ATOM      2  C   UNL     1       8.656  -3.891  24.179  0.00  0.00    +0.017 C 
ATOM      3  CA  UNL     1       8.273  -2.630  23.408  0.00  0.00    +0.168 C 
ATOM      4  N   UNL     1       7.601  -3.083  22.142  0.00  0.00    -0.281 NA
ATOM      5  H   UNL     1       6.639  -2.717  22.165  0.00  0.00    +0.125 HD
ATOM      6  C   UNL     1       7.474  -4.584  22.229  0.00  0.00    +0.228 C 
ATOM      7  C   UNL     1       7.647  -4.919  23.702  0.00  0.00    +0.050 C 
ENDROOT
BRANCH   6   8
ATOM      8  S   UNL     1       5.917  -5.345  21.605  0.00  0.00    +0.096 S 
ATOM      9  O   UNL     1       5.971  -5.434  20.162  0.00  0.00    -0.146 OA
ATOM     10  O   UNL     1       4.771  -4.811  22.302  0.00  0.00    -0.146 OA
BRANCH   8  11
ATOM     11  O   UNL     1       6.144  -6.845  22.160  0.00  0.00    -0.253 OA
ATOM     12  H   UNL     1       5.267  -7.246  22.342  0.00  0.00    +0.245 HD
ENDBRANCH   8  11
ENDBRANCH   6   8
BRANCH   3  13
ATOM     13  C   UNL     1       9.511  -1.798  23.047  0.00  0.00    +0.322 C 
ATOM     14  OXT UNL     1      10.162  -1.134  23.838  0.00  0.00    -0.249 OA
BRANCH  13  15
ATOM     15  O   UNL     1       9.815  -1.896  21.727  0.00  0.00    -0.480 OA
ATOM     16  H   UNL     1      10.208  -2.795  21.601  0.00  0.00    +0.295 HD
ENDBRANCH  13  15
ENDBRANCH   3  13
TORSDOF 4
ENDMDL
MODEL 6
REMARK VINA RESULT:      -4.9      4.077      5.258
REMARK  Name = 
REMARK  5 active torsions:
REMARK  status: ('A' for Active; 'I' for Inactive)
REMARK    1  A    between atoms: C_1  and  C_2
REMARK    2  A    between atoms: C_5  and  S_13
REMARK    3  A    between atoms: CA_8  and  C_10
REMARK    4  A    between atoms: C_10  and  O_11
REMARK    5  A    between atoms: S_13  and  O_14
REMARK                            x       y       z     vdW  Elec       q    Type
REMARK                         _______ _______ _______ _____ _____    ______ ____
ROOT
ATOM      1  C   UNL     1       8.663   0.493  24.964  0.00  0.00    +0.010 C 
ATOM      2  C   UNL     1       9.291  -0.780  24.415  0.00  0.00    +0.017 C 
ATOM      3  CA  UNL     1       8.633  -1.264  23.126  0.00  0.00    +0.168 C 
ATOM      4  N   UNL     1       8.734  -2.763  23.123  0.00  0.00    -0.281 NA
ATOM      5  H   UNL     1       7.772  -3.129  23.121  0.00  0.00    +0.125 HD
ATOM      6  C   UNL     1       9.325  -3.163  24.452  0.00  0.00    +0.228 C 
ATOM      7  C   UNL     1       9.131  -1.958  25.359  0.00  0.00    +0.050 C 
ENDROOT
BRANCH   6   8
ATOM      8  S   UNL     1       8.642  -4.664  25.272  0.00  0.00    +0.096 S 
ATOM      9  O   UNL     1       7.417  -5.057  24.610  0.00  0.00    -0.146 OA
ATOM     10  O   UNL     1       8.742  -4.554  26.707  0.00  0.00    -0.146 OA
BRANCH   8  11
ATOM     11  O   UNL     1       9.767  -5.726  24.805  0.00  0.00    -0.253 OA
ATOM     12  H   UNL     1       9.334  -6.593  24.657  0.00  0.00    +0.245 HD
ENDBRANCH   8  11
ENDBRANCH   6   8
BRANCH   3  13
ATOM     13  C   UNL     1       9.356  -0.711  21.889  0.00  0.00    +0.322 C 
ATOM     14  OXT UNL     1       9.118   0.364  21.362  0.00  0.00    -0.249 OA
BRANCH  13  15
ATOM     15  O   UNL     1      10.315  -1.564  21.446  0.00  0.00    -0.480 OA
ATOM     16  H   UNL     1      10.433  -1.369  20.483  0.00  0.00    +0.295 HD
ENDBRANCH  13  15
ENDBRANCH   3  13
TORSDOF 4
ENDMDL
MODEL 7
REMARK VINA RESULT:      -4.9      3.590      5.836
REMARK  Name = 
REMARK  5 active torsions:
REMARK  status: ('A' for Active; 'I' for Inactive)
REMARK    1  A    between atoms: C_1  and  C_2
REMARK    2  A    between atoms: C_5  and  S_13
REMARK    3  A    between atoms: CA_8  and  C_10
REMARK    4  A    between atoms: C_10  and  O_11
REMARK    5  A    between atoms: S_13  and  O_14
REMARK                            x       y       z     vdW  Elec       q    Type
REMARK                         _______ _______ _______ _____ _____    ______ ____
ROOT
ATOM      1  C   UNL     1       6.325  -5.090  23.789  0.00  0.00    +0.010 C 
ATOM      2  C   UNL     1       7.721  -4.552  24.072  0.00  0.00    +0.017 C 
ATOM      3  CA  UNL     1       7.828  -3.846  25.420  0.00  0.00    +0.168 C 
ATOM      4  N   UNL     1       8.857  -2.762  25.263  0.00  0.00    -0.281 NA
ATOM      5  H   UNL     1       8.380  -1.866  25.434  0.00  0.00    +0.125 HD
ATOM      6  C   UNL     1       9.254  -2.746  23.807  0.00  0.00    +0.228 C 
ATOM      7  C   UNL     1       8.143  -3.485  23.078  0.00  0.00    +0.050 C 
ENDROOT
BRANCH   6   8
ATOM      8  S   UNL     1       9.523  -1.106  23.015  0.00  0.00    +0.096 S 
ATOM      9  O   UNL     1      10.487  -0.352  23.786  0.00  0.00    -0.146 OA
ATOM     10  O   UNL     1       8.270  -0.536  22.578  0.00  0.00    -0.146 OA
BRANCH   8  11
ATOM     11  O   UNL     1      10.297  -1.604  21.687  0.00  0.00    -0.253 OA
ATOM     12  H   UNL     1      10.657  -2.501  21.855  0.00  0.00    +0.245 HD
ENDBRANCH   8  11
ENDBRANCH   6   8
BRANCH   3  13
ATOM     13  C   UNL     1       8.285  -4.813  26.522  0.00  0.00    +0.322 C 
ATOM     14  OXT UNL     1       7.624  -5.119  27.502  0.00  0.00    -0.249 OA
BRANCH  13  15
ATOM     15  O   UNL     1       9.525  -5.307  26.274  0.00  0.00    -0.480 OA
ATOM     16  H   UNL     1      10.114  -4.522  26.149  0.00  0.00    +0.295 HD
ENDBRANCH  13  15
ENDBRANCH   3  13
TORSDOF 4
ENDMDL
MODEL 8
REMARK VINA RESULT:      -4.8      2.680      4.747
REMARK  Name = 
REMARK  5 active torsions:
REMARK  status: ('A' for Active; 'I' for Inactive)
REMARK    1  A    between atoms: C_1  and  C_2
REMARK    2  A    between atoms: C_5  and  S_13
REMARK    3  A    between atoms: CA_8  and  C_10
REMARK    4  A    between atoms: C_10  and  O_11
REMARK    5  A    between atoms: S_13  and  O_14
REMARK                            x       y       z     vdW  Elec       q    Type
REMARK                         _______ _______ _______ _____ _____    ______ ____
ROOT
ATOM      1  C   UNL     1       4.727  -4.162  22.936  0.00  0.00    +0.010 C 
ATOM      2  C   UNL     1       5.742  -5.104  23.566  0.00  0.00    +0.017 C 
ATOM      3  CA  UNL     1       5.416  -5.452  25.016  0.00  0.00    +0.168 C 
ATOM      4  N   UNL     1       6.728  -5.664  25.717  0.00  0.00    -0.281 NA
ATOM      5  H   UNL     1       6.789  -4.955  26.462  0.00  0.00    +0.125 HD
ATOM      6  C   UNL     1       7.812  -5.316  24.728  0.00  0.00    +0.228 C 
ATOM      7  C   UNL     1       7.127  -4.489  23.652  0.00  0.00    +0.050 C 
ENDROOT
BRANCH   6   8
ATOM      8  S   UNL     1       9.283  -4.405  25.359  0.00  0.00    +0.096 S 
ATOM      9  O   UNL     1       8.966  -3.812  26.641  0.00  0.00    -0.146 OA
ATOM     10  O   UNL     1       9.916  -3.658  24.299  0.00  0.00    -0.146 OA
BRANCH   8  11
ATOM     11  O   UNL     1      10.235  -5.673  25.671  0.00  0.00    -0.253 OA
ATOM     12  H   UNL     1      10.703  -5.922  24.845  0.00  0.00    +0.245 HD
ENDBRANCH   8  11
ENDBRANCH   6   8
BRANCH   3  13
ATOM     13  C   UNL     1       4.586  -6.741  25.107  0.00  0.00    +0.322 C 
ATOM     14  OXT UNL     1       3.964  -7.103  26.094  0.00  0.00    -0.249 OA
BRANCH  13  15
ATOM     15  O   UNL     1       4.613  -7.439  23.943  0.00  0.00    -0.480 OA
ATOM     16  H   UNL     1       4.310  -8.354  24.164  0.00  0.00    +0.295 HD
ENDBRANCH  13  15
ENDBRANCH   3  13
TORSDOF 4
ENDMDL
MODEL 9
REMARK VINA RESULT:      -4.7      4.560      5.960
REMARK  Name = 
REMARK  5 active torsions:
REMARK  status: ('A' for Active; 'I' for Inactive)
REMARK    1  A    between atoms: C_1  and  C_2
REMARK    2  A    between atoms: C_5  and  S_13
REMARK    3  A    between atoms: CA_8  and  C_10
REMARK    4  A    between atoms: C_10  and  O_11
REMARK    5  A    between atoms: S_13  and  O_14
REMARK                            x       y       z     vdW  Elec       q    Type
REMARK                         _______ _______ _______ _____ _____    ______ ____
ROOT
ATOM      1  C   UNL     1       4.565  -3.254  24.483  0.00  0.00    +0.010 C 
ATOM      2  C   UNL     1       5.638  -3.290  23.404  0.00  0.00    +0.017 C 
ATOM      3  CA  UNL     1       6.340  -4.641  23.304  0.00  0.00    +0.168 C 
ATOM      4  N   UNL     1       7.752  -4.365  22.868  0.00  0.00    -0.281 NA
ATOM      5  H   UNL     1       8.370  -4.701  23.620  0.00  0.00    +0.125 HD
ATOM      6  C   UNL     1       7.914  -2.866  22.840  0.00  0.00    +0.228 C 
ATOM      7  C   UNL     1       6.772  -2.320  23.681  0.00  0.00    +0.050 C 
ENDROOT
BRANCH   6   8
ATOM      8  S   UNL     1       9.508  -2.169  23.444  0.00  0.00    +0.096 S 
ATOM      9  O   UNL     1       9.247  -1.220  24.504  0.00  0.00    -0.146 OA
ATOM     10  O   UNL     1      10.386  -1.867  22.339  0.00  0.00    -0.146 OA
BRANCH   8  11
ATOM     11  O   UNL     1      10.095  -3.494  24.158  0.00  0.00    -0.253 OA
ATOM     12  H   UNL     1      10.866  -3.811  23.641  0.00  0.00    +0.245 HD
ENDBRANCH   8  11
ENDBRANCH   6   8
BRANCH   3  13
ATOM     13  C   UNL     1       5.664  -5.547  22.265  0.00  0.00    +0.322 C 
ATOM     14  OXT UNL     1       5.721  -5.387  21.056  0.00  0.00    -0.249 OA
BRANCH  13  15
ATOM     15  O   UNL     1       4.993  -6.571  22.852  0.00  0.00    -0.480 OA
ATOM     16  H   UNL     1       4.263  -6.814  22.230  0.00  0.00    +0.295 HD
ENDBRANCH  13  15
ENDBRANCH   3  13
TORSDOF 4
ENDMDL
