MODEL 1
REMARK VINA RESULT:      -7.2      0.000      0.000
REMARK  Name = 
REMARK  4 active torsions:
REMARK  status: ('A' for Active; 'I' for Inactive)
REMARK    1  A    between atoms: C_6  and  N_7
REMARK    2  A    between atoms: C_10  and  O_11
REMARK    3  A    between atoms: O_11  and  C_12
REMARK    4  A    between atoms: C_12  and  C_13
REMARK                            x       y       z     vdW  Elec       q    Type
REMARK                         _______ _______ _______ _____ _____    ______ ____
ROOT
ATOM      1  N   UNL     1       9.958   1.633  22.852  0.00  0.00    -0.283 N 
ATOM      2  H   UNL     1      10.056   1.389  21.879  0.00  0.00    +0.155 HD
ATOM      3  C   UNL     1       9.635   0.494  23.595  0.00  0.00    +0.225 A 
ATOM      4  N   UNL     1       9.372   0.603  24.900  0.00  0.00    -0.193 NA
ATOM      5  C   UNL     1       9.038  -0.536  25.513  0.00  0.00    +0.186 A 
ATOM      6  C   UNL     1       8.973  -1.745  24.863  0.00  0.00    +0.147 A 
ATOM      7  N   UNL     1       8.598  -2.640  25.823  0.00  0.00    -0.339 N 
ATOM      8  H   UNL     1       8.457  -3.634  25.690  0.00  0.00    +0.167 HD
ATOM      9  C   UNL     1       8.459  -1.946  26.995  0.00  0.00    +0.199 A 
ATOM     10  C   UNL     1       9.278  -1.810  23.532  0.00  0.00    +0.246 A 
ATOM     11  N   UNL     1       8.720  -0.668  26.836  0.00  0.00    -0.216 NA
ATOM     12  N   UNL     1       9.607  -0.665  22.896  0.00  0.00    -0.177 NA
ENDROOT
BRANCH   1  16
ATOM     13 CL   UNL     1      12.691   5.906  23.876  0.00  0.00    -0.083 Cl
ATOM     14  C   UNL     1      11.199   5.071  23.672  0.00  0.00    +0.043 A 
ATOM     15  C   UNL     1      11.205   3.714  23.343  0.00  0.00    +0.043 A 
ATOM     16  C   UNL     1      10.010   2.997  23.185  0.00  0.00    +0.035 A 
ATOM     17  C   UNL     1       8.807   3.707  23.345  0.00  0.00    +0.023 A 
ATOM     18  C   UNL     1       8.800   5.070  23.669  0.00  0.00    +0.003 A 
ATOM     19  C   UNL     1      10.001   5.753  23.838  0.00  0.00    +0.020 A 
ENDBRANCH   1  16
BRANCH  10  20
ATOM     20  O   UNL     1       9.197  -3.009  22.859  0.00  0.00    -0.475 OA
BRANCH  20  21
ATOM     21  C   UNL     1       7.840  -3.416  22.665  0.00  0.00    +0.234 C 
BRANCH  21  22
ATOM     22  C   UNL     1       7.661  -4.850  23.202  0.00  0.00    +0.027 C 
ATOM     23  C   UNL     1       7.410  -5.885  22.091  0.00  0.00    +0.007 C 
ATOM     24  C   UNL     1       6.039  -5.726  21.435  0.00  0.00    +0.000 C 
ATOM     25  C   UNL     1       4.907  -5.710  22.460  0.00  0.00    +0.000 C 
ATOM     26  C   UNL     1       5.151  -4.720  23.597  0.00  0.00    +0.000 C 
ATOM     27  C   UNL     1       6.525  -4.916  24.234  0.00  0.00    +0.007 C 
ENDBRANCH  21  22
ENDBRANCH  20  21
ENDBRANCH  10  20
TORSDOF 4
ENDMDL
MODEL 2
REMARK VINA RESULT:      -7.2      4.531      8.688
REMARK  Name = 
REMARK  4 active torsions:
REMARK  status: ('A' for Active; 'I' for Inactive)
REMARK    1  A    between atoms: C_6  and  N_7
REMARK    2  A    between atoms: C_10  and  O_11
REMARK    3  A    between atoms: O_11  and  C_12
REMARK    4  A    between atoms: C_12  and  C_13
REMARK                            x       y       z     vdW  Elec       q    Type
REMARK                         _______ _______ _______ _____ _____    ______ ____
ROOT
ATOM      1  N   UNL     1       4.440  -4.102  23.142  0.00  0.00    -0.283 N 
ATOM      2  H   UNL     1       4.291  -3.576  22.294  0.00  0.00    +0.155 HD
ATOM      3  C   UNL     1       5.785  -4.029  23.513  0.00  0.00    +0.225 A 
ATOM      4  N   UNL     1       6.225  -4.727  24.564  0.00  0.00    -0.193 NA
ATOM      5  C   UNL     1       7.532  -4.620  24.816  0.00  0.00    +0.186 A 
ATOM      6  C   UNL     1       8.378  -3.843  24.063  0.00  0.00    +0.147 A 
ATOM      7  N   UNL     1       9.608  -4.007  24.633  0.00  0.00    -0.339 N 
ATOM      8  H   UNL     1      10.470  -3.572  24.330  0.00  0.00    +0.167 HD
ATOM      9  C   UNL     1       9.454  -4.859  25.693  0.00  0.00    +0.199 A 
ATOM     10  C   UNL     1       7.877  -3.124  23.014  0.00  0.00    +0.246 A 
ATOM     11  N   UNL     1       8.205  -5.246  25.828  0.00  0.00    -0.216 NA
ATOM     12  N   UNL     1       6.558  -3.231  22.739  0.00  0.00    -0.177 NA
ENDROOT
BRANCH   1  16
ATOM     13 CL   UNL     1       1.470  -8.333  22.922  0.00  0.00    -0.083 Cl
ATOM     14  C   UNL     1       1.909  -6.822  23.620  0.00  0.00    +0.043 A 
ATOM     15  C   UNL     1       2.986  -6.105  23.097  0.00  0.00    +0.043 A 
ATOM     16  C   UNL     1       3.363  -4.863  23.628  0.00  0.00    +0.035 A 
ATOM     17  C   UNL     1       2.629  -4.383  24.726  0.00  0.00    +0.023 A 
ATOM     18  C   UNL     1       1.551  -5.104  25.256  0.00  0.00    +0.003 A 
ATOM     19  C   UNL     1       1.187  -6.325  24.698  0.00  0.00    +0.020 A 
ENDBRANCH   1  16
BRANCH  10  20
ATOM     20  O   UNL     1       8.714  -2.357  22.233  0.00  0.00    -0.475 OA
BRANCH  20  21
ATOM     21  C   UNL     1       8.533  -0.960  22.478  0.00  0.00    +0.234 C 
BRANCH  21  22
ATOM     22  C   UNL     1       9.909  -0.263  22.465  0.00  0.00    +0.027 C 
ATOM     23  C   UNL     1      10.549  -0.163  23.861  0.00  0.00    +0.007 C 
ATOM     24  C   UNL     1       9.818   0.816  24.778  0.00  0.00    +0.000 C 
ATOM     25  C   UNL     1       9.647   2.191  24.134  0.00  0.00    +0.000 C 
ATOM     26  C   UNL     1       9.049   2.117  22.730  0.00  0.00    +0.000 C 
ATOM     27  C   UNL     1       9.812   1.136  21.840  0.00  0.00    +0.007 C 
ENDBRANCH  21  22
ENDBRANCH  20  21
ENDBRANCH  10  20
TORSDOF 4
ENDMDL
MODEL 3
REMARK VINA RESULT:      -7.0      1.142      1.656
REMARK  Name = 
REMARK  4 active torsions:
REMARK  status: ('A' for Active; 'I' for Inactive)
REMARK    1  A    between atoms: C_6  and  N_7
REMARK    2  A    between atoms: C_10  and  O_11
REMARK    3  A    between atoms: O_11  and  C_12
REMARK    4  A    between atoms: C_12  and  C_13
REMARK                            x       y       z     vdW  Elec       q    Type
REMARK                         _______ _______ _______ _____ _____    ______ ____
ROOT
ATOM      1  N   UNL     1      10.167   2.052  22.843  0.00  0.00    -0.283 N 
ATOM      2  H   UNL     1      10.177   1.870  21.852  0.00  0.00    +0.155 HD
ATOM      3  C   UNL     1       9.781   0.898  23.531  0.00  0.00    +0.225 A 
ATOM      4  N   UNL     1       9.615   0.936  24.856  0.00  0.00    -0.193 NA
ATOM      5  C   UNL     1       9.210  -0.207  25.416  0.00  0.00    +0.186 A 
ATOM      6  C   UNL     1       8.984  -1.354  24.695  0.00  0.00    +0.147 A 
ATOM      7  N   UNL     1       8.585  -2.277  25.618  0.00  0.00    -0.339 N 
ATOM      8  H   UNL     1       8.338  -3.241  25.431  0.00  0.00    +0.167 HD
ATOM      9  C   UNL     1       8.592  -1.659  26.840  0.00  0.00    +0.199 A 
ATOM     10  C   UNL     1       9.195  -1.353  23.344  0.00  0.00    +0.246 A 
ATOM     11  N   UNL     1       8.967  -0.403  26.747  0.00  0.00    -0.216 NA
ATOM     12  N   UNL     1       9.593  -0.201  22.762  0.00  0.00    -0.177 NA
ENDROOT
BRANCH   1  16
ATOM     13 CL   UNL     1       8.321   6.524  24.678  0.00  0.00    -0.083 Cl
ATOM     14  C   UNL     1       9.612   5.525  24.132  0.00  0.00    +0.043 A 
ATOM     15  C   UNL     1       9.350   4.215  23.727  0.00  0.00    +0.043 A 
ATOM     16  C   UNL     1      10.374   3.377  23.260  0.00  0.00    +0.035 A 
ATOM     17  C   UNL     1      11.678   3.902  23.244  0.00  0.00    +0.023 A 
ATOM     18  C   UNL     1      11.943   5.215  23.656  0.00  0.00    +0.003 A 
ATOM     19  C   UNL     1      10.906   6.031  24.097  0.00  0.00    +0.020 A 
ENDBRANCH   1  16
BRANCH  10  20
ATOM     20  O   UNL     1       8.952  -2.487  22.601  0.00  0.00    -0.475 OA
BRANCH  20  21
ATOM     21  C   UNL     1       7.552  -2.744  22.472  0.00  0.00    +0.234 C 
BRANCH  21  22
ATOM     22  C   UNL     1       7.338  -4.245  22.189  0.00  0.00    +0.027 C 
ATOM     23  C   UNL     1       5.902  -4.578  21.744  0.00  0.00    +0.007 C 
ATOM     24  C   UNL     1       4.883  -4.422  22.872  0.00  0.00    +0.000 C 
ATOM     25  C   UNL     1       5.284  -5.202  24.123  0.00  0.00    +0.000 C 
ATOM     26  C   UNL     1       6.719  -4.920  24.563  0.00  0.00    +0.000 C 
ATOM     27  C   UNL     1       7.709  -5.095  23.412  0.00  0.00    +0.007 C 
ENDBRANCH  21  22
ENDBRANCH  20  21
ENDBRANCH  10  20
TORSDOF 4
ENDMDL
MODEL 4
REMARK VINA RESULT:      -7.0      2.415      3.641
REMARK  Name = 
REMARK  4 active torsions:
REMARK  status: ('A' for Active; 'I' for Inactive)
REMARK    1  A    between atoms: C_6  and  N_7
REMARK    2  A    between atoms: C_10  and  O_11
REMARK    3  A    between atoms: O_11  and  C_12
REMARK    4  A    between atoms: C_12  and  C_13
REMARK                            x       y       z     vdW  Elec       q    Type
REMARK                         _______ _______ _______ _____ _____    ______ ____
ROOT
ATOM      1  N   UNL     1       7.637  -0.355  22.526  0.00  0.00    -0.283 N 
ATOM      2  H   UNL     1       6.764  -0.211  22.042  0.00  0.00    +0.155 HD
ATOM      3  C   UNL     1       7.749  -1.694  22.911  0.00  0.00    +0.225 A 
ATOM      4  N   UNL     1       8.792  -2.091  23.644  0.00  0.00    -0.193 NA
ATOM      5  C   UNL     1       8.790  -3.381  23.991  0.00  0.00    +0.186 A 
ATOM      6  C   UNL     1       7.796  -4.254  23.622  0.00  0.00    +0.147 A 
ATOM      7  N   UNL     1       8.156  -5.450  24.172  0.00  0.00    -0.339 N 
ATOM      8  H   UNL     1       7.645  -6.321  24.095  0.00  0.00    +0.167 HD
ATOM      9  C   UNL     1       9.336  -5.253  24.837  0.00  0.00    +0.199 A 
ATOM     10  C   UNL     1       6.762  -3.807  22.847  0.00  0.00    +0.246 A 
ATOM     11  N   UNL     1       9.744  -4.007  24.744  0.00  0.00    -0.216 NA
ATOM     12  N   UNL     1       6.744  -2.502  22.497  0.00  0.00    -0.177 NA
ENDROOT
BRANCH   1  16
ATOM     13 CL   UNL     1       8.465   3.914  25.329  0.00  0.00    -0.083 Cl
ATOM     14  C   UNL     1       8.901   2.808  24.084  0.00  0.00    +0.043 A 
ATOM     15  C   UNL     1       8.096   1.695  23.834  0.00  0.00    +0.043 A 
ATOM     16  C   UNL     1       8.410   0.782  22.817  0.00  0.00    +0.035 A 
ATOM     17  C   UNL     1       9.583   1.018  22.080  0.00  0.00    +0.023 A 
ATOM     18  C   UNL     1      10.394   2.131  22.334  0.00  0.00    +0.003 A 
ATOM     19  C   UNL     1      10.049   3.032  23.336  0.00  0.00    +0.020 A 
ENDBRANCH   1  16
BRANCH  10  20
ATOM     20  O   UNL     1       5.744  -4.662  22.485  0.00  0.00    -0.475 OA
BRANCH  20  21
ATOM     21  C   UNL     1       4.526  -4.352  23.167  0.00  0.00    +0.234 C 
BRANCH  21  22
ATOM     22  C   UNL     1       3.737  -5.655  23.407  0.00  0.00    +0.027 C 
ATOM     23  C   UNL     1       2.456  -5.442  24.234  0.00  0.00    +0.007 C 
ATOM     24  C   UNL     1       2.746  -5.091  25.692  0.00  0.00    +0.000 C 
ATOM     25  C   UNL     1       3.685  -6.099  26.353  0.00  0.00    +0.000 C 
ATOM     26  C   UNL     1       4.947  -6.359  25.532  0.00  0.00    +0.000 C 
ATOM     27  C   UNL     1       4.617  -6.716  24.084  0.00  0.00    +0.007 C 
ENDBRANCH  21  22
ENDBRANCH  20  21
ENDBRANCH  10  20
TORSDOF 4
ENDMDL
MODEL 5
REMARK VINA RESULT:      -6.9      4.416      8.539
REMARK  Name = 
REMARK  4 active torsions:
REMARK  status: ('A' for Active; 'I' for Inactive)
REMARK    1  A    between atoms: C_6  and  N_7
REMARK    2  A    between atoms: C_10  and  O_11
REMARK    3  A    between atoms: O_11  and  C_12
REMARK    4  A    between atoms: C_12  and  C_13
REMARK                            x       y       z     vdW  Elec       q    Type
REMARK                         _______ _______ _______ _____ _____    ______ ____
ROOT
ATOM      1  N   UNL     1       6.840  -4.090  26.920  0.00  0.00    -0.283 N 
ATOM      2  H   UNL     1       7.366  -3.279  27.206  0.00  0.00    +0.155 HD
ATOM      3  C   UNL     1       6.958  -4.267  25.539  0.00  0.00    +0.225 A 
ATOM      4  N   UNL     1       6.268  -5.236  24.930  0.00  0.00    -0.193 NA
ATOM      5  C   UNL     1       6.420  -5.301  23.605  0.00  0.00    +0.186 A 
ATOM      6  C   UNL     1       7.232  -4.445  22.902  0.00  0.00    +0.147 A 
ATOM      7  N   UNL     1       7.107  -4.833  21.598  0.00  0.00    -0.339 N 
ATOM      8  H   UNL     1       7.575  -4.415  20.804  0.00  0.00    +0.167 HD
ATOM      9  C   UNL     1       6.243  -5.894  21.571  0.00  0.00    +0.199 A 
ATOM     10  C   UNL     1       7.940  -3.487  23.572  0.00  0.00    +0.246 A 
ATOM     11  N   UNL     1       5.810  -6.200  22.774  0.00  0.00    -0.216 NA
ATOM     12  N   UNL     1       7.788  -3.401  24.912  0.00  0.00    -0.177 NA
ENDROOT
BRANCH   1  16
ATOM     13 CL   UNL     1       2.552  -4.192  29.814  0.00  0.00    -0.083 Cl
ATOM     14  C   UNL     1       4.047  -4.868  29.292  0.00  0.00    +0.043 A 
ATOM     15  C   UNL     1       4.807  -4.204  28.327  0.00  0.00    +0.043 A 
ATOM     16  C   UNL     1       6.037  -4.715  27.890  0.00  0.00    +0.035 A 
ATOM     17  C   UNL     1       6.461  -5.936  28.443  0.00  0.00    +0.023 A 
ATOM     18  C   UNL     1       5.697  -6.605  29.407  0.00  0.00    +0.003 A 
ATOM     19  C   UNL     1       4.488  -6.067  29.837  0.00  0.00    +0.020 A 
ENDBRANCH   1  16
BRANCH  10  20
ATOM     20  O   UNL     1       8.742  -2.604  22.882  0.00  0.00    -0.475 OA
BRANCH  20  21
ATOM     21  C   UNL     1       8.969  -1.404  23.624  0.00  0.00    +0.234 C 
BRANCH  21  22
ATOM     22  C   UNL     1      10.167  -0.650  23.012  0.00  0.00    +0.027 C 
ATOM     23  C   UNL     1      10.684   0.491  23.906  0.00  0.00    +0.007 C 
ATOM     24  C   UNL     1       9.709   1.664  23.989  0.00  0.00    +0.000 C 
ATOM     25  C   UNL     1       9.295   2.170  22.608  0.00  0.00    +0.000 C 
ATOM     26  C   UNL     1       8.816   1.050  21.686  0.00  0.00    +0.000 C 
ATOM     27  C   UNL     1       9.820  -0.100  21.621  0.00  0.00    +0.007 C 
ENDBRANCH  21  22
ENDBRANCH  20  21
ENDBRANCH  10  20
TORSDOF 4
ENDMDL
MODEL 6
REMARK VINA RESULT:      -6.8      3.569      5.358
REMARK  Name = 
REMARK  4 active torsions:
REMARK  status: ('A' for Active; 'I' for Inactive)
REMARK    1  A    between atoms: C_6  and  N_7
REMARK    2  A    between atoms: C_10  and  O_11
REMARK    3  A    between atoms: O_11  and  C_12
REMARK    4  A    between atoms: C_12  and  C_13
REMARK                            x       y       z     vdW  Elec       q    Type
REMARK                         _______ _______ _______ _____ _____    ______ ____
ROOT
ATOM      1  N   UNL     1       7.729  -1.493  23.958  0.00  0.00    -0.283 N 
ATOM      2  H   UNL     1       8.000  -1.473  24.929  0.00  0.00    +0.155 HD
ATOM      3  C   UNL     1       7.255  -2.766  23.625  0.00  0.00    +0.225 A 
ATOM      4  N   UNL     1       6.921  -3.043  22.363  0.00  0.00    -0.193 NA
ATOM      5  C   UNL     1       6.515  -4.296  22.140  0.00  0.00    +0.186 A 
ATOM      6  C   UNL     1       6.433  -5.244  23.131  0.00  0.00    +0.147 A 
ATOM      7  N   UNL     1       5.991  -6.373  22.503  0.00  0.00    -0.339 N 
ATOM      8  H   UNL     1       5.815  -7.268  22.940  0.00  0.00    +0.167 HD
ATOM      9  C   UNL     1       5.823  -6.063  21.180  0.00  0.00    +0.199 A 
ATOM     10  C   UNL     1       6.760  -4.904  24.415  0.00  0.00    +0.246 A 
ATOM     11  N   UNL     1       6.133  -4.809  20.932  0.00  0.00    -0.216 NA
ATOM     12  N   UNL     1       7.183  -3.644  24.654  0.00  0.00    -0.177 NA
ENDROOT
BRANCH   1  16
ATOM     13 CL   UNL     1       6.369   3.133  22.081  0.00  0.00    -0.083 Cl
ATOM     14  C   UNL     1       7.484   1.832  22.251  0.00  0.00    +0.043 A 
ATOM     15  C   UNL     1       7.144   0.727  23.033  0.00  0.00    +0.043 A 
ATOM     16  C   UNL     1       8.019  -0.359  23.181  0.00  0.00    +0.035 A 
ATOM     17  C   UNL     1       9.263  -0.276  22.532  0.00  0.00    +0.023 A 
ATOM     18  C   UNL     1       9.608   0.835  21.752  0.00  0.00    +0.003 A 
ATOM     19  C   UNL     1       8.713   1.890  21.606  0.00  0.00    +0.020 A 
ENDBRANCH   1  16
BRANCH  10  20
ATOM     20  O   UNL     1       6.705  -5.847  25.418  0.00  0.00    -0.475 OA
BRANCH  20  21
ATOM     21  C   UNL     1       5.372  -6.028  25.901  0.00  0.00    +0.234 C 
BRANCH  21  22
ATOM     22  C   UNL     1       5.408  -6.181  27.436  0.00  0.00    +0.027 C 
ATOM     23  C   UNL     1       4.048  -6.579  28.035  0.00  0.00    +0.007 C 
ATOM     24  C   UNL     1       3.014  -5.457  27.953  0.00  0.00    +0.000 C 
ATOM     25  C   UNL     1       3.534  -4.149  28.547  0.00  0.00    +0.000 C 
ATOM     26  C   UNL     1       4.902  -3.752  27.998  0.00  0.00    +0.000 C 
ATOM     27  C   UNL     1       5.910  -4.894  28.107  0.00  0.00    +0.007 C 
ENDBRANCH  21  22
ENDBRANCH  20  21
ENDBRANCH  10  20
TORSDOF 4
ENDMDL
MODEL 7
REMARK VINA RESULT:      -6.8      3.665      8.345
REMARK  Name = 
REMARK  4 active torsions:
REMARK  status: ('A' for Active; 'I' for Inactive)
REMARK    1  A    between atoms: C_6  and  N_7
REMARK    2  A    between atoms: C_10  and  O_11
REMARK    3  A    between atoms: O_11  and  C_12
REMARK    4  A    between atoms: C_12  and  C_13
REMARK                            x       y       z     vdW  Elec       q    Type
REMARK                         _______ _______ _______ _____ _____    ______ ____
ROOT
ATOM      1  N   UNL     1       6.084  -1.439  22.772  0.00  0.00    -0.283 N 
ATOM      2  H   UNL     1       5.431  -0.994  22.145  0.00  0.00    +0.155 HD
ATOM      3  C   UNL     1       7.156  -0.579  23.027  0.00  0.00    +0.225 A 
ATOM      4  N   UNL     1       8.185  -0.999  23.766  0.00  0.00    -0.193 NA
ATOM      5  C   UNL     1       9.176  -0.117  23.922  0.00  0.00    +0.186 A 
ATOM      6  C   UNL     1       9.150   1.142  23.373  0.00  0.00    +0.147 A 
ATOM      7  N   UNL     1      10.329   1.716  23.754  0.00  0.00    -0.339 N 
ATOM      8  H   UNL     1      10.639   2.651  23.524  0.00  0.00    +0.167 HD
ATOM      9  C   UNL     1      11.005   0.795  24.508  0.00  0.00    +0.199 A 
ATOM     10  C   UNL     1       8.062   1.537  22.646  0.00  0.00    +0.246 A 
ATOM     11  N   UNL     1      10.329  -0.326  24.627  0.00  0.00    -0.216 NA
ATOM     12  N   UNL     1       7.057   0.651  22.470  0.00  0.00    -0.177 NA
ENDROOT
BRANCH   1  16
ATOM     13 CL   UNL     1       6.908  -6.470  21.884  0.00  0.00    -0.083 Cl
ATOM     14  C   UNL     1       6.182  -5.184  22.769  0.00  0.00    +0.043 A 
ATOM     15  C   UNL     1       6.441  -3.861  22.406  0.00  0.00    +0.043 A 
ATOM     16  C   UNL     1       5.855  -2.788  23.093  0.00  0.00    +0.035 A 
ATOM     17  C   UNL     1       5.018  -3.099  24.178  0.00  0.00    +0.023 A 
ATOM     18  C   UNL     1       4.762  -4.426  24.547  0.00  0.00    +0.003 A 
ATOM     19  C   UNL     1       5.342  -5.472  23.837  0.00  0.00    +0.020 A 
ENDBRANCH   1  16
BRANCH  10  20
ATOM     20  O   UNL     1       8.027   2.787  22.069  0.00  0.00    -0.475 OA
BRANCH  20  21
ATOM     21  C   UNL     1       6.745   3.402  22.215  0.00  0.00    +0.234 C 
BRANCH  21  22
ATOM     22  C   UNL     1       6.768   4.334  23.443  0.00  0.00    +0.027 C 
ATOM     23  C   UNL     1       5.446   5.094  23.651  0.00  0.00    +0.007 C 
ATOM     24  C   UNL     1       5.199   6.153  22.577  0.00  0.00    +0.000 C 
ATOM     25  C   UNL     1       6.382   7.108  22.425  0.00  0.00    +0.000 C 
ATOM     26  C   UNL     1       7.713   6.378  22.258  0.00  0.00    +0.000 C 
ATOM     27  C   UNL     1       7.930   5.335  23.353  0.00  0.00    +0.007 C 
ENDBRANCH  21  22
ENDBRANCH  20  21
ENDBRANCH  10  20
TORSDOF 4
ENDMDL
MODEL 8
REMARK VINA RESULT:      -6.7      2.705      3.128
REMARK  Name = 
REMARK  4 active torsions:
REMARK  status: ('A' for Active; 'I' for Inactive)
REMARK    1  A    between atoms: C_6  and  N_7
REMARK    2  A    between atoms: C_10  and  O_11
REMARK    3  A    between atoms: O_11  and  C_12
REMARK    4  A    between atoms: C_12  and  C_13
REMARK                            x       y       z     vdW  Elec       q    Type
REMARK                         _______ _______ _______ _____ _____    ______ ____
ROOT
ATOM      1  N   UNL     1       7.120   1.831  22.136  0.00  0.00    -0.283 N 
ATOM      2  H   UNL     1       7.124   1.453  21.202  0.00  0.00    +0.155 HD
ATOM      3  C   UNL     1       7.547   0.856  23.043  0.00  0.00    +0.225 A 
ATOM      4  N   UNL     1       7.536   1.115  24.353  0.00  0.00    -0.193 NA
ATOM      5  C   UNL     1       7.927   0.107  25.138  0.00  0.00    +0.186 A 
ATOM      6  C   UNL     1       8.323  -1.113  24.648  0.00  0.00    +0.147 A 
ATOM      7  N   UNL     1       8.632  -1.853  25.754  0.00  0.00    -0.339 N 
ATOM      8  H   UNL     1       8.964  -2.809  25.758  0.00  0.00    +0.167 HD
ATOM      9  C   UNL     1       8.416  -1.058  26.847  0.00  0.00    +0.199 A 
ATOM     10  C   UNL     1       8.344  -1.321  23.297  0.00  0.00    +0.246 A 
ATOM     11  N   UNL     1       7.989   0.136  26.504  0.00  0.00    -0.216 NA
ATOM     12  N   UNL     1       7.941  -0.316  22.490  0.00  0.00    -0.177 NA
ENDROOT
BRANCH   1  16
ATOM     13 CL   UNL     1       3.040   4.891  23.008  0.00  0.00    -0.083 Cl
ATOM     14  C   UNL     1       4.721   4.646  22.730  0.00  0.00    +0.043 A 
ATOM     15  C   UNL     1       5.213   3.351  22.559  0.00  0.00    +0.043 A 
ATOM     16  C   UNL     1       6.573   3.113  22.313  0.00  0.00    +0.035 A 
ATOM     17  C   UNL     1       7.424   4.231  22.275  0.00  0.00    +0.023 A 
ATOM     18  C   UNL     1       6.933   5.531  22.453  0.00  0.00    +0.003 A 
ATOM     19  C   UNL     1       5.576   5.739  22.676  0.00  0.00    +0.020 A 
ENDBRANCH   1  16
BRANCH  10  20
ATOM     20  O   UNL     1       8.717  -2.546  22.788  0.00  0.00    -0.475 OA
BRANCH  20  21
ATOM     21  C   UNL     1       7.585  -3.308  22.362  0.00  0.00    +0.234 C 
BRANCH  21  22
ATOM     22  C   UNL     1       7.591  -4.670  23.085  0.00  0.00    +0.027 C 
ATOM     23  C   UNL     1       7.315  -5.856  22.143  0.00  0.00    +0.007 C 
ATOM     24  C   UNL     1       5.873  -5.885  21.638  0.00  0.00    +0.000 C 
ATOM     25  C   UNL     1       4.860  -5.820  22.780  0.00  0.00    +0.000 C 
ATOM     26  C   UNL     1       5.136  -4.675  23.752  0.00  0.00    +0.000 C 
ATOM     27  C   UNL     1       6.583  -4.685  24.243  0.00  0.00    +0.007 C 
ENDBRANCH  21  22
ENDBRANCH  20  21
ENDBRANCH  10  20
TORSDOF 4
ENDMDL
MODEL 9
REMARK VINA RESULT:      -6.5      5.082      8.982
REMARK  Name = 
REMARK  4 active torsions:
REMARK  status: ('A' for Active; 'I' for Inactive)
REMARK    1  A    between atoms: C_6  and  N_7
REMARK    2  A    between atoms: C_10  and  O_11
REMARK    3  A    between atoms: O_11  and  C_12
REMARK    4  A    between atoms: C_12  and  C_13
REMARK                            x       y       z     vdW  Elec       q    Type
REMARK                         _______ _______ _______ _____ _____    ______ ____
ROOT
ATOM      1  N   UNL     1       5.478  -5.215  26.933  0.00  0.00    -0.283 N 
ATOM      2  H   UNL     1       6.200  -4.878  27.552  0.00  0.00    +0.155 HD
ATOM      3  C   UNL     1       5.964  -5.262  25.623  0.00  0.00    +0.225 A 
ATOM      4  N   UNL     1       5.147  -5.598  24.622  0.00  0.00    -0.193 NA
ATOM      5  C   UNL     1       5.696  -5.579  23.404  0.00  0.00    +0.186 A 
ATOM      6  C   UNL     1       7.011  -5.248  23.181  0.00  0.00    +0.147 A 
ATOM      7  N   UNL     1       7.172  -5.342  21.828  0.00  0.00    -0.339 N 
ATOM      8  H   UNL     1       8.027  -5.167  21.316  0.00  0.00    +0.167 HD
ATOM      9  C   UNL     1       5.968  -5.724  21.301  0.00  0.00    +0.199 A 
ATOM     10  C   UNL     1       7.816  -4.939  24.242  0.00  0.00    +0.246 A 
ATOM     11  N   UNL     1       5.054  -5.875  22.234  0.00  0.00    -0.216 NA
ATOM     12  N   UNL     1       7.272  -4.942  25.478  0.00  0.00    -0.177 NA
ENDROOT
BRANCH   1  16
ATOM     13 CL   UNL     1       2.038  -8.128  29.473  0.00  0.00    -0.083 Cl
ATOM     14  C   UNL     1       2.498  -6.677  28.669  0.00  0.00    +0.043 A 
ATOM     15  C   UNL     1       3.788  -6.553  28.149  0.00  0.00    +0.043 A 
ATOM     16  C   UNL     1       4.193  -5.393  27.473  0.00  0.00    +0.035 A 
ATOM     17  C   UNL     1       3.257  -4.350  27.366  0.00  0.00    +0.023 A 
ATOM     18  C   UNL     1       1.964  -4.471  27.893  0.00  0.00    +0.003 A 
ATOM     19  C   UNL     1       1.582  -5.641  28.542  0.00  0.00    +0.020 A 
ENDBRANCH   1  16
BRANCH  10  20
ATOM     20  O   UNL     1       9.131  -4.583  24.036  0.00  0.00    -0.475 OA
BRANCH  20  21
ATOM     21  C   UNL     1       9.439  -3.326  24.643  0.00  0.00    +0.234 C 
BRANCH  21  22
ATOM     22  C   UNL     1       8.598  -2.221  23.973  0.00  0.00    +0.027 C 
ATOM     23  C   UNL     1       9.015  -1.942  22.518  0.00  0.00    +0.007 C 
ATOM     24  C   UNL     1      10.382  -1.267  22.414  0.00  0.00    +0.000 C 
ATOM     25  C   UNL     1      10.472  -0.012  23.280  0.00  0.00    +0.000 C 
ATOM     26  C   UNL     1      10.025  -0.252  24.720  0.00  0.00    +0.000 C 
ATOM     27  C   UNL     1       8.651  -0.918  24.784  0.00  0.00    +0.007 C 
ENDBRANCH  21  22
ENDBRANCH  20  21
ENDBRANCH  10  20
TORSDOF 4
ENDMDL
