MODEL 1
REMARK VINA RESULT:      -7.3      0.000      0.000
REMARK  Name = 
REMARK  5 active torsions:
REMARK  status: ('A' for Active; 'I' for Inactive)
REMARK    1  A    between atoms: N_1  and  S_2
REMARK    2  A    between atoms: S_2  and  C_5
REMARK    3  A    between atoms: C_8  and  C_11
REMARK    4  A    between atoms: N_13  and  C_14
REMARK    5  A    between atoms: C_14  and  C_15
REMARK                            x       y       z     vdW  Elec       q    Type
REMARK                         _______ _______ _______ _____ _____    ______ ____
ROOT
ATOM      1  C   UNL     1       8.945  -4.119  24.289  0.00  0.00    +0.244 C 
ATOM      2  N   UNL     1       9.029  -2.879  23.691  0.00  0.00    -0.307 N 
ATOM      3  H   UNL     1       8.190  -2.411  23.381  0.00  0.00    +0.149 HD
ATOM      4  O   UNL     1       9.881  -4.657  24.869  0.00  0.00    -0.270 OA
ENDROOT
BRANCH   1   8
ATOM      5  C   UNL     1       5.086  -5.973  24.253  0.00  0.00    +0.105 A 
ATOM      6  C   UNL     1       5.728  -5.718  23.038  0.00  0.00    +0.029 A 
ATOM      7  C   UNL     1       6.995  -5.125  23.033  0.00  0.00    +0.015 A 
ATOM      8  C   UNL     1       7.614  -4.789  24.245  0.00  0.00    +0.037 A 
ATOM      9  C   UNL     1       6.983  -5.098  25.459  0.00  0.00    +0.015 A 
ATOM     10  C   UNL     1       5.716  -5.688  25.467  0.00  0.00    +0.029 A 
BRANCH   5  11
ATOM     11  S   UNL     1       3.441  -6.625  24.255  0.00  0.00    +0.056 S 
ATOM     12  O   UNL     1       3.489  -8.043  24.530  0.00  0.00    -0.153 OA
ATOM     13  O   UNL     1       2.579  -5.722  24.976  0.00  0.00    -0.153 OA
BRANCH  11  14
ATOM     14  N   UNL     1       3.021  -6.499  22.634  0.00  0.00    -0.204 NA
ATOM     15  H   UNL     1       2.980  -5.519  22.355  0.00  0.00    +0.144 HD
ATOM     16  H   UNL     1       3.656  -7.063  22.069  0.00  0.00    +0.144 HD
ENDBRANCH  11  14
ENDBRANCH   5  11
ENDBRANCH   1   8
BRANCH   2  17
ATOM     17  C   UNL     1      10.248  -2.101  23.728  0.00  0.00    +0.142 C 
BRANCH  17  18
ATOM     18  C   UNL     1      10.046  -0.702  23.215  0.00  0.00    +0.008 A 
ATOM     19  C   UNL     1      10.509   0.405  23.937  0.00  0.00    +0.128 A 
ATOM     20  F   UNL     1      11.148   0.217  25.101  0.00  0.00    -0.205 F 
ATOM     21  C   UNL     1      10.320   1.706  23.476  0.00  0.00    +0.041 A 
ATOM     22  C   UNL     1       9.661   1.919  22.267  0.00  0.00    +0.041 A 
ATOM     23  C   UNL     1       9.207   0.827  21.534  0.00  0.00    +0.124 A 
ATOM     24  F   UNL     1       8.575   1.034  20.371  0.00  0.00    -0.205 F 
ATOM     25  C   UNL     1       9.397  -0.475  21.992  0.00  0.00    +0.046 A 
ENDBRANCH  17  18
ENDBRANCH   2  17
TORSDOF 5
ENDMDL
MODEL 2
REMARK VINA RESULT:      -7.3      2.456      2.668
REMARK  Name = 
REMARK  5 active torsions:
REMARK  status: ('A' for Active; 'I' for Inactive)
REMARK    1  A    between atoms: N_1  and  S_2
REMARK    2  A    between atoms: S_2  and  C_5
REMARK    3  A    between atoms: C_8  and  C_11
REMARK    4  A    between atoms: N_13  and  C_14
REMARK    5  A    between atoms: C_14  and  C_15
REMARK                            x       y       z     vdW  Elec       q    Type
REMARK                         _______ _______ _______ _____ _____    ______ ____
ROOT
ATOM      1  C   UNL     1       8.501  -3.079  23.541  0.00  0.00    +0.244 C 
ATOM      2  N   UNL     1       9.660  -2.402  23.862  0.00  0.00    -0.307 N 
ATOM      3  H   UNL     1      10.105  -2.558  24.754  0.00  0.00    +0.149 HD
ATOM      4  O   UNL     1       8.017  -3.100  22.415  0.00  0.00    -0.270 OA
ENDROOT
BRANCH   1   8
ATOM      5  C   UNL     1       6.708  -5.229  26.781  0.00  0.00    +0.105 A 
ATOM      6  C   UNL     1       5.968  -5.019  25.613  0.00  0.00    +0.029 A 
ATOM      7  C   UNL     1       6.544  -4.330  24.541  0.00  0.00    +0.015 A 
ATOM      8  C   UNL     1       7.859  -3.853  24.641  0.00  0.00    +0.037 A 
ATOM      9  C   UNL     1       8.609  -4.116  25.797  0.00  0.00    +0.015 A 
ATOM     10  C   UNL     1       8.035  -4.802  26.872  0.00  0.00    +0.029 A 
BRANCH   5  11
ATOM     11  S   UNL     1       5.943  -6.006  28.174  0.00  0.00    +0.056 S 
ATOM     12  O   UNL     1       6.950  -6.691  28.952  0.00  0.00    -0.153 OA
ATOM     13  O   UNL     1       4.996  -5.090  28.762  0.00  0.00    -0.153 OA
BRANCH  11  14
ATOM     14  N   UNL     1       5.045  -7.219  27.439  0.00  0.00    -0.204 NA
ATOM     15  H   UNL     1       4.089  -6.901  27.276  0.00  0.00    +0.144 HD
ATOM     16  H   UNL     1       5.523  -7.540  26.597  0.00  0.00    +0.144 HD
ENDBRANCH  11  14
ENDBRANCH   5  11
ENDBRANCH   1   8
BRANCH   2  17
ATOM     17  C   UNL     1      10.411  -1.672  22.864  0.00  0.00    +0.142 C 
BRANCH  17  18
ATOM     18  C   UNL     1      10.007  -0.225  22.793  0.00  0.00    +0.008 A 
ATOM     19  C   UNL     1      10.540   0.717  23.681  0.00  0.00    +0.128 A 
ATOM     20  F   UNL     1      11.430   0.328  24.605  0.00  0.00    -0.205 F 
ATOM     21  C   UNL     1      10.166   2.058  23.630  0.00  0.00    +0.041 A 
ATOM     22  C   UNL     1       9.245   2.481  22.674  0.00  0.00    +0.041 A 
ATOM     23  C   UNL     1       8.717   1.556  21.778  0.00  0.00    +0.124 A 
ATOM     24  F   UNL     1       7.833   1.964  20.859  0.00  0.00    -0.205 F 
ATOM     25  C   UNL     1       9.091   0.215  21.825  0.00  0.00    +0.046 A 
ENDBRANCH  17  18
ENDBRANCH   2  17
TORSDOF 5
ENDMDL
MODEL 3
REMARK VINA RESULT:      -7.2      0.872      1.756
REMARK  Name = 
REMARK  5 active torsions:
REMARK  status: ('A' for Active; 'I' for Inactive)
REMARK    1  A    between atoms: N_1  and  S_2
REMARK    2  A    between atoms: S_2  and  C_5
REMARK    3  A    between atoms: C_8  and  C_11
REMARK    4  A    between atoms: N_13  and  C_14
REMARK    5  A    between atoms: C_14  and  C_15
REMARK                            x       y       z     vdW  Elec       q    Type
REMARK                         _______ _______ _______ _____ _____    ______ ____
ROOT
ATOM      1  C   UNL     1       8.908  -4.289  24.330  0.00  0.00    +0.244 C 
ATOM      2  N   UNL     1       8.984  -3.043  23.742  0.00  0.00    -0.307 N 
ATOM      3  H   UNL     1       8.141  -2.564  23.464  0.00  0.00    +0.149 HD
ATOM      4  O   UNL     1       9.857  -4.842  24.874  0.00  0.00    -0.270 OA
ENDROOT
BRANCH   1   8
ATOM      5  C   UNL     1       5.031  -6.104  24.399  0.00  0.00    +0.105 A 
ATOM      6  C   UNL     1       5.648  -5.868  23.167  0.00  0.00    +0.029 A 
ATOM      7  C   UNL     1       6.920  -5.288  23.128  0.00  0.00    +0.015 A 
ATOM      8  C   UNL     1       7.570  -4.945  24.322  0.00  0.00    +0.037 A 
ATOM      9  C   UNL     1       6.963  -5.236  25.553  0.00  0.00    +0.015 A 
ATOM     10  C   UNL     1       5.691  -5.814  25.596  0.00  0.00    +0.029 A 
BRANCH   5  11
ATOM     11  S   UNL     1       3.380  -6.739  24.445  0.00  0.00    +0.056 S 
ATOM     12  O   UNL     1       3.417  -8.144  24.779  0.00  0.00    -0.153 OA
ATOM     13  O   UNL     1       2.533  -5.798  25.135  0.00  0.00    -0.153 OA
BRANCH  11  14
ATOM     14  N   UNL     1       2.944  -6.678  22.824  0.00  0.00    -0.204 NA
ATOM     15  H   UNL     1       3.653  -7.135  22.250  0.00  0.00    +0.144 HD
ATOM     16  H   UNL     1       2.006  -7.062  22.705  0.00  0.00    +0.144 HD
ENDBRANCH  11  14
ENDBRANCH   5  11
ENDBRANCH   1   8
BRANCH   2  17
ATOM     17  C   UNL     1      10.212  -2.277  23.747  0.00  0.00    +0.142 C 
BRANCH  17  18
ATOM     18  C   UNL     1      10.024  -0.897  23.180  0.00  0.00    +0.008 A 
ATOM     19  C   UNL     1       9.460  -0.709  21.913  0.00  0.00    +0.128 A 
ATOM     20  F   UNL     1       9.076  -1.774  21.193  0.00  0.00    -0.205 F 
ATOM     21  C   UNL     1       9.288   0.564  21.374  0.00  0.00    +0.041 A 
ATOM     22  C   UNL     1       9.678   1.681  22.109  0.00  0.00    +0.041 A 
ATOM     23  C   UNL     1      10.229   1.508  23.375  0.00  0.00    +0.124 A 
ATOM     24  F   UNL     1      10.602   2.583  24.081  0.00  0.00    -0.205 F 
ATOM     25  C   UNL     1      10.399   0.236  23.917  0.00  0.00    +0.046 A 
ENDBRANCH  17  18
ENDBRANCH   2  17
TORSDOF 5
ENDMDL
MODEL 4
REMARK VINA RESULT:      -7.0      4.726      7.911
REMARK  Name = 
REMARK  5 active torsions:
REMARK  status: ('A' for Active; 'I' for Inactive)
REMARK    1  A    between atoms: N_1  and  S_2
REMARK    2  A    between atoms: S_2  and  C_5
REMARK    3  A    between atoms: C_8  and  C_11
REMARK    4  A    between atoms: N_13  and  C_14
REMARK    5  A    between atoms: C_14  and  C_15
REMARK                            x       y       z     vdW  Elec       q    Type
REMARK                         _______ _______ _______ _____ _____    ______ ____
ROOT
ATOM      1  C   UNL     1       9.637  -2.118  23.819  0.00  0.00    +0.244 C 
ATOM      2  N   UNL     1       8.740  -2.864  24.556  0.00  0.00    -0.307 N 
ATOM      3  H   UNL     1       7.962  -2.411  25.013  0.00  0.00    +0.149 HD
ATOM      4  O   UNL     1      10.480  -2.608  23.077  0.00  0.00    -0.270 OA
ENDROOT
BRANCH   1   8
ATOM      5  C   UNL     1       9.372   2.150  24.050  0.00  0.00    +0.105 A 
ATOM      6  C   UNL     1       8.195   1.399  23.981  0.00  0.00    +0.029 A 
ATOM      7  C   UNL     1       8.264   0.004  23.918  0.00  0.00    +0.015 A 
ATOM      8  C   UNL     1       9.511  -0.636  23.925  0.00  0.00    +0.037 A 
ATOM      9  C   UNL     1      10.683   0.125  24.048  0.00  0.00    +0.015 A 
ATOM     10  C   UNL     1      10.618   1.520  24.108  0.00  0.00    +0.029 A 
BRANCH   5  11
ATOM     11  S   UNL     1       9.288   3.917  24.022  0.00  0.00    +0.056 S 
ATOM     12  O   UNL     1       8.540   4.378  25.169  0.00  0.00    -0.153 OA
ATOM     13  O   UNL     1      10.585   4.444  23.675  0.00  0.00    -0.153 OA
BRANCH  11  14
ATOM     14  N   UNL     1       8.290   4.191  22.700  0.00  0.00    -0.204 NA
ATOM     15  H   UNL     1       7.546   3.493  22.667  0.00  0.00    +0.144 HD
ATOM     16  H   UNL     1       7.952   5.154  22.718  0.00  0.00    +0.144 HD
ENDBRANCH  11  14
ENDBRANCH   5  11
ENDBRANCH   1   8
BRANCH   2  17
ATOM     17  C   UNL     1       8.718  -4.309  24.484  0.00  0.00    +0.142 C 
BRANCH  17  18
ATOM     18  C   UNL     1       7.476  -4.826  23.811  0.00  0.00    +0.008 A 
ATOM     19  C   UNL     1       6.341  -5.168  24.556  0.00  0.00    +0.128 A 
ATOM     20  F   UNL     1       6.356  -5.027  25.889  0.00  0.00    -0.205 F 
ATOM     21  C   UNL     1       5.188  -5.655  23.945  0.00  0.00    +0.041 A 
ATOM     22  C   UNL     1       5.154  -5.805  22.560  0.00  0.00    +0.041 A 
ATOM     23  C   UNL     1       6.271  -5.458  21.807  0.00  0.00    +0.124 A 
ATOM     24  F   UNL     1       6.237  -5.600  20.476  0.00  0.00    -0.205 F 
ATOM     25  C   UNL     1       7.424  -4.967  22.416  0.00  0.00    +0.046 A 
ENDBRANCH  17  18
ENDBRANCH   2  17
TORSDOF 5
ENDMDL
MODEL 5
REMARK VINA RESULT:      -7.0      4.936      8.257
REMARK  Name = 
REMARK  5 active torsions:
REMARK  status: ('A' for Active; 'I' for Inactive)
REMARK    1  A    between atoms: N_1  and  S_2
REMARK    2  A    between atoms: S_2  and  C_5
REMARK    3  A    between atoms: C_8  and  C_11
REMARK    4  A    between atoms: N_13  and  C_14
REMARK    5  A    between atoms: C_14  and  C_15
REMARK                            x       y       z     vdW  Elec       q    Type
REMARK                         _______ _______ _______ _____ _____    ______ ____
ROOT
ATOM      1  C   UNL     1       9.980  -1.469  23.394  0.00  0.00    +0.244 C 
ATOM      2  N   UNL     1       9.435  -2.219  24.416  0.00  0.00    -0.307 N 
ATOM      3  H   UNL     1       8.822  -1.783  25.089  0.00  0.00    +0.149 HD
ATOM      4  O   UNL     1      10.563  -1.957  22.432  0.00  0.00    -0.270 OA
ENDROOT
BRANCH   1   8
ATOM      5  C   UNL     1       9.469   2.767  23.746  0.00  0.00    +0.105 A 
ATOM      6  C   UNL     1       9.932   2.237  22.538  0.00  0.00    +0.029 A 
ATOM      7  C   UNL     1      10.092   0.854  22.403  0.00  0.00    +0.015 A 
ATOM      8  C   UNL     1       9.788   0.006  23.477  0.00  0.00    +0.037 A 
ATOM      9  C   UNL     1       9.273   0.545  24.665  0.00  0.00    +0.015 A 
ATOM     10  C   UNL     1       9.115   1.927  24.805  0.00  0.00    +0.029 A 
BRANCH   5  11
ATOM     11  S   UNL     1       9.368   4.521  23.952  0.00  0.00    +0.056 S 
ATOM     12  O   UNL     1       8.622   4.820  25.153  0.00  0.00    -0.153 OA
ATOM     13  O   UNL     1      10.658   5.102  23.672  0.00  0.00    -0.153 OA
BRANCH  11  14
ATOM     14  N   UNL     1       8.360   4.958  22.682  0.00  0.00    -0.204 NA
ATOM     15  H   UNL     1       7.385   4.800  22.934  0.00  0.00    +0.144 HD
ATOM     16  H   UNL     1       8.562   5.917  22.396  0.00  0.00    +0.144 HD
ENDBRANCH  11  14
ENDBRANCH   5  11
ENDBRANCH   1   8
BRANCH   2  17
ATOM     17  C   UNL     1       9.497  -3.664  24.413  0.00  0.00    +0.142 C 
BRANCH  17  18
ATOM     18  C   UNL     1       8.131  -4.292  24.397  0.00  0.00    +0.008 A 
ATOM     19  C   UNL     1       7.344  -4.276  23.239  0.00  0.00    +0.128 A 
ATOM     20  F   UNL     1       7.816  -3.700  22.124  0.00  0.00    -0.205 F 
ATOM     21  C   UNL     1       6.073  -4.847  23.214  0.00  0.00    +0.041 A 
ATOM     22  C   UNL     1       5.568  -5.453  24.363  0.00  0.00    +0.041 A 
ATOM     23  C   UNL     1       6.345  -5.485  25.516  0.00  0.00    +0.124 A 
ATOM     24  F   UNL     1       5.859  -6.070  26.619  0.00  0.00    -0.205 F 
ATOM     25  C   UNL     1       7.617  -4.918  25.542  0.00  0.00    +0.046 A 
ENDBRANCH  17  18
ENDBRANCH   2  17
TORSDOF 5
ENDMDL
MODEL 6
REMARK VINA RESULT:      -6.9      2.534      3.227
REMARK  Name = 
REMARK  5 active torsions:
REMARK  status: ('A' for Active; 'I' for Inactive)
REMARK    1  A    between atoms: N_1  and  S_2
REMARK    2  A    between atoms: S_2  and  C_5
REMARK    3  A    between atoms: C_8  and  C_11
REMARK    4  A    between atoms: N_13  and  C_14
REMARK    5  A    between atoms: C_14  and  C_15
REMARK                            x       y       z     vdW  Elec       q    Type
REMARK                         _______ _______ _______ _____ _____    ______ ____
ROOT
ATOM      1  C   UNL     1       8.289  -3.366  23.685  0.00  0.00    +0.244 C 
ATOM      2  N   UNL     1       9.392  -2.638  24.080  0.00  0.00    -0.307 N 
ATOM      3  H   UNL     1       9.757  -2.743  25.015  0.00  0.00    +0.149 HD
ATOM      4  O   UNL     1       7.911  -3.447  22.522  0.00  0.00    -0.270 OA
ENDROOT
BRANCH   1   8
ATOM      5  C   UNL     1       6.235  -5.425  26.826  0.00  0.00    +0.105 A 
ATOM      6  C   UNL     1       5.833  -5.632  25.503  0.00  0.00    +0.029 A 
ATOM      7  C   UNL     1       6.502  -4.976  24.465  0.00  0.00    +0.015 A 
ATOM      8  C   UNL     1       7.571  -4.116  24.754  0.00  0.00    +0.037 A 
ATOM      9  C   UNL     1       7.999  -3.959  26.080  0.00  0.00    +0.015 A 
ATOM     10  C   UNL     1       7.331  -4.611  27.121  0.00  0.00    +0.029 A 
BRANCH   5  11
ATOM     11  S   UNL     1       5.321  -6.171  28.145  0.00  0.00    +0.056 S 
ATOM     12  O   UNL     1       3.920  -5.846  28.000  0.00  0.00    -0.153 OA
ATOM     13  O   UNL     1       5.791  -7.520  28.339  0.00  0.00    -0.153 OA
BRANCH  11  14
ATOM     14  N   UNL     1       5.849  -5.285  29.471  0.00  0.00    -0.204 NA
ATOM     15  H   UNL     1       5.186  -5.373  30.241  0.00  0.00    +0.144 HD
ATOM     16  H   UNL     1       6.801  -5.561  29.712  0.00  0.00    +0.144 HD
ENDBRANCH  11  14
ENDBRANCH   5  11
ENDBRANCH   1   8
BRANCH   2  17
ATOM     17  C   UNL     1      10.210  -1.923  23.125  0.00  0.00    +0.142 C 
BRANCH  17  18
ATOM     18  C   UNL     1       9.779  -0.491  22.966  0.00  0.00    +0.008 A 
ATOM     19  C   UNL     1       9.349  -0.001  21.726  0.00  0.00    +0.128 A 
ATOM     20  F   UNL     1       9.315  -0.820  20.665  0.00  0.00    -0.205 F 
ATOM     21  C   UNL     1       8.955   1.326  21.565  0.00  0.00    +0.041 A 
ATOM     22  C   UNL     1       8.982   2.190  22.658  0.00  0.00    +0.041 A 
ATOM     23  C   UNL     1       9.396   1.712  23.897  0.00  0.00    +0.124 A 
ATOM     24  F   UNL     1       9.419   2.543  24.947  0.00  0.00    -0.205 F 
ATOM     25  C   UNL     1       9.787   0.385  24.061  0.00  0.00    +0.046 A 
ENDBRANCH  17  18
ENDBRANCH   2  17
TORSDOF 5
ENDMDL
MODEL 7
REMARK VINA RESULT:      -6.8      4.758      7.928
REMARK  Name = 
REMARK  5 active torsions:
REMARK  status: ('A' for Active; 'I' for Inactive)
REMARK    1  A    between atoms: N_1  and  S_2
REMARK    2  A    between atoms: S_2  and  C_5
REMARK    3  A    between atoms: C_8  and  C_11
REMARK    4  A    between atoms: N_13  and  C_14
REMARK    5  A    between atoms: C_14  and  C_15
REMARK                            x       y       z     vdW  Elec       q    Type
REMARK                         _______ _______ _______ _____ _____    ______ ____
ROOT
ATOM      1  C   UNL     1       8.690  -2.163  25.224  0.00  0.00    +0.244 C 
ATOM      2  N   UNL     1       8.798  -3.007  24.137  0.00  0.00    -0.307 N 
ATOM      3  H   UNL     1       9.143  -2.654  23.257  0.00  0.00    +0.149 HD
ATOM      4  O   UNL     1       8.476  -2.552  26.366  0.00  0.00    -0.270 OA
ENDROOT
BRANCH   1   8
ATOM      5  C   UNL     1       9.362   1.980  24.378  0.00  0.00    +0.105 A 
ATOM      6  C   UNL     1       8.072   1.556  24.713  0.00  0.00    +0.029 A 
ATOM      7  C   UNL     1       7.839   0.208  25.005  0.00  0.00    +0.015 A 
ATOM      8  C   UNL     1       8.897  -0.711  24.960  0.00  0.00    +0.037 A 
ATOM      9  C   UNL     1      10.196  -0.264  24.674  0.00  0.00    +0.015 A 
ATOM     10  C   UNL     1      10.432   1.082  24.380  0.00  0.00    +0.029 A 
BRANCH   5  11
ATOM     11  S   UNL     1       9.635   3.663  23.906  0.00  0.00    +0.056 S 
ATOM     12  O   UNL     1       9.067   4.539  24.905  0.00  0.00    -0.153 OA
ATOM     13  O   UNL     1      10.988   3.803  23.428  0.00  0.00    -0.153 OA
BRANCH  11  14
ATOM     14  N   UNL     1       8.635   3.809  22.565  0.00  0.00    -0.204 NA
ATOM     15  H   UNL     1       8.920   4.607  21.997  0.00  0.00    +0.144 HD
ATOM     16  H   UNL     1       8.612   2.926  22.054  0.00  0.00    +0.144 HD
ENDBRANCH  11  14
ENDBRANCH   5  11
ENDBRANCH   1   8
BRANCH   2  17
ATOM     17  C   UNL     1       8.685  -4.442  24.278  0.00  0.00    +0.142 C 
BRANCH  17  18
ATOM     18  C   UNL     1       7.405  -4.972  23.694  0.00  0.00    +0.008 A 
ATOM     19  C   UNL     1       6.294  -5.230  24.506  0.00  0.00    +0.128 A 
ATOM     20  F   UNL     1       6.367  -4.996  25.824  0.00  0.00    -0.205 F 
ATOM     21  C   UNL     1       5.105  -5.729  23.977  0.00  0.00    +0.041 A 
ATOM     22  C   UNL     1       5.010  -5.974  22.609  0.00  0.00    +0.041 A 
ATOM     23  C   UNL     1       6.103  -5.711  21.790  0.00  0.00    +0.124 A 
ATOM     24  F   UNL     1       6.009  -5.946  20.475  0.00  0.00    -0.205 F 
ATOM     25  C   UNL     1       7.291  -5.210  22.316  0.00  0.00    +0.046 A 
ENDBRANCH  17  18
ENDBRANCH   2  17
TORSDOF 5
ENDMDL
MODEL 8
REMARK VINA RESULT:      -6.8      5.086      8.424
REMARK  Name = 
REMARK  5 active torsions:
REMARK  status: ('A' for Active; 'I' for Inactive)
REMARK    1  A    between atoms: N_1  and  S_2
REMARK    2  A    between atoms: S_2  and  C_5
REMARK    3  A    between atoms: C_8  and  C_11
REMARK    4  A    between atoms: N_13  and  C_14
REMARK    5  A    between atoms: C_14  and  C_15
REMARK                            x       y       z     vdW  Elec       q    Type
REMARK                         _______ _______ _______ _____ _____    ______ ____
ROOT
ATOM      1  C   UNL     1       9.426  -1.104  22.773  0.00  0.00    +0.244 C 
ATOM      2  N   UNL     1       8.254  -1.735  23.138  0.00  0.00    -0.307 N 
ATOM      3  H   UNL     1       7.473  -1.192  23.474  0.00  0.00    +0.149 HD
ATOM      4  O   UNL     1      10.338  -1.660  22.173  0.00  0.00    -0.270 OA
ENDROOT
BRANCH   1   8
ATOM      5  C   UNL     1       9.692   3.086  23.614  0.00  0.00    +0.105 A 
ATOM      6  C   UNL     1       9.189   2.227  24.596  0.00  0.00    +0.029 A 
ATOM      7  C   UNL     1       9.108   0.854  24.341  0.00  0.00    +0.015 A 
ATOM      8  C   UNL     1       9.530   0.345  23.105  0.00  0.00    +0.037 A 
ATOM      9  C   UNL     1      10.082   1.210  22.148  0.00  0.00    +0.015 A 
ATOM     10  C   UNL     1      10.162   2.583  22.398  0.00  0.00    +0.029 A 
BRANCH   5  11
ATOM     11  S   UNL     1       9.696   4.833  23.896  0.00  0.00    +0.056 S 
ATOM     12  O   UNL     1       9.057   5.114  25.161  0.00  0.00    -0.153 OA
ATOM     13  O   UNL     1      10.989   5.363  23.543  0.00  0.00    -0.153 OA
BRANCH  11  14
ATOM     14  N   UNL     1       8.620   5.371  22.724  0.00  0.00    -0.204 NA
ATOM     15  H   UNL     1       8.982   6.211  22.273  0.00  0.00    +0.144 HD
ATOM     16  H   UNL     1       8.409   4.612  22.076  0.00  0.00    +0.144 HD
ENDBRANCH  11  14
ENDBRANCH   5  11
ENDBRANCH   1   8
BRANCH   2  17
ATOM     17  C   UNL     1       8.007  -3.122  22.811  0.00  0.00    +0.142 C 
BRANCH  17  18
ATOM     18  C   UNL     1       7.855  -3.978  24.038  0.00  0.00    +0.008 A 
ATOM     19  C   UNL     1       8.954  -4.269  24.855  0.00  0.00    +0.128 A 
ATOM     20  F   UNL     1      10.160  -3.772  24.545  0.00  0.00    -0.205 F 
ATOM     21  C   UNL     1       8.826  -5.067  25.990  0.00  0.00    +0.041 A 
ATOM     22  C   UNL     1       7.579  -5.588  26.329  0.00  0.00    +0.041 A 
ATOM     23  C   UNL     1       6.477  -5.297  25.531  0.00  0.00    +0.124 A 
ATOM     24  F   UNL     1       5.279  -5.797  25.859  0.00  0.00    -0.205 F 
ATOM     25  C   UNL     1       6.602  -4.497  24.398  0.00  0.00    +0.046 A 
ENDBRANCH  17  18
ENDBRANCH   2  17
TORSDOF 5
ENDMDL
MODEL 9
REMARK VINA RESULT:      -6.7      3.972      5.646
REMARK  Name = 
REMARK  5 active torsions:
REMARK  status: ('A' for Active; 'I' for Inactive)
REMARK    1  A    between atoms: N_1  and  S_2
REMARK    2  A    between atoms: S_2  and  C_5
REMARK    3  A    between atoms: C_8  and  C_11
REMARK    4  A    between atoms: N_13  and  C_14
REMARK    5  A    between atoms: C_14  and  C_15
REMARK                            x       y       z     vdW  Elec       q    Type
REMARK                         _______ _______ _______ _____ _____    ______ ____
ROOT
ATOM      1  C   UNL     1      10.020   0.976  23.013  0.00  0.00    +0.244 C 
ATOM      2  N   UNL     1      10.493   1.956  23.861  0.00  0.00    -0.307 N 
ATOM      3  H   UNL     1      10.707   1.731  24.822  0.00  0.00    +0.149 HD
ATOM      4  O   UNL     1       9.930   1.115  21.799  0.00  0.00    -0.270 OA
ENDROOT
BRANCH   1   8
ATOM      5  C   UNL     1       9.067  -2.805  24.782  0.00  0.00    +0.105 A 
ATOM      6  C   UNL     1       8.693  -1.632  25.444  0.00  0.00    +0.029 A 
ATOM      7  C   UNL     1       8.986  -0.389  24.873  0.00  0.00    +0.015 A 
ATOM      8  C   UNL     1       9.652  -0.324  23.641  0.00  0.00    +0.037 A 
ATOM      9  C   UNL     1       9.975  -1.508  22.962  0.00  0.00    +0.015 A 
ATOM     10  C   UNL     1       9.686  -2.752  23.531  0.00  0.00    +0.029 A 
BRANCH   5  11
ATOM     11  S   UNL     1       8.792  -4.373  25.554  0.00  0.00    +0.056 S 
ATOM     12  O   UNL     1       8.843  -4.215  26.990  0.00  0.00    -0.153 OA
ATOM     13  O   UNL     1       7.706  -5.043  24.883  0.00  0.00    -0.153 OA
BRANCH  11  14
ATOM     14  N   UNL     1      10.193  -5.205  25.148  0.00  0.00    -0.204 NA
ATOM     15  H   UNL     1      10.761  -5.368  25.980  0.00  0.00    +0.144 HD
ATOM     16  H   UNL     1       9.952  -6.057  24.640  0.00  0.00    +0.144 HD
ENDBRANCH  11  14
ENDBRANCH   5  11
ENDBRANCH   1   8
BRANCH   2  17
ATOM     17  C   UNL     1      10.946   3.236  23.362  0.00  0.00    +0.142 C 
BRANCH  17  18
ATOM     18  C   UNL     1      10.013   4.355  23.735  0.00  0.00    +0.008 A 
ATOM     19  C   UNL     1      10.448   5.686  23.736  0.00  0.00    +0.128 A 
ATOM     20  F   UNL     1      11.712   5.971  23.392  0.00  0.00    -0.205 F 
ATOM     21  C   UNL     1       9.595   6.730  24.088  0.00  0.00    +0.041 A 
ATOM     22  C   UNL     1       8.277   6.452  24.444  0.00  0.00    +0.041 A 
ATOM     23  C   UNL     1       7.830   5.135  24.437  0.00  0.00    +0.124 A 
ATOM     24  F   UNL     1       6.563   4.869  24.778  0.00  0.00    -0.205 F 
ATOM     25  C   UNL     1       8.680   4.089  24.082  0.00  0.00    +0.046 A 
ENDBRANCH  17  18
ENDBRANCH   2  17
TORSDOF 5
ENDMDL
