MODEL 1
REMARK VINA RESULT:      -7.6      0.000      0.000
REMARK  Name = 
REMARK  16 active torsions:
REMARK  status: ('A' for Active; 'I' for Inactive)
REMARK    1  A    between atoms: C_4  and  O_6
REMARK    2  A    between atoms: O_6  and  C_7
REMARK    3  A    between atoms: C_7  and  C_9
REMARK    4  A    between atoms: C_11  and  O_12
REMARK    5  A    between atoms: O_12  and  C_13
REMARK    6  A    between atoms: C_14  and  O_15
REMARK    7  A    between atoms: O_15  and  C_16
REMARK    8  A    between atoms: C_17  and  O_18
REMARK    9  A    between atoms: O_18  and  C_19
REMARK   10  A    between atoms: C_21  and  O_23
REMARK   11  A    between atoms: O_23  and  C_24
REMARK   12  A    between atoms: C_25  and  C_27
REMARK   13  A    between atoms: C_27  and  O_29
REMARK   14  A    between atoms: O_29  and  C_30
REMARK   15  A    between atoms: C_46  and  O_47
REMARK   16  A    between atoms: O_47  and  C_48
REMARK                            x       y       z     vdW  Elec       q    Type
REMARK                         _______ _______ _______ _____ _____    ______ ____
ROOT
ATOM      1  C   UNL     1       9.280  -0.741  23.802  0.00  0.00    +0.011 C 
ATOM      2  C   UNL     1       9.105   0.724  24.233  0.00  0.00    +0.089 C 
ATOM      3  N   UNL     1       7.820   0.838  24.890  0.00  0.00    -0.293 NA
ATOM      4  C   UNL     1       7.712   1.980  25.823  0.00  0.00    +0.090 C 
ATOM      5  C   UNL     1       7.570   3.356  25.152  0.00  0.00    +0.053 C 
ATOM      6  C   UNL     1       6.516   3.276  24.108  0.00  0.00    -0.016 A 
ATOM      7  C   UNL     1       5.648   4.291  23.627  0.00  0.00    +0.003 A 
ATOM      8  C   UNL     1       5.534   5.676  23.864  0.00  0.00    +0.014 A 
ATOM      9  C   UNL     1       4.507   6.398  23.248  0.00  0.00    +0.046 A 
ATOM     10  C   UNL     1       3.588   5.765  22.410  0.00  0.00    +0.122 A 
ATOM     11  C   UNL     1       3.683   4.385  22.165  0.00  0.00    +0.071 A 
ATOM     12  C   UNL     1       4.729   3.666  22.782  0.00  0.00    +0.050 A 
ATOM     13  N   UNL     1       5.047   2.315  22.746  0.00  0.00    -0.356 N 
ATOM     14  H   UNL     1       4.510   1.609  22.243  0.00  0.00    +0.166 HD
ATOM     15  C   UNL     1       6.145   2.057  23.549  0.00  0.00    +0.038 A 
ATOM     16  C   UNL     1       6.693   0.682  23.947  0.00  0.00    +0.104 C 
ATOM     17  C   UNL     1       6.985  -0.314  22.748  0.00  0.00    +0.030 C 
ATOM     18  C   UNL     1       8.228  -1.306  22.812  0.00  0.00    +0.012 C 
ATOM     19  C   UNL     1       8.187  -2.971  22.852  0.00  0.00    +0.133 C 
ATOM     20  C   UNL     1       8.429  -3.639  24.245  0.00  0.00    +0.172 C 
ATOM     21  C   UNL     1       8.178  -2.565  25.297  0.00  0.00    +0.206 C 
ATOM     22  C   UNL     1       9.362  -1.590  25.077  0.00  0.00    +0.052 C 
ENDROOT
BRANCH  10  23
ATOM     23  O   UNL     1       2.646   6.618  21.892  0.00  0.00    -0.495 OA
ATOM     24  C   UNL     1       1.958   6.197  20.724  0.00  0.00    +0.277 C 
ENDBRANCH  10  23
BRANCH  19  25
ATOM     25  C   UNL     1       6.985  -3.710  22.266  0.00  0.00    +0.313 C 
ATOM     26  O   UNL     1       6.041  -3.192  21.693  0.00  0.00    -0.250 OA
BRANCH  25  27
ATOM     27  O   UNL     1       7.099  -5.057  22.541  0.00  0.00    -0.468 OA
ATOM     28  C   UNL     1       6.595  -6.006  21.587  0.00  0.00    +0.280 C 
ENDBRANCH  25  27
ENDBRANCH  19  25
BRANCH  20  29
ATOM     29  O   UNL     1       9.745  -4.199  24.416  0.00  0.00    -0.375 OA
ATOM     30  C   UNL     1       9.850  -5.222  25.397  0.00  0.00    +0.194 C 
ENDBRANCH  20  29
BRANCH  21  31
ATOM     31  O   UNL     1       6.811  -2.042  25.103  0.00  0.00    -0.455 OA
BRANCH  31  32
ATOM     32  C   UNL     1       5.911  -2.450  26.047  0.00  0.00    +0.340 C 
ATOM     33  O   UNL     1       5.587  -1.739  26.997  0.00  0.00    -0.245 OA
BRANCH  32  34
ATOM     34  C   UNL     1       5.256  -3.794  25.934  0.00  0.00    +0.066 A 
ATOM     35  C   UNL     1       5.410  -4.931  26.712  0.00  0.00    +0.064 A 
ATOM     36  C   UNL     1       4.942  -6.193  26.284  0.00  0.00    +0.166 A 
ATOM     37  C   UNL     1       4.290  -6.312  25.037  0.00  0.00    +0.204 A 
ATOM     38  C   UNL     1       3.997  -5.140  24.327  0.00  0.00    +0.166 A 
ATOM     39  C   UNL     1       4.414  -3.909  24.833  0.00  0.00    +0.064 A 
BRANCH  36  40
ATOM     40  O   UNL     1       5.265  -7.181  27.189  0.00  0.00    -0.491 OA
ATOM     41  C   UNL     1       5.291  -6.880  28.579  0.00  0.00    +0.277 C 
ENDBRANCH  36  40
BRANCH  37  42
ATOM     42  O   UNL     1       4.021  -7.591  24.611  0.00  0.00    -0.488 OA
ATOM     43  C   UNL     1       2.744  -8.158  24.879  0.00  0.00    +0.277 C 
ENDBRANCH  37  42
BRANCH  38  44
ATOM     44  O   UNL     1       3.309  -5.178  23.140  0.00  0.00    -0.491 OA
ATOM     45  C   UNL     1       1.886  -5.087  23.264  0.00  0.00    +0.277 C 
ENDBRANCH  38  44
ENDBRANCH  32  34
ENDBRANCH  31  32
ENDBRANCH  21  31
TORSDOF 10
ENDMDL
MODEL 2
REMARK VINA RESULT:      -7.3      3.057      5.170
REMARK  Name = 
REMARK  16 active torsions:
REMARK  status: ('A' for Active; 'I' for Inactive)
REMARK    1  A    between atoms: C_4  and  O_6
REMARK    2  A    between atoms: O_6  and  C_7
REMARK    3  A    between atoms: C_7  and  C_9
REMARK    4  A    between atoms: C_11  and  O_12
REMARK    5  A    between atoms: O_12  and  C_13
REMARK    6  A    between atoms: C_14  and  O_15
REMARK    7  A    between atoms: O_15  and  C_16
REMARK    8  A    between atoms: C_17  and  O_18
REMARK    9  A    between atoms: O_18  and  C_19
REMARK   10  A    between atoms: C_21  and  O_23
REMARK   11  A    between atoms: O_23  and  C_24
REMARK   12  A    between atoms: C_25  and  C_27
REMARK   13  A    between atoms: C_27  and  O_29
REMARK   14  A    between atoms: O_29  and  C_30
REMARK   15  A    between atoms: C_46  and  O_47
REMARK   16  A    between atoms: O_47  and  C_48
REMARK                            x       y       z     vdW  Elec       q    Type
REMARK                         _______ _______ _______ _____ _____    ______ ____
ROOT
ATOM      1  C   UNL     1       6.331  -4.121  22.610  0.00  0.00    +0.011 C 
ATOM      2  C   UNL     1       7.618  -3.338  22.299  0.00  0.00    +0.089 C 
ATOM      3  N   UNL     1       8.183  -2.903  23.559  0.00  0.00    -0.293 NA
ATOM      4  C   UNL     1       9.635  -2.633  23.514  0.00  0.00    +0.090 C 
ATOM      5  C   UNL     1      10.032  -1.327  22.805  0.00  0.00    +0.053 C 
ATOM      6  C   UNL     1       9.188  -0.222  23.325  0.00  0.00    -0.016 A 
ATOM      7  C   UNL     1       9.487   1.161  23.439  0.00  0.00    +0.003 A 
ATOM      8  C   UNL     1      10.575   1.965  23.039  0.00  0.00    +0.014 A 
ATOM      9  C   UNL     1      10.580   3.326  23.358  0.00  0.00    +0.046 A 
ATOM     10  C   UNL     1       9.528   3.899  24.075  0.00  0.00    +0.122 A 
ATOM     11  C   UNL     1       8.438   3.114  24.486  0.00  0.00    +0.071 A 
ATOM     12  C   UNL     1       8.436   1.743  24.151  0.00  0.00    +0.050 A 
ATOM     13  N   UNL     1       7.524   0.738  24.441  0.00  0.00    -0.356 N 
ATOM     14  H   UNL     1       6.678   0.869  24.997  0.00  0.00    +0.166 HD
ATOM     15  C   UNL     1       7.964  -0.474  23.937  0.00  0.00    +0.038 A 
ATOM     16  C   UNL     1       7.364  -1.859  24.209  0.00  0.00    +0.104 C 
ATOM     17  C   UNL     1       5.807  -1.995  23.942  0.00  0.00    +0.030 C 
ATOM     18  C   UNL     1       5.209  -3.348  23.353  0.00  0.00    +0.012 C 
ATOM     19  C   UNL     1       4.146  -4.390  24.101  0.00  0.00    +0.133 C 
ATOM     20  C   UNL     1       4.759  -5.699  24.698  0.00  0.00    +0.172 C 
ATOM     21  C   UNL     1       6.257  -5.456  24.844  0.00  0.00    +0.206 C 
ATOM     22  C   UNL     1       6.736  -5.389  23.372  0.00  0.00    +0.052 C 
ENDROOT
BRANCH  10  23
ATOM     23  O   UNL     1       9.693   5.241  24.305  0.00  0.00    -0.495 OA
ATOM     24  C   UNL     1      10.833   5.865  23.736  0.00  0.00    +0.277 C 
ENDBRANCH  10  23
BRANCH  19  25
ATOM     25  C   UNL     1       3.215  -3.862  25.191  0.00  0.00    +0.313 C 
ATOM     26  O   UNL     1       2.817  -2.713  25.293  0.00  0.00    -0.250 OA
BRANCH  25  27
ATOM     27  O   UNL     1       2.937  -4.876  26.085  0.00  0.00    -0.468 OA
ATOM     28  C   UNL     1       1.567  -5.148  26.424  0.00  0.00    +0.280 C 
ENDBRANCH  25  27
ENDBRANCH  19  25
BRANCH  20  29
ATOM     29  O   UNL     1       4.527  -6.880  23.906  0.00  0.00    -0.375 OA
ATOM     30  C   UNL     1       3.218  -7.005  23.368  0.00  0.00    +0.194 C 
ENDBRANCH  20  29
BRANCH  21  31
ATOM     31  O   UNL     1       6.449  -4.257  25.685  0.00  0.00    -0.455 OA
BRANCH  31  32
ATOM     32  C   UNL     1       6.582  -4.519  27.019  0.00  0.00    +0.340 C 
ATOM     33  O   UNL     1       7.528  -5.162  27.472  0.00  0.00    -0.245 OA
BRANCH  32  34
ATOM     34  C   UNL     1       5.573  -3.993  27.996  0.00  0.00    +0.066 A 
ATOM     35  C   UNL     1       4.836  -4.658  28.963  0.00  0.00    +0.064 A 
ATOM     36  C   UNL     1       3.719  -4.060  29.587  0.00  0.00    +0.166 A 
ATOM     37  C   UNL     1       3.339  -2.746  29.233  0.00  0.00    +0.204 A 
ATOM     38  C   UNL     1       4.176  -2.022  28.374  0.00  0.00    +0.166 A 
ATOM     39  C   UNL     1       5.311  -2.635  27.845  0.00  0.00    +0.064 A 
BRANCH  36  40
ATOM     40  O   UNL     1       3.106  -4.931  30.462  0.00  0.00    -0.491 OA
ATOM     41  C   UNL     1       2.458  -6.093  29.959  0.00  0.00    +0.277 C 
ENDBRANCH  36  40
BRANCH  37  42
ATOM     42  O   UNL     1       2.147  -2.297  29.750  0.00  0.00    -0.488 OA
ATOM     43  C   UNL     1       0.941  -2.557  29.041  0.00  0.00    +0.277 C 
ENDBRANCH  37  42
BRANCH  38  44
ATOM     44  O   UNL     1       3.901  -0.720  28.040  0.00  0.00    -0.491 OA
ATOM     45  C   UNL     1       4.659  -0.205  26.939  0.00  0.00    +0.277 C 
ENDBRANCH  38  44
ENDBRANCH  32  34
ENDBRANCH  31  32
ENDBRANCH  21  31
TORSDOF 10
ENDMDL
MODEL 3
REMARK VINA RESULT:      -7.3      0.391      1.911
REMARK  Name = 
REMARK  16 active torsions:
REMARK  status: ('A' for Active; 'I' for Inactive)
REMARK    1  A    between atoms: C_4  and  O_6
REMARK    2  A    between atoms: O_6  and  C_7
REMARK    3  A    between atoms: C_7  and  C_9
REMARK    4  A    between atoms: C_11  and  O_12
REMARK    5  A    between atoms: O_12  and  C_13
REMARK    6  A    between atoms: C_14  and  O_15
REMARK    7  A    between atoms: O_15  and  C_16
REMARK    8  A    between atoms: C_17  and  O_18
REMARK    9  A    between atoms: O_18  and  C_19
REMARK   10  A    between atoms: C_21  and  O_23
REMARK   11  A    between atoms: O_23  and  C_24
REMARK   12  A    between atoms: C_25  and  C_27
REMARK   13  A    between atoms: C_27  and  O_29
REMARK   14  A    between atoms: O_29  and  C_30
REMARK   15  A    between atoms: C_46  and  O_47
REMARK   16  A    between atoms: O_47  and  C_48
REMARK                            x       y       z     vdW  Elec       q    Type
REMARK                         _______ _______ _______ _____ _____    ______ ____
ROOT
ATOM      1  C   UNL     1       9.281  -0.627  23.991  0.00  0.00    +0.011 C 
ATOM      2  C   UNL     1       9.015   0.812  24.462  0.00  0.00    +0.089 C 
ATOM      3  N   UNL     1       7.688   0.847  25.040  0.00  0.00    -0.293 NA
ATOM      4  C   UNL     1       7.472   1.946  26.004  0.00  0.00    +0.090 C 
ATOM      5  C   UNL     1       7.310   3.340  25.374  0.00  0.00    +0.053 C 
ATOM      6  C   UNL     1       6.327   3.255  24.264  0.00  0.00    -0.016 A 
ATOM      7  C   UNL     1       5.446   4.249  23.765  0.00  0.00    +0.003 A 
ATOM      8  C   UNL     1       5.256   5.619  24.043  0.00  0.00    +0.014 A 
ATOM      9  C   UNL     1       4.237   6.319  23.390  0.00  0.00    +0.046 A 
ATOM     10  C   UNL     1       3.401   5.681  22.473  0.00  0.00    +0.122 A 
ATOM     11  C   UNL     1       3.572   4.315  22.186  0.00  0.00    +0.071 A 
ATOM     12  C   UNL     1       4.609   3.619  22.843  0.00  0.00    +0.050 A 
ATOM     13  N   UNL     1       4.989   2.285  22.779  0.00  0.00    -0.356 N 
ATOM     14  H   UNL     1       4.516   1.576  22.219  0.00  0.00    +0.166 HD
ATOM     15  C   UNL     1       6.046   2.043  23.640  0.00  0.00    +0.038 A 
ATOM     16  C   UNL     1       6.629   0.678  24.023  0.00  0.00    +0.104 C 
ATOM     17  C   UNL     1       7.038  -0.258  22.810  0.00  0.00    +0.030 C 
ATOM     18  C   UNL     1       8.317  -1.199  22.917  0.00  0.00    +0.012 C 
ATOM     19  C   UNL     1       8.349  -2.864  22.896  0.00  0.00    +0.133 C 
ATOM     20  C   UNL     1       8.534  -3.574  24.277  0.00  0.00    +0.172 C 
ATOM     21  C   UNL     1       8.172  -2.552  25.348  0.00  0.00    +0.206 C 
ATOM     22  C   UNL     1       9.322  -1.520  25.238  0.00  0.00    +0.052 C 
ENDROOT
BRANCH  10  23
ATOM     23  O   UNL     1       2.456   6.512  21.927  0.00  0.00    -0.495 OA
ATOM     24  C   UNL     1       2.000   6.209  20.618  0.00  0.00    +0.277 C 
ENDBRANCH  10  23
BRANCH  19  25
ATOM     25  C   UNL     1       7.219  -3.630  22.210  0.00  0.00    +0.313 C 
ATOM     26  O   UNL     1       6.275  -3.130  21.621  0.00  0.00    -0.250 OA
BRANCH  25  27
ATOM     27  O   UNL     1       7.396  -4.984  22.413  0.00  0.00    -0.468 OA
ATOM     28  C   UNL     1       6.704  -5.911  21.560  0.00  0.00    +0.280 C 
ENDBRANCH  25  27
ENDBRANCH  19  25
BRANCH  20  29
ATOM     29  O   UNL     1       9.861  -4.083  24.511  0.00  0.00    -0.375 OA
ATOM     30  C   UNL     1       9.947  -5.158  25.436  0.00  0.00    +0.194 C 
ENDBRANCH  20  29
BRANCH  21  31
ATOM     31  O   UNL     1       6.797  -2.080  25.088  0.00  0.00    -0.455 OA
BRANCH  31  32
ATOM     32  C   UNL     1       5.832  -2.724  25.810  0.00  0.00    +0.340 C 
ATOM     33  O   UNL     1       5.308  -2.221  26.802  0.00  0.00    -0.245 OA
BRANCH  32  34
ATOM     34  C   UNL     1       5.353  -4.080  25.387  0.00  0.00    +0.066 A 
ATOM     35  C   UNL     1       4.574  -4.455  24.304  0.00  0.00    +0.064 A 
ATOM     36  C   UNL     1       3.972  -5.730  24.227  0.00  0.00    +0.166 A 
ATOM     37  C   UNL     1       4.171  -6.662  25.270  0.00  0.00    +0.204 A 
ATOM     38  C   UNL     1       5.083  -6.339  26.283  0.00  0.00    +0.166 A 
ATOM     39  C   UNL     1       5.710  -5.094  26.270  0.00  0.00    +0.064 A 
BRANCH  36  40
ATOM     40  O   UNL     1       3.193  -5.851  23.096  0.00  0.00    -0.491 OA
ATOM     41  C   UNL     1       1.831  -5.441  23.134  0.00  0.00    +0.277 C 
ENDBRANCH  36  40
BRANCH  37  42
ATOM     42  O   UNL     1       3.417  -7.811  25.211  0.00  0.00    -0.488 OA
ATOM     43  C   UNL     1       2.155  -7.847  25.866  0.00  0.00    +0.277 C 
ENDBRANCH  37  42
BRANCH  38  44
ATOM     44  O   UNL     1       5.372  -7.225  27.292  0.00  0.00    -0.491 OA
ATOM     45  C   UNL     1       4.855  -6.865  28.578  0.00  0.00    +0.277 C 
ENDBRANCH  38  44
ENDBRANCH  32  34
ENDBRANCH  31  32
ENDBRANCH  21  31
TORSDOF 10
ENDMDL
MODEL 4
REMARK VINA RESULT:      -7.1      1.596      1.876
REMARK  Name = 
REMARK  16 active torsions:
REMARK  status: ('A' for Active; 'I' for Inactive)
REMARK    1  A    between atoms: C_4  and  O_6
REMARK    2  A    between atoms: O_6  and  C_7
REMARK    3  A    between atoms: C_7  and  C_9
REMARK    4  A    between atoms: C_11  and  O_12
REMARK    5  A    between atoms: O_12  and  C_13
REMARK    6  A    between atoms: C_14  and  O_15
REMARK    7  A    between atoms: O_15  and  C_16
REMARK    8  A    between atoms: C_17  and  O_18
REMARK    9  A    between atoms: O_18  and  C_19
REMARK   10  A    between atoms: C_21  and  O_23
REMARK   11  A    between atoms: O_23  and  C_24
REMARK   12  A    between atoms: C_25  and  C_27
REMARK   13  A    between atoms: C_27  and  O_29
REMARK   14  A    between atoms: O_29  and  C_30
REMARK   15  A    between atoms: C_46  and  O_47
REMARK   16  A    between atoms: O_47  and  C_48
REMARK                            x       y       z     vdW  Elec       q    Type
REMARK                         _______ _______ _______ _____ _____    ______ ____
ROOT
ATOM      1  C   UNL     1       9.348  -1.940  22.869  0.00  0.00    +0.011 C 
ATOM      2  C   UNL     1       9.796  -0.477  23.027  0.00  0.00    +0.089 C 
ATOM      3  N   UNL     1       8.986   0.120  24.068  0.00  0.00    -0.293 NA
ATOM      4  C   UNL     1       9.604   1.291  24.724  0.00  0.00    +0.090 C 
ATOM      5  C   UNL     1       9.603   2.581  23.886  0.00  0.00    +0.053 C 
ATOM      6  C   UNL     1       8.241   2.796  23.336  0.00  0.00    -0.016 A 
ATOM      7  C   UNL     1       7.585   4.012  23.008  0.00  0.00    +0.003 A 
ATOM      8  C   UNL     1       7.984   5.364  22.984  0.00  0.00    +0.014 A 
ATOM      9  C   UNL     1       7.051   6.351  22.651  0.00  0.00    +0.046 A 
ATOM     10  C   UNL     1       5.730   6.017  22.350  0.00  0.00    +0.122 A 
ATOM     11  C   UNL     1       5.313   4.675  22.373  0.00  0.00    +0.071 A 
ATOM     12  C   UNL     1       6.263   3.685  22.701  0.00  0.00    +0.050 A 
ATOM     13  N   UNL     1       6.135   2.309  22.826  0.00  0.00    -0.356 N 
ATOM     14  H   UNL     1       5.260   1.797  22.707  0.00  0.00    +0.166 HD
ATOM     15  C   UNL     1       7.339   1.744  23.210  0.00  0.00    +0.038 A 
ATOM     16  C   UNL     1       7.579   0.296  23.652  0.00  0.00    +0.104 C 
ATOM     17  C   UNL     1       7.053  -0.821  22.657  0.00  0.00    +0.030 C 
ATOM     18  C   UNL     1       7.868  -2.175  22.465  0.00  0.00    +0.012 C 
ATOM     19  C   UNL     1       7.369  -3.716  22.854  0.00  0.00    +0.133 C 
ATOM     20  C   UNL     1       7.956  -4.326  24.168  0.00  0.00    +0.172 C 
ATOM     21  C   UNL     1       8.480  -3.160  24.998  0.00  0.00    +0.206 C 
ATOM     22  C   UNL     1       9.696  -2.672  24.171  0.00  0.00    +0.052 C 
ENDROOT
BRANCH  10  23
ATOM     23  O   UNL     1       4.948   7.104  22.048  0.00  0.00    -0.495 OA
ATOM     24  C   UNL     1       3.555   6.884  21.903  0.00  0.00    +0.277 C 
ENDBRANCH  10  23
BRANCH  19  25
ATOM     25  C   UNL     1       5.875  -4.032  22.908  0.00  0.00    +0.313 C 
ATOM     26  O   UNL     1       5.009  -3.499  22.235  0.00  0.00    -0.250 OA
BRANCH  25  27
ATOM     27  O   UNL     1       5.644  -4.978  23.887  0.00  0.00    -0.468 OA
ATOM     28  C   UNL     1       4.873  -6.145  23.557  0.00  0.00    +0.280 C 
ENDBRANCH  25  27
ENDBRANCH  19  25
BRANCH  20  29
ATOM     29  O   UNL     1       9.004  -5.292  23.960  0.00  0.00    -0.375 OA
ATOM     30  C   UNL     1       9.454  -5.966  25.127  0.00  0.00    +0.194 C 
ENDBRANCH  20  29
BRANCH  21  31
ATOM     31  O   UNL     1       7.369  -2.211  25.213  0.00  0.00    -0.455 OA
BRANCH  31  32
ATOM     32  C   UNL     1       6.860  -2.215  26.481  0.00  0.00    +0.340 C 
ATOM     33  O   UNL     1       7.064  -1.297  27.274  0.00  0.00    -0.245 OA
BRANCH  32  34
ATOM     34  C   UNL     1       5.995  -3.349  26.943  0.00  0.00    +0.066 A 
ATOM     35  C   UNL     1       6.345  -4.574  27.489  0.00  0.00    +0.064 A 
ATOM     36  C   UNL     1       5.417  -5.635  27.588  0.00  0.00    +0.166 A 
ATOM     37  C   UNL     1       4.093  -5.452  27.133  0.00  0.00    +0.204 A 
ATOM     38  C   UNL     1       3.702  -4.168  26.729  0.00  0.00    +0.166 A 
ATOM     39  C   UNL     1       4.638  -3.136  26.723  0.00  0.00    +0.064 A 
BRANCH  36  40
ATOM     40  O   UNL     1       6.007  -6.771  28.100  0.00  0.00    -0.491 OA
ATOM     41  C   UNL     1       6.488  -6.770  29.439  0.00  0.00    +0.277 C 
ENDBRANCH  36  40
BRANCH  37  42
ATOM     42  O   UNL     1       3.300  -6.575  27.101  0.00  0.00    -0.488 OA
ATOM     43  C   UNL     1       2.478  -6.878  28.221  0.00  0.00    +0.277 C 
ENDBRANCH  37  42
BRANCH  38  44
ATOM     44  O   UNL     1       2.413  -3.907  26.336  0.00  0.00    -0.491 OA
ATOM     45  C   UNL     1       2.203  -3.895  24.920  0.00  0.00    +0.277 C 
ENDBRANCH  38  44
ENDBRANCH  32  34
ENDBRANCH  31  32
ENDBRANCH  21  31
TORSDOF 10
ENDMDL
MODEL 5
REMARK VINA RESULT:      -6.6      2.842      8.815
REMARK  Name = 
REMARK  16 active torsions:
REMARK  status: ('A' for Active; 'I' for Inactive)
REMARK    1  A    between atoms: C_4  and  O_6
REMARK    2  A    between atoms: O_6  and  C_7
REMARK    3  A    between atoms: C_7  and  C_9
REMARK    4  A    between atoms: C_11  and  O_12
REMARK    5  A    between atoms: O_12  and  C_13
REMARK    6  A    between atoms: C_14  and  O_15
REMARK    7  A    between atoms: O_15  and  C_16
REMARK    8  A    between atoms: C_17  and  O_18
REMARK    9  A    between atoms: O_18  and  C_19
REMARK   10  A    between atoms: C_21  and  O_23
REMARK   11  A    between atoms: O_23  and  C_24
REMARK   12  A    between atoms: C_25  and  C_27
REMARK   13  A    between atoms: C_27  and  O_29
REMARK   14  A    between atoms: O_29  and  C_30
REMARK   15  A    between atoms: C_46  and  O_47
REMARK   16  A    between atoms: O_47  and  C_48
REMARK                            x       y       z     vdW  Elec       q    Type
REMARK                         _______ _______ _______ _____ _____    ______ ____
ROOT
ATOM      1  C   UNL     1      10.005  -0.439  24.312  0.00  0.00    +0.011 C 
ATOM      2  C   UNL     1       9.537  -1.853  23.931  0.00  0.00    +0.089 C 
ATOM      3  N   UNL     1       8.346  -1.719  23.119  0.00  0.00    -0.293 NA
ATOM      4  C   UNL     1       8.078  -2.872  22.235  0.00  0.00    +0.090 C 
ATOM      5  C   UNL     1       7.537  -4.124  22.946  0.00  0.00    +0.053 C 
ATOM      6  C   UNL     1       6.420  -3.725  23.839  0.00  0.00    -0.016 A 
ATOM      7  C   UNL     1       5.287  -4.474  24.251  0.00  0.00    +0.003 A 
ATOM      8  C   UNL     1       4.876  -5.810  24.066  0.00  0.00    +0.014 A 
ATOM      9  C   UNL     1       3.643  -6.229  24.577  0.00  0.00    +0.046 A 
ATOM     10  C   UNL     1       2.811  -5.340  25.259  0.00  0.00    +0.122 A 
ATOM     11  C   UNL     1       3.201  -4.004  25.450  0.00  0.00    +0.071 A 
ATOM     12  C   UNL     1       4.451  -3.593  24.940  0.00  0.00    +0.050 A 
ATOM     13  N   UNL     1       5.075  -2.353  24.954  0.00  0.00    -0.356 N 
ATOM     14  H   UNL     1       4.667  -1.506  25.350  0.00  0.00    +0.166 HD
ATOM     15  C   UNL     1       6.288  -2.415  24.288  0.00  0.00    +0.038 A 
ATOM     16  C   UNL     1       7.188  -1.236  23.901  0.00  0.00    +0.104 C 
ATOM     17  C   UNL     1       7.568  -0.247  25.080  0.00  0.00    +0.030 C 
ATOM     18  C   UNL     1       9.009   0.426  25.131  0.00  0.00    +0.012 C 
ATOM     19  C   UNL     1       9.370   2.048  25.009  0.00  0.00    +0.133 C 
ATOM     20  C   UNL     1       9.921   2.535  23.629  0.00  0.00    +0.172 C 
ATOM     21  C   UNL     1       9.545   1.471  22.605  0.00  0.00    +0.206 C 
ATOM     22  C   UNL     1      10.431   0.270  23.021  0.00  0.00    +0.052 C 
ENDROOT
BRANCH  10  23
ATOM     23  O   UNL     1       1.640  -5.912  25.691  0.00  0.00    -0.495 OA
ATOM     24  C   UNL     1       1.741  -7.067  26.507  0.00  0.00    +0.277 C 
ENDBRANCH  10  23
BRANCH  19  25
ATOM     25  C   UNL     1       8.318   3.085  25.399  0.00  0.00    +0.313 C 
ATOM     26  O   UNL     1       7.308   2.866  26.047  0.00  0.00    -0.250 OA
BRANCH  25  27
ATOM     27  O   UNL     1       8.655   4.306  24.850  0.00  0.00    -0.468 OA
ATOM     28  C   UNL     1       8.367   5.503  25.589  0.00  0.00    +0.280 C 
ENDBRANCH  25  27
ENDBRANCH  19  25
BRANCH  20  29
ATOM     29  O   UNL     1      11.344   2.763  23.603  0.00  0.00    -0.375 OA
ATOM     30  C   UNL     1      11.742   4.105  23.360  0.00  0.00    +0.194 C 
ENDBRANCH  20  29
BRANCH  21  31
ATOM     31  O   UNL     1       8.080   1.292  22.644  0.00  0.00    -0.455 OA
BRANCH  31  32
ATOM     32  C   UNL     1       7.382   2.167  21.860  0.00  0.00    +0.340 C 
ATOM     33  O   UNL     1       7.547   2.233  20.642  0.00  0.00    -0.245 OA
BRANCH  32  34
ATOM     34  C   UNL     1       6.354   3.072  22.469  0.00  0.00    +0.066 A 
ATOM     35  C   UNL     1       6.293   4.455  22.510  0.00  0.00    +0.064 A 
ATOM     36  C   UNL     1       5.413   5.135  23.381  0.00  0.00    +0.166 A 
ATOM     37  C   UNL     1       4.559   4.397  24.230  0.00  0.00    +0.204 A 
ATOM     38  C   UNL     1       4.510   3.005  24.074  0.00  0.00    +0.166 A 
ATOM     39  C   UNL     1       5.346   2.389  23.144  0.00  0.00    +0.064 A 
BRANCH  36  40
ATOM     40  O   UNL     1       5.576   6.501  23.294  0.00  0.00    -0.491 OA
ATOM     41  C   UNL     1       6.661   7.033  22.544  0.00  0.00    +0.277 C 
ENDBRANCH  36  40
BRANCH  37  42
ATOM     42  O   UNL     1       3.861   5.119  25.168  0.00  0.00    -0.488 OA
ATOM     43  C   UNL     1       4.455   5.367  26.436  0.00  0.00    +0.277 C 
ENDBRANCH  37  42
BRANCH  38  44
ATOM     44  O   UNL     1       3.656   2.233  24.822  0.00  0.00    -0.491 OA
ATOM     45  C   UNL     1       4.241   1.641  25.987  0.00  0.00    +0.277 C 
ENDBRANCH  38  44
ENDBRANCH  32  34
ENDBRANCH  31  32
ENDBRANCH  21  31
TORSDOF 10
ENDMDL
MODEL 6
REMARK VINA RESULT:      -6.6      2.231      4.243
REMARK  Name = 
REMARK  16 active torsions:
REMARK  status: ('A' for Active; 'I' for Inactive)
REMARK    1  A    between atoms: C_4  and  O_6
REMARK    2  A    between atoms: O_6  and  C_7
REMARK    3  A    between atoms: C_7  and  C_9
REMARK    4  A    between atoms: C_11  and  O_12
REMARK    5  A    between atoms: O_12  and  C_13
REMARK    6  A    between atoms: C_14  and  O_15
REMARK    7  A    between atoms: O_15  and  C_16
REMARK    8  A    between atoms: C_17  and  O_18
REMARK    9  A    between atoms: O_18  and  C_19
REMARK   10  A    between atoms: C_21  and  O_23
REMARK   11  A    between atoms: O_23  and  C_24
REMARK   12  A    between atoms: C_25  and  C_27
REMARK   13  A    between atoms: C_27  and  O_29
REMARK   14  A    between atoms: O_29  and  C_30
REMARK   15  A    between atoms: C_46  and  O_47
REMARK   16  A    between atoms: O_47  and  C_48
REMARK                            x       y       z     vdW  Elec       q    Type
REMARK                         _______ _______ _______ _____ _____    ______ ____
ROOT
ATOM      1  C   UNL     1       9.378  -2.102  22.970  0.00  0.00    +0.011 C 
ATOM      2  C   UNL     1       9.883  -0.659  23.136  0.00  0.00    +0.089 C 
ATOM      3  N   UNL     1       9.108  -0.041  24.191  0.00  0.00    -0.293 NA
ATOM      4  C   UNL     1       9.778   1.100  24.849  0.00  0.00    +0.090 C 
ATOM      5  C   UNL     1       9.816   2.396  24.023  0.00  0.00    +0.053 C 
ATOM      6  C   UNL     1       8.457   2.667  23.491  0.00  0.00    -0.016 A 
ATOM      7  C   UNL     1       7.844   3.910  23.181  0.00  0.00    +0.003 A 
ATOM      8  C   UNL     1       8.293   5.246  23.163  0.00  0.00    +0.014 A 
ATOM      9  C   UNL     1       7.394   6.271  22.850  0.00  0.00    +0.046 A 
ATOM     10  C   UNL     1       6.058   5.990  22.562  0.00  0.00    +0.122 A 
ATOM     11  C   UNL     1       5.590   4.664  22.579  0.00  0.00    +0.071 A 
ATOM     12  C   UNL     1       6.507   3.636  22.886  0.00  0.00    +0.050 A 
ATOM     13  N   UNL     1       6.327   2.265  23.002  0.00  0.00    -0.356 N 
ATOM     14  H   UNL     1       5.432   1.788  22.889  0.00  0.00    +0.166 HD
ATOM     15  C   UNL     1       7.514   1.651  23.366  0.00  0.00    +0.038 A 
ATOM     16  C   UNL     1       7.704   0.191  23.793  0.00  0.00    +0.104 C 
ATOM     17  C   UNL     1       7.125  -0.896  22.796  0.00  0.00    +0.030 C 
ATOM     18  C   UNL     1       7.885  -2.278  22.582  0.00  0.00    +0.012 C 
ATOM     19  C   UNL     1       7.333  -3.802  22.964  0.00  0.00    +0.133 C 
ATOM     20  C   UNL     1       7.912  -4.446  24.266  0.00  0.00    +0.172 C 
ATOM     21  C   UNL     1       8.490  -3.308  25.099  0.00  0.00    +0.206 C 
ATOM     22  C   UNL     1       9.713  -2.859  24.262  0.00  0.00    +0.052 C 
ENDROOT
BRANCH  10  23
ATOM     23  O   UNL     1       5.314   7.108  22.279  0.00  0.00    -0.495 OA
ATOM     24  C   UNL     1       3.921   6.931  22.083  0.00  0.00    +0.277 C 
ENDBRANCH  10  23
BRANCH  19  25
ATOM     25  C   UNL     1       5.829  -4.063  23.033  0.00  0.00    +0.313 C 
ATOM     26  O   UNL     1       4.990  -3.597  22.281  0.00  0.00    -0.250 OA
BRANCH  25  27
ATOM     27  O   UNL     1       5.555  -4.864  24.123  0.00  0.00    -0.468 OA
ATOM     28  C   UNL     1       4.220  -4.879  24.656  0.00  0.00    +0.280 C 
ENDBRANCH  25  27
ENDBRANCH  19  25
BRANCH  20  29
ATOM     29  O   UNL     1       8.920  -5.449  24.037  0.00  0.00    -0.375 OA
ATOM     30  C   UNL     1       9.492  -6.017  25.206  0.00  0.00    +0.194 C 
ENDBRANCH  20  29
BRANCH  21  31
ATOM     31  O   UNL     1       7.418  -2.320  25.335  0.00  0.00    -0.455 OA
BRANCH  31  32
ATOM     32  C   UNL     1       6.696  -2.531  26.477  0.00  0.00    +0.340 C 
ATOM     33  O   UNL     1       6.762  -3.583  27.111  0.00  0.00    -0.245 OA
BRANCH  32  34
ATOM     34  C   UNL     1       5.807  -1.452  27.017  0.00  0.00    +0.066 A 
ATOM     35  C   UNL     1       4.618  -1.545  27.723  0.00  0.00    +0.064 A 
ATOM     36  C   UNL     1       3.765  -0.431  27.892  0.00  0.00    +0.166 A 
ATOM     37  C   UNL     1       4.127   0.818  27.341  0.00  0.00    +0.204 A 
ATOM     38  C   UNL     1       5.399   0.946  26.766  0.00  0.00    +0.166 A 
ATOM     39  C   UNL     1       6.234  -0.168  26.694  0.00  0.00    +0.064 A 
BRANCH  36  40
ATOM     40  O   UNL     1       2.615  -0.778  28.567  0.00  0.00    -0.491 OA
ATOM     41  C   UNL     1       1.602  -1.518  27.896  0.00  0.00    +0.277 C 
ENDBRANCH  36  40
BRANCH  37  42
ATOM     42  O   UNL     1       3.172   1.805  27.394  0.00  0.00    -0.488 OA
ATOM     43  C   UNL     1       3.213   2.754  28.453  0.00  0.00    +0.277 C 
ENDBRANCH  37  42
BRANCH  38  44
ATOM     44  O   UNL     1       5.839   2.147  26.270  0.00  0.00    -0.491 OA
ATOM     45  C   UNL     1       7.017   2.665  26.898  0.00  0.00    +0.277 C 
ENDBRANCH  38  44
ENDBRANCH  32  34
ENDBRANCH  31  32
ENDBRANCH  21  31
TORSDOF 10
ENDMDL
MODEL 7
REMARK VINA RESULT:      -6.6      2.823      8.482
REMARK  Name = 
REMARK  16 active torsions:
REMARK  status: ('A' for Active; 'I' for Inactive)
REMARK    1  A    between atoms: C_4  and  O_6
REMARK    2  A    between atoms: O_6  and  C_7
REMARK    3  A    between atoms: C_7  and  C_9
REMARK    4  A    between atoms: C_11  and  O_12
REMARK    5  A    between atoms: O_12  and  C_13
REMARK    6  A    between atoms: C_14  and  O_15
REMARK    7  A    between atoms: O_15  and  C_16
REMARK    8  A    between atoms: C_17  and  O_18
REMARK    9  A    between atoms: O_18  and  C_19
REMARK   10  A    between atoms: C_21  and  O_23
REMARK   11  A    between atoms: O_23  and  C_24
REMARK   12  A    between atoms: C_25  and  C_27
REMARK   13  A    between atoms: C_27  and  O_29
REMARK   14  A    between atoms: O_29  and  C_30
REMARK   15  A    between atoms: C_46  and  O_47
REMARK   16  A    between atoms: O_47  and  C_48
REMARK                            x       y       z     vdW  Elec       q    Type
REMARK                         _______ _______ _______ _____ _____    ______ ____
ROOT
ATOM      1  C   UNL     1      10.111  -0.218  23.828  0.00  0.00    +0.011 C 
ATOM      2  C   UNL     1       9.686  -1.686  23.660  0.00  0.00    +0.089 C 
ATOM      3  N   UNL     1       8.304  -1.697  23.228  0.00  0.00    -0.293 NA
ATOM      4  C   UNL     1       7.899  -2.923  22.510  0.00  0.00    +0.090 C 
ATOM      5  C   UNL     1       7.704  -4.163  23.399  0.00  0.00    +0.053 C 
ATOM      6  C   UNL     1       6.861  -3.792  24.563  0.00  0.00    -0.016 A 
ATOM      7  C   UNL     1       5.968  -4.595  25.320  0.00  0.00    +0.003 A 
ATOM      8  C   UNL     1       5.646  -5.968  25.319  0.00  0.00    +0.014 A 
ATOM      9  C   UNL     1       4.657  -6.444  26.185  0.00  0.00    +0.046 A 
ATOM     10  C   UNL     1       3.978  -5.578  27.044  0.00  0.00    +0.122 A 
ATOM     11  C   UNL     1       4.282  -4.206  27.056  0.00  0.00    +0.071 A 
ATOM     12  C   UNL     1       5.289  -3.736  26.186  0.00  0.00    +0.050 A 
ATOM     13  N   UNL     1       5.773  -2.454  25.965  0.00  0.00    -0.356 N 
ATOM     14  H   UNL     1       5.421  -1.616  26.427  0.00  0.00    +0.166 HD
ATOM     15  C   UNL     1       6.743  -2.468  24.976  0.00  0.00    +0.038 A 
ATOM     16  C   UNL     1       7.381  -1.253  24.293  0.00  0.00    +0.104 C 
ATOM     17  C   UNL     1       7.992  -0.161  25.267  0.00  0.00    +0.030 C 
ATOM     18  C   UNL     1       9.319   0.621  24.866  0.00  0.00    +0.012 C 
ATOM     19  C   UNL     1       9.478   2.254  24.576  0.00  0.00    +0.133 C 
ATOM     20  C   UNL     1       9.560   2.689  23.076  0.00  0.00    +0.172 C 
ATOM     21  C   UNL     1       9.005   1.533  22.252  0.00  0.00    +0.206 C 
ATOM     22  C   UNL     1      10.079   0.433  22.440  0.00  0.00    +0.052 C 
ENDROOT
BRANCH  10  23
ATOM     23  O   UNL     1       3.040  -6.207  27.823  0.00  0.00    -0.495 OA
ATOM     24  C   UNL     1       3.496  -6.852  29.001  0.00  0.00    +0.277 C 
ENDBRANCH  10  23
BRANCH  19  25
ATOM     25  C   UNL     1       8.492   3.232  25.214  0.00  0.00    +0.313 C 
ATOM     26  O   UNL     1       7.801   3.009  26.194  0.00  0.00    -0.250 OA
BRANCH  25  27
ATOM     27  O   UNL     1       8.456   4.394  24.470  0.00  0.00    -0.468 OA
ATOM     28  C   UNL     1       7.532   5.429  24.843  0.00  0.00    +0.280 C 
ENDBRANCH  25  27
ENDBRANCH  19  25
BRANCH  20  29
ATOM     29  O   UNL     1      10.888   3.022  22.625  0.00  0.00    -0.375 OA
ATOM     30  C   UNL     1      11.568   3.998  23.401  0.00  0.00    +0.194 C 
ENDBRANCH  20  29
BRANCH  21  31
ATOM     31  O   UNL     1       7.636   1.246  22.726  0.00  0.00    -0.455 OA
BRANCH  31  32
ATOM     32  C   UNL     1       6.690   2.130  22.289  0.00  0.00    +0.340 C 
ATOM     33  O   UNL     1       6.671   2.554  21.134  0.00  0.00    -0.245 OA
BRANCH  32  34
ATOM     34  C   UNL     1       5.606   2.595  23.214  0.00  0.00    +0.066 A 
ATOM     35  C   UNL     1       5.109   2.015  24.371  0.00  0.00    +0.064 A 
ATOM     36  C   UNL     1       3.891   2.435  24.948  0.00  0.00    +0.166 A 
ATOM     37  C   UNL     1       3.155   3.481  24.348  0.00  0.00    +0.204 A 
ATOM     38  C   UNL     1       3.736   4.168  23.274  0.00  0.00    +0.166 A 
ATOM     39  C   UNL     1       4.978   3.762  22.790  0.00  0.00    +0.064 A 
BRANCH  36  40
ATOM     40  O   UNL     1       3.567   1.671  26.050  0.00  0.00    -0.491 OA
ATOM     41  C   UNL     1       4.588   0.947  26.726  0.00  0.00    +0.277 C 
ENDBRANCH  36  40
BRANCH  37  42
ATOM     42  O   UNL     1       1.902   3.716  24.862  0.00  0.00    -0.488 OA
ATOM     43  C   UNL     1       0.783   3.042  24.300  0.00  0.00    +0.277 C 
ENDBRANCH  37  42
BRANCH  38  44
ATOM     44  O   UNL     1       3.104   5.236  22.686  0.00  0.00    -0.491 OA
ATOM     45  C   UNL     1       2.393   4.928  21.482  0.00  0.00    +0.277 C 
ENDBRANCH  38  44
ENDBRANCH  32  34
ENDBRANCH  31  32
ENDBRANCH  21  31
TORSDOF 10
ENDMDL
MODEL 8
REMARK VINA RESULT:      -6.5      2.215      4.711
REMARK  Name = 
REMARK  16 active torsions:
REMARK  status: ('A' for Active; 'I' for Inactive)
REMARK    1  A    between atoms: C_4  and  O_6
REMARK    2  A    between atoms: O_6  and  C_7
REMARK    3  A    between atoms: C_7  and  C_9
REMARK    4  A    between atoms: C_11  and  O_12
REMARK    5  A    between atoms: O_12  and  C_13
REMARK    6  A    between atoms: C_14  and  O_15
REMARK    7  A    between atoms: O_15  and  C_16
REMARK    8  A    between atoms: C_17  and  O_18
REMARK    9  A    between atoms: O_18  and  C_19
REMARK   10  A    between atoms: C_21  and  O_23
REMARK   11  A    between atoms: O_23  and  C_24
REMARK   12  A    between atoms: C_25  and  C_27
REMARK   13  A    between atoms: C_27  and  O_29
REMARK   14  A    between atoms: O_29  and  C_30
REMARK   15  A    between atoms: C_46  and  O_47
REMARK   16  A    between atoms: O_47  and  C_48
REMARK                            x       y       z     vdW  Elec       q    Type
REMARK                         _______ _______ _______ _____ _____    ______ ____
ROOT
ATOM      1  C   UNL     1       9.130  -1.731  22.723  0.00  0.00    +0.011 C 
ATOM      2  C   UNL     1       9.541  -0.252  22.646  0.00  0.00    +0.089 C 
ATOM      3  N   UNL     1       8.961   0.426  23.786  0.00  0.00    -0.293 NA
ATOM      4  C   UNL     1       9.661   1.667  24.178  0.00  0.00    +0.090 C 
ATOM      5  C   UNL     1       9.420   2.870  23.252  0.00  0.00    +0.053 C 
ATOM      6  C   UNL     1       7.962   3.004  23.007  0.00  0.00    -0.016 A 
ATOM      7  C   UNL     1       7.200   4.170  22.729  0.00  0.00    +0.003 A 
ATOM      8  C   UNL     1       7.527   5.521  22.495  0.00  0.00    +0.014 A 
ATOM      9  C   UNL     1       6.504   6.453  22.296  0.00  0.00    +0.046 A 
ATOM     10  C   UNL     1       5.164   6.065  22.332  0.00  0.00    +0.122 A 
ATOM     11  C   UNL     1       4.817   4.724  22.568  0.00  0.00    +0.071 A 
ATOM     12  C   UNL     1       5.857   3.789  22.758  0.00  0.00    +0.050 A 
ATOM     13  N   UNL     1       5.816   2.428  23.031  0.00  0.00    -0.356 N 
ATOM     14  H   UNL     1       4.959   1.890  23.158  0.00  0.00    +0.166 HD
ATOM     15  C   UNL     1       7.098   1.927  23.181  0.00  0.00    +0.038 A 
ATOM     16  C   UNL     1       7.490   0.533  23.684  0.00  0.00    +0.104 C 
ATOM     17  C   UNL     1       6.801  -0.684  22.937  0.00  0.00    +0.030 C 
ATOM     18  C   UNL     1       7.608  -2.033  22.687  0.00  0.00    +0.012 C 
ATOM     19  C   UNL     1       7.272  -3.540  23.313  0.00  0.00    +0.133 C 
ATOM     20  C   UNL     1       8.162  -4.009  24.510  0.00  0.00    +0.172 C 
ATOM     21  C   UNL     1       8.810  -2.759  25.093  0.00  0.00    +0.206 C 
ATOM     22  C   UNL     1       9.789  -2.329  23.973  0.00  0.00    +0.052 C 
ENDROOT
BRANCH  10  23
ATOM     23  O   UNL     1       4.290   7.102  22.119  0.00  0.00    -0.495 OA
ATOM     24  C   UNL     1       3.028   7.033  22.762  0.00  0.00    +0.277 C 
ENDBRANCH  10  23
BRANCH  19  25
ATOM     25  C   UNL     1       5.842  -3.880  23.731  0.00  0.00    +0.313 C 
ATOM     26  O   UNL     1       5.397  -3.815  24.865  0.00  0.00    -0.250 OA
BRANCH  25  27
ATOM     27  O   UNL     1       5.142  -4.335  22.632  0.00  0.00    -0.468 OA
ATOM     28  C   UNL     1       5.313  -5.699  22.215  0.00  0.00    +0.280 C 
ENDBRANCH  25  27
ENDBRANCH  19  25
BRANCH  20  29
ATOM     29  O   UNL     1       9.176  -4.970  24.156  0.00  0.00    -0.375 OA
ATOM     30  C   UNL     1       9.599  -5.825  25.209  0.00  0.00    +0.194 C 
ENDBRANCH  20  29
BRANCH  21  31
ATOM     31  O   UNL     1       7.736  -1.817  25.468  0.00  0.00    -0.455 OA
BRANCH  31  32
ATOM     32  C   UNL     1       7.980  -1.109  26.611  0.00  0.00    +0.340 C 
ATOM     33  O   UNL     1       9.055  -1.172  27.207  0.00  0.00    -0.245 OA
BRANCH  32  34
ATOM     34  C   UNL     1       6.933  -0.192  27.169  0.00  0.00    +0.066 A 
ATOM     35  C   UNL     1       5.584  -0.411  27.395  0.00  0.00    +0.064 A 
ATOM     36  C   UNL     1       4.690   0.654  27.644  0.00  0.00    +0.166 A 
ATOM     37  C   UNL     1       5.174   1.981  27.677  0.00  0.00    +0.204 A 
ATOM     38  C   UNL     1       6.558   2.184  27.605  0.00  0.00    +0.166 A 
ATOM     39  C   UNL     1       7.405   1.089  27.436  0.00  0.00    +0.064 A 
BRANCH  36  40
ATOM     40  O   UNL     1       3.394   0.203  27.772  0.00  0.00    -0.491 OA
ATOM     41  C   UNL     1       3.090  -0.794  28.740  0.00  0.00    +0.277 C 
ENDBRANCH  36  40
BRANCH  37  42
ATOM     42  O   UNL     1       4.225   2.973  27.750  0.00  0.00    -0.488 OA
ATOM     43  C   UNL     1       3.761   3.579  26.549  0.00  0.00    +0.277 C 
ENDBRANCH  37  42
BRANCH  38  44
ATOM     44  O   UNL     1       7.100   3.442  27.696  0.00  0.00    -0.491 OA
ATOM     45  C   UNL     1       7.552   3.996  26.455  0.00  0.00    +0.277 C 
ENDBRANCH  38  44
ENDBRANCH  32  34
ENDBRANCH  31  32
ENDBRANCH  21  31
TORSDOF 10
ENDMDL
MODEL 9
REMARK VINA RESULT:      -6.4      2.839      8.760
REMARK  Name = 
REMARK  16 active torsions:
REMARK  status: ('A' for Active; 'I' for Inactive)
REMARK    1  A    between atoms: C_4  and  O_6
REMARK    2  A    between atoms: O_6  and  C_7
REMARK    3  A    between atoms: C_7  and  C_9
REMARK    4  A    between atoms: C_11  and  O_12
REMARK    5  A    between atoms: O_12  and  C_13
REMARK    6  A    between atoms: C_14  and  O_15
REMARK    7  A    between atoms: O_15  and  C_16
REMARK    8  A    between atoms: C_17  and  O_18
REMARK    9  A    between atoms: O_18  and  C_19
REMARK   10  A    between atoms: C_21  and  O_23
REMARK   11  A    between atoms: O_23  and  C_24
REMARK   12  A    between atoms: C_25  and  C_27
REMARK   13  A    between atoms: C_27  and  O_29
REMARK   14  A    between atoms: O_29  and  C_30
REMARK   15  A    between atoms: C_46  and  O_47
REMARK   16  A    between atoms: O_47  and  C_48
REMARK                            x       y       z     vdW  Elec       q    Type
REMARK                         _______ _______ _______ _____ _____    ______ ____
ROOT
ATOM      1  C   UNL     1       9.825   1.843  24.432  0.00  0.00    +0.011 C 
ATOM      2  C   UNL     1       9.920   0.544  23.615  0.00  0.00    +0.089 C 
ATOM      3  N   UNL     1       8.808   0.525  22.689  0.00  0.00    -0.293 NA
ATOM      4  C   UNL     1       9.023  -0.320  21.496  0.00  0.00    +0.090 C 
ATOM      5  C   UNL     1       8.931  -1.835  21.747  0.00  0.00    +0.053 C 
ATOM      6  C   UNL     1       7.697  -2.119  22.523  0.00  0.00    -0.016 A 
ATOM      7  C   UNL     1       6.889  -3.286  22.530  0.00  0.00    +0.003 A 
ATOM      8  C   UNL     1       6.997  -4.557  21.930  0.00  0.00    +0.014 A 
ATOM      9  C   UNL     1       5.972  -5.491  22.104  0.00  0.00    +0.046 A 
ATOM     10  C   UNL     1       4.839  -5.180  22.857  0.00  0.00    +0.122 A 
ATOM     11  C   UNL     1       4.710  -3.917  23.460  0.00  0.00    +0.071 A 
ATOM     12  C   UNL     1       5.755  -2.985  23.287  0.00  0.00    +0.050 A 
ATOM     13  N   UNL     1       5.888  -1.677  23.734  0.00  0.00    -0.356 N 
ATOM     14  H   UNL     1       5.181  -1.176  24.272  0.00  0.00    +0.166 HD
ATOM     15  C   UNL     1       7.077  -1.131  23.280  0.00  0.00    +0.038 A 
ATOM     16  C   UNL     1       7.512   0.336  23.374  0.00  0.00    +0.104 C 
ATOM     17  C   UNL     1       7.444   0.981  24.821  0.00  0.00    +0.030 C 
ATOM     18  C   UNL     1       8.541   2.038  25.282  0.00  0.00    +0.012 C 
ATOM     19  C   UNL     1       8.299   3.642  25.660  0.00  0.00    +0.133 C 
ATOM     20  C   UNL     1       8.714   4.683  24.569  0.00  0.00    +0.172 C 
ATOM     21  C   UNL     1       8.804   3.925  23.250  0.00  0.00    +0.206 C 
ATOM     22  C   UNL     1      10.038   3.014  23.465  0.00  0.00    +0.052 C 
ENDROOT
BRANCH  10  23
ATOM     23  O   UNL     1       3.931  -6.207  22.925  0.00  0.00    -0.495 OA
ATOM     24  C   UNL     1       2.637  -5.901  23.419  0.00  0.00    +0.277 C 
ENDBRANCH  10  23
BRANCH  19  25
ATOM     25  C   UNL     1       6.924   4.104  26.140  0.00  0.00    +0.313 C 
ATOM     26  O   UNL     1       6.374   5.147  25.829  0.00  0.00    -0.250 OA
BRANCH  25  27
ATOM     27  O   UNL     1       6.420   3.183  27.036  0.00  0.00    -0.468 OA
ATOM     28  C   UNL     1       6.697   3.351  28.436  0.00  0.00    +0.280 C 
ENDBRANCH  25  27
ENDBRANCH  19  25
BRANCH  20  29
ATOM     29  O   UNL     1       9.958   5.360  24.835  0.00  0.00    -0.375 OA
ATOM     30  C   UNL     1       9.843   6.735  25.174  0.00  0.00    +0.194 C 
ENDBRANCH  20  29
BRANCH  21  31
ATOM     31  O   UNL     1       7.502   3.274  23.003  0.00  0.00    -0.455 OA
BRANCH  31  32
ATOM     32  C   UNL     1       6.541   4.104  22.499  0.00  0.00    +0.340 C 
ATOM     33  O   UNL     1       6.815   5.182  21.972  0.00  0.00    -0.245 OA
BRANCH  32  34
ATOM     34  C   UNL     1       5.097   3.705  22.548  0.00  0.00    +0.066 A 
ATOM     35  C   UNL     1       4.075   3.937  21.641  0.00  0.00    +0.064 A 
ATOM     36  C   UNL     1       2.719   3.750  21.986  0.00  0.00    +0.166 A 
ATOM     37  C   UNL     1       2.381   3.305  23.284  0.00  0.00    +0.204 A 
ATOM     38  C   UNL     1       3.419   2.922  24.144  0.00  0.00    +0.166 A 
ATOM     39  C   UNL     1       4.742   3.054  23.725  0.00  0.00    +0.064 A 
BRANCH  36  40
ATOM     40  O   UNL     1       1.883   4.105  20.949  0.00  0.00    -0.491 OA
ATOM     41  C   UNL     1       1.649   5.482  20.675  0.00  0.00    +0.277 C 
ENDBRANCH  36  40
BRANCH  37  42
ATOM     42  O   UNL     1       1.044   3.314  23.601  0.00  0.00    -0.488 OA
ATOM     43  C   UNL     1       0.466   4.497  24.141  0.00  0.00    +0.277 C 
ENDBRANCH  37  42
BRANCH  38  44
ATOM     44  O   UNL     1       3.159   2.420  25.395  0.00  0.00    -0.491 OA
ATOM     45  C   UNL     1       3.153   3.392  26.446  0.00  0.00    +0.277 C 
ENDBRANCH  38  44
ENDBRANCH  32  34
ENDBRANCH  31  32
ENDBRANCH  21  31
TORSDOF 10
ENDMDL
