MODEL 1
REMARK VINA RESULT:      -6.8      0.000      0.000
REMARK  Name = 
REMARK  7 active torsions:
REMARK  status: ('A' for Active; 'I' for Inactive)
REMARK    1  A    between atoms: O_1  and  C_2
REMARK    2  A    between atoms: C_2  and  C_3
REMARK    3  A    between atoms: C_6  and  O_8
REMARK    4  A    between atoms: O_8  and  C_9
REMARK    5  A    between atoms: C_20  and  O_22
REMARK    6  A    between atoms: C_23  and  O_25
REMARK    7  A    between atoms: C_26  and  O_28
REMARK                            x       y       z     vdW  Elec       q    Type
REMARK                         _______ _______ _______ _____ _____    ______ ____
ROOT
ATOM      1  C   UNL     1       8.085   0.126  24.585  0.00  0.00    +0.179 C 
ATOM      2  C   UNL     1       9.376   0.852  24.158  0.00  0.00    +0.177 C 
ATOM      3  C   UNL     1      10.021   0.235  22.908  0.00  0.00    +0.180 C 
ATOM      4  C   UNL     1      10.122  -1.298  23.016  0.00  0.00    +0.214 C 
ATOM      5  C   UNL     1       8.782  -1.915  23.467  0.00  0.00    +0.339 C 
ATOM      6  O   UNL     1       8.278  -1.293  24.652  0.00  0.00    -0.331 OA
ENDROOT
BRANCH   2   7
ATOM      7  O   UNL     1      10.298   0.771  25.259  0.00  0.00    -0.386 OA
ATOM      8  H   UNL     1      10.225  -0.115  25.654  0.00  0.00    +0.210 HD
ENDBRANCH   2   7
BRANCH   3   9
ATOM      9  O   UNL     1       9.344   0.632  21.709  0.00  0.00    -0.386 OA
ATOM     10  H   UNL     1       9.990   0.628  20.971  0.00  0.00    +0.210 HD
ENDBRANCH   3   9
BRANCH   4  11
ATOM     11  O   UNL     1      10.540  -1.831  21.744  0.00  0.00    -0.383 OA
ATOM     12  H   UNL     1      11.429  -1.471  21.564  0.00  0.00    +0.210 HD
ENDBRANCH   4  11
BRANCH   1  13
ATOM     13  C   UNL     1       6.818   0.498  23.792  0.00  0.00    +0.190 C 
BRANCH  13  14
ATOM     14  O   UNL     1       5.676  -0.276  24.164  0.00  0.00    -0.392 OA
ATOM     15  H   UNL     1       5.646  -0.266  25.140  0.00  0.00    +0.210 HD
ENDBRANCH  13  14
ENDBRANCH   1  13
BRANCH   5  16
ATOM     16  O   UNL     1       8.967  -3.327  23.693  0.00  0.00    -0.459 OA
BRANCH  16  17
ATOM     17  C   UNL     1       7.853  -4.070  23.469  0.00  0.00    +0.150 A 
ATOM     18  C   UNL     1       7.089  -4.764  24.463  0.00  0.00    +0.061 A 
ATOM     19  C   UNL     1       7.146  -4.958  25.864  0.00  0.00    +0.068 A 
ATOM     20  C   UNL     1       6.163  -5.719  26.518  0.00  0.00    +0.037 A 
ATOM     21  C   UNL     1       5.104  -6.274  25.796  0.00  0.00    +0.019 A 
ATOM     22  C   UNL     1       5.008  -6.094  24.414  0.00  0.00    +0.027 A 
ATOM     23 BR   UNL     1       6.201  -6.044  28.388  0.00  0.00    -0.049 Br
ATOM     24 CL   UNL     1       8.472  -4.227  26.669  0.00  0.00    -0.082 Cl
ATOM     25  C   UNL     1       6.013  -5.351  23.781  0.00  0.00    +0.052 A 
ATOM     26  N   UNL     1       6.148  -5.052  22.450  0.00  0.00    -0.358 N 
ATOM     27  H   UNL     1       5.509  -5.347  21.727  0.00  0.00    +0.165 HD
ATOM     28  C   UNL     1       7.276  -4.313  22.242  0.00  0.00    +0.130 A 
ENDBRANCH  16  17
ENDBRANCH   5  16
TORSDOF 7
ENDMDL
MODEL 2
REMARK VINA RESULT:      -6.7      3.356      6.511
REMARK  Name = 
REMARK  7 active torsions:
REMARK  status: ('A' for Active; 'I' for Inactive)
REMARK    1  A    between atoms: O_1  and  C_2
REMARK    2  A    between atoms: C_2  and  C_3
REMARK    3  A    between atoms: C_6  and  O_8
REMARK    4  A    between atoms: O_8  and  C_9
REMARK    5  A    between atoms: C_20  and  O_22
REMARK    6  A    between atoms: C_23  and  O_25
REMARK    7  A    between atoms: C_26  and  O_28
REMARK                            x       y       z     vdW  Elec       q    Type
REMARK                         _______ _______ _______ _____ _____    ______ ____
ROOT
ATOM      1  C   UNL     1       7.090  -5.621  23.378  0.00  0.00    +0.179 C 
ATOM      2  C   UNL     1       5.676  -5.493  23.975  0.00  0.00    +0.177 C 
ATOM      3  C   UNL     1       5.093  -4.080  23.828  0.00  0.00    +0.180 C 
ATOM      4  C   UNL     1       6.100  -2.999  24.261  0.00  0.00    +0.214 C 
ATOM      5  C   UNL     1       7.483  -3.236  23.620  0.00  0.00    +0.339 C 
ATOM      6  O   UNL     1       7.950  -4.570  23.835  0.00  0.00    -0.331 OA
ENDROOT
BRANCH   2   7
ATOM      7  O   UNL     1       5.767  -5.827  25.371  0.00  0.00    -0.386 OA
ATOM      8  H   UNL     1       5.116  -6.526  25.560  0.00  0.00    +0.210 HD
ENDBRANCH   2   7
BRANCH   3   9
ATOM      9  O   UNL     1       4.606  -3.840  22.502  0.00  0.00    -0.386 OA
ATOM     10  H   UNL     1       4.193  -4.665  22.167  0.00  0.00    +0.210 HD
ENDBRANCH   3   9
BRANCH   4  11
ATOM     11  O   UNL     1       5.578  -1.702  23.910  0.00  0.00    -0.383 OA
ATOM     12  H   UNL     1       4.710  -1.851  23.491  0.00  0.00    +0.210 HD
ENDBRANCH   4  11
BRANCH   1  13
ATOM     13  C   UNL     1       7.155  -5.794  21.848  0.00  0.00    +0.190 C 
BRANCH  13  14
ATOM     14  O   UNL     1       5.928  -6.261  21.284  0.00  0.00    -0.392 OA
ATOM     15  H   UNL     1       5.720  -5.655  20.547  0.00  0.00    +0.210 HD
ENDBRANCH  13  14
ENDBRANCH   1  13
BRANCH   5  16
ATOM     16  O   UNL     1       8.423  -2.291  24.167  0.00  0.00    -0.459 OA
BRANCH  16  17
ATOM     17  C   UNL     1       8.932  -1.428  23.250  0.00  0.00    +0.150 A 
ATOM     18  C   UNL     1       8.961   0.001  23.363  0.00  0.00    +0.061 A 
ATOM     19  C   UNL     1       8.542   0.974  24.301  0.00  0.00    +0.068 A 
ATOM     20  C   UNL     1       8.771   2.339  24.061  0.00  0.00    +0.037 A 
ATOM     21  C   UNL     1       9.437   2.750  22.904  0.00  0.00    +0.019 A 
ATOM     22  C   UNL     1       9.876   1.818  21.962  0.00  0.00    +0.027 A 
ATOM     23 BR   UNL     1       8.205   3.695  25.263  0.00  0.00    -0.049 Br
ATOM     24 CL   UNL     1       7.748   0.376  25.698  0.00  0.00    -0.082 Cl
ATOM     25  C   UNL     1       9.615   0.464  22.211  0.00  0.00    +0.052 A 
ATOM     26  N   UNL     1       9.927  -0.625  21.440  0.00  0.00    -0.358 N 
ATOM     27  H   UNL     1      10.406  -0.583  20.553  0.00  0.00    +0.165 HD
ATOM     28  C   UNL     1       9.486  -1.770  22.036  0.00  0.00    +0.130 A 
ENDBRANCH  16  17
ENDBRANCH   5  16
TORSDOF 7
ENDMDL
MODEL 3
REMARK VINA RESULT:      -6.6      2.131      2.483
REMARK  Name = 
REMARK  7 active torsions:
REMARK  status: ('A' for Active; 'I' for Inactive)
REMARK    1  A    between atoms: O_1  and  C_2
REMARK    2  A    between atoms: C_2  and  C_3
REMARK    3  A    between atoms: C_6  and  O_8
REMARK    4  A    between atoms: O_8  and  C_9
REMARK    5  A    between atoms: C_20  and  O_22
REMARK    6  A    between atoms: C_23  and  O_25
REMARK    7  A    between atoms: C_26  and  O_28
REMARK                            x       y       z     vdW  Elec       q    Type
REMARK                         _______ _______ _______ _____ _____    ______ ____
ROOT
ATOM      1  C   UNL     1       9.147  -0.067  25.263  0.00  0.00    +0.179 C 
ATOM      2  C   UNL     1      10.005   0.734  24.264  0.00  0.00    +0.177 C 
ATOM      3  C   UNL     1       9.941   0.169  22.837  0.00  0.00    +0.180 C 
ATOM      4  C   UNL     1      10.146  -1.357  22.818  0.00  0.00    +0.214 C 
ATOM      5  C   UNL     1       9.253  -2.052  23.867  0.00  0.00    +0.339 C 
ATOM      6  O   UNL     1       9.405  -1.474  25.166  0.00  0.00    -0.331 OA
ENDROOT
BRANCH   2   7
ATOM      7  O   UNL     1      11.364   0.690  24.733  0.00  0.00    -0.386 OA
ATOM      8  H   UNL     1      11.353   0.453  25.677  0.00  0.00    +0.210 HD
ENDBRANCH   2   7
BRANCH   3   9
ATOM      9  O   UNL     1       8.730   0.543  22.170  0.00  0.00    -0.386 OA
ATOM     10  H   UNL     1       8.510  -0.149  21.510  0.00  0.00    +0.210 HD
ENDBRANCH   3   9
BRANCH   4  11
ATOM     11  O   UNL     1       9.873  -1.851  21.492  0.00  0.00    -0.383 OA
ATOM     12  H   UNL     1      10.276  -2.737  21.431  0.00  0.00    +0.210 HD
ENDBRANCH   4  11
BRANCH   1  13
ATOM     13  C   UNL     1       7.639   0.245  25.246  0.00  0.00    +0.190 C 
BRANCH  13  14
ATOM     14  O   UNL     1       7.336   1.519  24.676  0.00  0.00    -0.392 OA
ATOM     15  H   UNL     1       6.521   1.828  25.118  0.00  0.00    +0.210 HD
ENDBRANCH  13  14
ENDBRANCH   1  13
BRANCH   5  16
ATOM     16  O   UNL     1       9.585  -3.455  23.911  0.00  0.00    -0.459 OA
BRANCH  16  17
ATOM     17  C   UNL     1       8.961  -4.136  24.906  0.00  0.00    +0.150 A 
ATOM     18  C   UNL     1       7.596  -4.573  24.901  0.00  0.00    +0.061 A 
ATOM     19  C   UNL     1       6.487  -4.495  24.024  0.00  0.00    +0.068 A 
ATOM     20  C   UNL     1       5.263  -5.087  24.372  0.00  0.00    +0.037 A 
ATOM     21  C   UNL     1       5.130  -5.779  25.578  0.00  0.00    +0.019 A 
ATOM     22  C   UNL     1       6.205  -5.887  26.463  0.00  0.00    +0.027 A 
ATOM     23 BR   UNL     1       3.729  -4.989  23.257  0.00  0.00    -0.049 Br
ATOM     24 CL   UNL     1       6.747  -3.639  22.561  0.00  0.00    -0.082 Cl
ATOM     25  C   UNL     1       7.410  -5.268  26.105  0.00  0.00    +0.052 A 
ATOM     26  N   UNL     1       8.589  -5.220  26.803  0.00  0.00    -0.358 N 
ATOM     27  H   UNL     1       8.740  -5.643  27.706  0.00  0.00    +0.165 HD
ATOM     28  C   UNL     1       9.522  -4.506  26.109  0.00  0.00    +0.130 A 
ENDBRANCH  16  17
ENDBRANCH   5  16
TORSDOF 7
ENDMDL
MODEL 4
REMARK VINA RESULT:      -6.5      2.277      3.246
REMARK  Name = 
REMARK  7 active torsions:
REMARK  status: ('A' for Active; 'I' for Inactive)
REMARK    1  A    between atoms: O_1  and  C_2
REMARK    2  A    between atoms: C_2  and  C_3
REMARK    3  A    between atoms: C_6  and  O_8
REMARK    4  A    between atoms: O_8  and  C_9
REMARK    5  A    between atoms: C_20  and  O_22
REMARK    6  A    between atoms: C_23  and  O_25
REMARK    7  A    between atoms: C_26  and  O_28
REMARK                            x       y       z     vdW  Elec       q    Type
REMARK                         _______ _______ _______ _____ _____    ______ ____
ROOT
ATOM      1  C   UNL     1      10.121  -0.925  23.512  0.00  0.00    +0.179 C 
ATOM      2  C   UNL     1       9.318  -0.101  22.486  0.00  0.00    +0.177 C 
ATOM      3  C   UNL     1       7.801  -0.293  22.625  0.00  0.00    +0.180 C 
ATOM      4  C   UNL     1       7.420  -1.781  22.729  0.00  0.00    +0.214 C 
ATOM      5  C   UNL     1       8.298  -2.510  23.768  0.00  0.00    +0.339 C 
ATOM      6  O   UNL     1       9.692  -2.292  23.537  0.00  0.00    -0.331 OA
ENDROOT
BRANCH   2   7
ATOM      7  O   UNL     1       9.733  -0.523  21.176  0.00  0.00    -0.386 OA
ATOM      8  H   UNL     1       8.960  -0.896  20.717  0.00  0.00    +0.210 HD
ENDBRANCH   2   7
BRANCH   3   9
ATOM      9  O   UNL     1       7.267   0.461  23.720  0.00  0.00    -0.386 OA
ATOM     10  H   UNL     1       6.383   0.099  23.947  0.00  0.00    +0.210 HD
ENDBRANCH   3   9
BRANCH   4  11
ATOM     11  O   UNL     1       6.022  -1.887  23.060  0.00  0.00    -0.383 OA
ATOM     12  H   UNL     1       5.936  -2.626  23.691  0.00  0.00    +0.210 HD
ENDBRANCH   4  11
BRANCH   1  13
ATOM     13  C   UNL     1      10.211  -0.323  24.927  0.00  0.00    +0.190 C 
BRANCH  13  14
ATOM     14  O   UNL     1      10.008   1.091  24.949  0.00  0.00    -0.392 OA
ATOM     15  H   UNL     1       9.697   1.335  24.056  0.00  0.00    +0.210 HD
ENDBRANCH  13  14
ENDBRANCH   1  13
BRANCH   5  16
ATOM     16  O   UNL     1       8.006  -3.921  23.723  0.00  0.00    -0.459 OA
BRANCH  16  17
ATOM     17  C   UNL     1       7.616  -4.440  24.915  0.00  0.00    +0.150 A 
ATOM     18  C   UNL     1       6.438  -5.221  25.150  0.00  0.00    +0.061 A 
ATOM     19  C   UNL     1       5.347  -5.704  24.388  0.00  0.00    +0.068 A 
ATOM     20  C   UNL     1       4.350  -6.489  24.990  0.00  0.00    +0.037 A 
ATOM     21  C   UNL     1       4.436  -6.822  26.344  0.00  0.00    +0.019 A 
ATOM     22  C   UNL     1       5.504  -6.374  27.124  0.00  0.00    +0.027 A 
ATOM     23 BR   UNL     1       2.846  -7.139  24.031  0.00  0.00    -0.049 Br
ATOM     24 CL   UNL     1       5.333  -5.258  22.732  0.00  0.00    -0.082 Cl
ATOM     25  C   UNL     1       6.473  -5.572  26.507  0.00  0.00    +0.052 A 
ATOM     26  N   UNL     1       7.592  -5.004  27.058  0.00  0.00    -0.358 N 
ATOM     27  H   UNL     1       7.868  -5.097  28.024  0.00  0.00    +0.165 HD
ATOM     28  C   UNL     1       8.270  -4.285  26.118  0.00  0.00    +0.130 A 
ENDBRANCH  16  17
ENDBRANCH   5  16
TORSDOF 7
ENDMDL
MODEL 5
REMARK VINA RESULT:      -6.5      3.503      6.595
REMARK  Name = 
REMARK  7 active torsions:
REMARK  status: ('A' for Active; 'I' for Inactive)
REMARK    1  A    between atoms: O_1  and  C_2
REMARK    2  A    between atoms: C_2  and  C_3
REMARK    3  A    between atoms: C_6  and  O_8
REMARK    4  A    between atoms: O_8  and  C_9
REMARK    5  A    between atoms: C_20  and  O_22
REMARK    6  A    between atoms: C_23  and  O_25
REMARK    7  A    between atoms: C_26  and  O_28
REMARK                            x       y       z     vdW  Elec       q    Type
REMARK                         _______ _______ _______ _____ _____    ______ ____
ROOT
ATOM      1  C   UNL     1       8.064  -4.308  25.583  0.00  0.00    +0.179 C 
ATOM      2  C   UNL     1       7.013  -5.342  25.136  0.00  0.00    +0.177 C 
ATOM      3  C   UNL     1       6.696  -5.259  23.635  0.00  0.00    +0.180 C 
ATOM      4  C   UNL     1       6.438  -3.809  23.185  0.00  0.00    +0.214 C 
ATOM      5  C   UNL     1       7.539  -2.861  23.703  0.00  0.00    +0.339 C 
ATOM      6  O   UNL     1       7.740  -2.993  25.112  0.00  0.00    -0.331 OA
ENDROOT
BRANCH   2   7
ATOM      7  O   UNL     1       5.814  -5.090  25.890  0.00  0.00    -0.386 OA
ATOM      8  H   UNL     1       5.685  -5.827  26.513  0.00  0.00    +0.210 HD
ENDBRANCH   2   7
BRANCH   3   9
ATOM      9  O   UNL     1       7.714  -5.880  22.841  0.00  0.00    -0.386 OA
ATOM     10  H   UNL     1       8.506  -6.021  23.403  0.00  0.00    +0.210 HD
ENDBRANCH   3   9
BRANCH   4  11
ATOM     11  O   UNL     1       6.351  -3.773  21.747  0.00  0.00    -0.383 OA
ATOM     12  H   UNL     1       6.744  -2.927  21.461  0.00  0.00    +0.210 HD
ENDBRANCH   4  11
BRANCH   1  13
ATOM     13  C   UNL     1       9.530  -4.678  25.289  0.00  0.00    +0.190 C 
BRANCH  13  14
ATOM     14  O   UNL     1       9.737  -6.085  25.153  0.00  0.00    -0.392 OA
ATOM     15  H   UNL     1      10.682  -6.242  25.344  0.00  0.00    +0.210 HD
ENDBRANCH  13  14
ENDBRANCH   1  13
BRANCH   5  16
ATOM     16  O   UNL     1       7.179  -1.503  23.382  0.00  0.00    -0.459 OA
BRANCH  16  17
ATOM     17  C   UNL     1       8.168  -0.800  22.773  0.00  0.00    +0.150 A 
ATOM     18  C   UNL     1       8.561   0.543  23.083  0.00  0.00    +0.061 A 
ATOM     19  C   UNL     1       8.163   1.556  23.988  0.00  0.00    +0.068 A 
ATOM     20  C   UNL     1       8.830   2.792  24.011  0.00  0.00    +0.037 A 
ATOM     21  C   UNL     1       9.909   3.028  23.156  0.00  0.00    +0.019 A 
ATOM     22  C   UNL     1      10.338   2.047  22.258  0.00  0.00    +0.027 A 
ATOM     23 BR   UNL     1       8.324   4.202  25.176  0.00  0.00    -0.049 Br
ATOM     24 CL   UNL     1       6.840   1.172  25.008  0.00  0.00    -0.082 Cl
ATOM     25  C   UNL     1       9.642   0.832  22.237  0.00  0.00    +0.052 A 
ATOM     26  N   UNL     1       9.859  -0.266  21.444  0.00  0.00    -0.358 N 
ATOM     27  H   UNL     1      10.581  -0.335  20.743  0.00  0.00    +0.165 HD
ATOM     28  C   UNL     1       8.951  -1.243  21.730  0.00  0.00    +0.130 A 
ENDBRANCH  16  17
ENDBRANCH   5  16
TORSDOF 7
ENDMDL
MODEL 6
REMARK VINA RESULT:      -6.4      3.051      4.360
REMARK  Name = 
REMARK  7 active torsions:
REMARK  status: ('A' for Active; 'I' for Inactive)
REMARK    1  A    between atoms: O_1  and  C_2
REMARK    2  A    between atoms: C_2  and  C_3
REMARK    3  A    between atoms: C_6  and  O_8
REMARK    4  A    between atoms: O_8  and  C_9
REMARK    5  A    between atoms: C_20  and  O_22
REMARK    6  A    between atoms: C_23  and  O_25
REMARK    7  A    between atoms: C_26  and  O_28
REMARK                            x       y       z     vdW  Elec       q    Type
REMARK                         _______ _______ _______ _____ _____    ______ ____
ROOT
ATOM      1  C   UNL     1       7.950   1.642  21.796  0.00  0.00    +0.179 C 
ATOM      2  C   UNL     1       7.750   3.080  22.311  0.00  0.00    +0.177 C 
ATOM      3  C   UNL     1       7.984   3.210  23.823  0.00  0.00    +0.180 C 
ATOM      4  C   UNL     1       7.246   2.112  24.611  0.00  0.00    +0.214 C 
ATOM      5  C   UNL     1       7.502   0.720  23.999  0.00  0.00    +0.339 C 
ATOM      6  O   UNL     1       7.230   0.694  22.595  0.00  0.00    -0.331 OA
ENDROOT
BRANCH   2   7
ATOM      7  O   UNL     1       6.398   3.463  22.003  0.00  0.00    -0.386 OA
ATOM      8  H   UNL     1       6.426   4.273  21.464  0.00  0.00    +0.210 HD
ENDBRANCH   2   7
BRANCH   3   9
ATOM      9  O   UNL     1       9.379   3.238  24.146  0.00  0.00    -0.386 OA
ATOM     10  H   UNL     1       9.715   2.316  24.161  0.00  0.00    +0.210 HD
ENDBRANCH   3   9
BRANCH   4  11
ATOM     11  O   UNL     1       7.664   2.161  25.989  0.00  0.00    -0.383 OA
ATOM     12  H   UNL     1       7.846   3.096  26.197  0.00  0.00    +0.210 HD
ENDBRANCH   4  11
BRANCH   1  13
ATOM     13  C   UNL     1       9.412   1.212  21.571  0.00  0.00    +0.190 C 
BRANCH  13  14
ATOM     14  O   UNL     1      10.324   2.311  21.552  0.00  0.00    -0.392 OA
ATOM     15  H   UNL     1      11.021   2.075  20.909  0.00  0.00    +0.210 HD
ENDBRANCH  13  14
ENDBRANCH   1  13
BRANCH   5  16
ATOM     16  O   UNL     1       6.678  -0.251  24.677  0.00  0.00    -0.459 OA
BRANCH  16  17
ATOM     17  C   UNL     1       7.376  -1.282  25.218  0.00  0.00    +0.150 A 
ATOM     18  C   UNL     1       7.518  -2.591  24.653  0.00  0.00    +0.061 A 
ATOM     19  C   UNL     1       7.071  -3.275  23.496  0.00  0.00    +0.068 A 
ATOM     20  C   UNL     1       7.450  -4.607  23.265  0.00  0.00    +0.037 A 
ATOM     21  C   UNL     1       8.294  -5.266  24.162  0.00  0.00    +0.019 A 
ATOM     22  C   UNL     1       8.765  -4.621  25.307  0.00  0.00    +0.027 A 
ATOM     23 BR   UNL     1       6.857  -5.588  21.752  0.00  0.00    -0.049 Br
ATOM     24 CL   UNL     1       6.052  -2.382  22.445  0.00  0.00    -0.082 Cl
ATOM     25  C   UNL     1       8.354  -3.300  25.529  0.00  0.00    +0.052 A 
ATOM     26  N   UNL     1       8.664  -2.470  26.575  0.00  0.00    -0.358 N 
ATOM     27  H   UNL     1       9.255  -2.721  27.352  0.00  0.00    +0.165 HD
ATOM     28  C   UNL     1       8.049  -1.262  26.420  0.00  0.00    +0.130 A 
ENDBRANCH  16  17
ENDBRANCH   5  16
TORSDOF 7
ENDMDL
MODEL 7
REMARK VINA RESULT:      -6.3      3.675      6.604
REMARK  Name = 
REMARK  7 active torsions:
REMARK  status: ('A' for Active; 'I' for Inactive)
REMARK    1  A    between atoms: O_1  and  C_2
REMARK    2  A    between atoms: C_2  and  C_3
REMARK    3  A    between atoms: C_6  and  O_8
REMARK    4  A    between atoms: O_8  and  C_9
REMARK    5  A    between atoms: C_20  and  O_22
REMARK    6  A    between atoms: C_23  and  O_25
REMARK    7  A    between atoms: C_26  and  O_28
REMARK                            x       y       z     vdW  Elec       q    Type
REMARK                         _______ _______ _______ _____ _____    ______ ____
ROOT
ATOM      1  C   UNL     1       7.882  -5.148  24.204  0.00  0.00    +0.179 C 
ATOM      2  C   UNL     1       8.333  -5.411  25.654  0.00  0.00    +0.177 C 
ATOM      3  C   UNL     1       8.172  -4.181  26.560  0.00  0.00    +0.180 C 
ATOM      4  C   UNL     1       8.742  -2.910  25.904  0.00  0.00    +0.214 C 
ATOM      5  C   UNL     1       8.241  -2.758  24.453  0.00  0.00    +0.339 C 
ATOM      6  O   UNL     1       8.460  -3.944  23.685  0.00  0.00    -0.331 OA
ENDROOT
BRANCH   2   7
ATOM      7  O   UNL     1       9.719  -5.792  25.610  0.00  0.00    -0.386 OA
ATOM      8  H   UNL     1       9.827  -6.469  24.919  0.00  0.00    +0.210 HD
ENDBRANCH   2   7
BRANCH   3   9
ATOM      9  O   UNL     1       6.811  -3.994  26.967  0.00  0.00    -0.386 OA
ATOM     10  H   UNL     1       6.805  -3.645  27.884  0.00  0.00    +0.210 HD
ENDBRANCH   3   9
BRANCH   4  11
ATOM     11  O   UNL     1       8.382  -1.767  26.703  0.00  0.00    -0.383 OA
ATOM     12  H   UNL     1       7.413  -1.670  26.639  0.00  0.00    +0.210 HD
ENDBRANCH   4  11
BRANCH   1  13
ATOM     13  C   UNL     1       6.362  -5.210  23.957  0.00  0.00    +0.190 C 
BRANCH  13  14
ATOM     14  O   UNL     1       5.657  -5.920  24.977  0.00  0.00    -0.392 OA
ATOM     15  H   UNL     1       6.194  -5.836  25.788  0.00  0.00    +0.210 HD
ENDBRANCH  13  14
ENDBRANCH   1  13
BRANCH   5  16
ATOM     16  O   UNL     1       8.913  -1.641  23.838  0.00  0.00    -0.459 OA
BRANCH  16  17
ATOM     17  C   UNL     1       8.083  -0.628  23.482  0.00  0.00    +0.150 A 
ATOM     18  C   UNL     1       8.441   0.755  23.370  0.00  0.00    +0.061 A 
ATOM     19  C   UNL     1       9.603   1.543  23.556  0.00  0.00    +0.068 A 
ATOM     20  C   UNL     1       9.570   2.926  23.320  0.00  0.00    +0.037 A 
ATOM     21  C   UNL     1       8.396   3.539  22.876  0.00  0.00    +0.019 A 
ATOM     22  C   UNL     1       7.234   2.793  22.670  0.00  0.00    +0.027 A 
ATOM     23 BR   UNL     1      11.083   4.042  23.583  0.00  0.00    -0.049 Br
ATOM     24 CL   UNL     1      11.000   0.703  24.087  0.00  0.00    -0.082 Cl
ATOM     25  C   UNL     1       7.284   1.418  22.935  0.00  0.00    +0.052 A 
ATOM     26  N   UNL     1       6.283   0.488  22.826  0.00  0.00    -0.358 N 
ATOM     27  H   UNL     1       5.341   0.689  22.529  0.00  0.00    +0.165 HD
ATOM     28  C   UNL     1       6.741  -0.745  23.191  0.00  0.00    +0.130 A 
ENDBRANCH  16  17
ENDBRANCH   5  16
TORSDOF 7
ENDMDL
MODEL 8
REMARK VINA RESULT:      -6.3      3.631      6.605
REMARK  Name = 
REMARK  7 active torsions:
REMARK  status: ('A' for Active; 'I' for Inactive)
REMARK    1  A    between atoms: O_1  and  C_2
REMARK    2  A    between atoms: C_2  and  C_3
REMARK    3  A    between atoms: C_6  and  O_8
REMARK    4  A    between atoms: O_8  and  C_9
REMARK    5  A    between atoms: C_20  and  O_22
REMARK    6  A    between atoms: C_23  and  O_25
REMARK    7  A    between atoms: C_26  and  O_28
REMARK                            x       y       z     vdW  Elec       q    Type
REMARK                         _______ _______ _______ _____ _____    ______ ____
ROOT
ATOM      1  C   UNL     1       8.492  -4.937  26.502  0.00  0.00    +0.179 C 
ATOM      2  C   UNL     1       7.026  -5.332  26.765  0.00  0.00    +0.177 C 
ATOM      3  C   UNL     1       6.040  -4.620  25.828  0.00  0.00    +0.180 C 
ATOM      4  C   UNL     1       6.319  -3.108  25.748  0.00  0.00    +0.214 C 
ATOM      5  C   UNL     1       7.816  -2.829  25.501  0.00  0.00    +0.339 C 
ATOM      6  O   UNL     1       8.649  -3.514  26.440  0.00  0.00    -0.331 OA
ENDROOT
BRANCH   2   7
ATOM      7  O   UNL     1       6.725  -4.984  28.127  0.00  0.00    -0.386 OA
ATOM      8  H   UNL     1       6.026  -4.305  28.121  0.00  0.00    +0.210 HD
ENDBRANCH   2   7
BRANCH   3   9
ATOM      9  O   UNL     1       6.017  -5.217  24.526  0.00  0.00    -0.386 OA
ATOM     10  H   UNL     1       6.771  -4.864  24.007  0.00  0.00    +0.210 HD
ENDBRANCH   3   9
BRANCH   4  11
ATOM     11  O   UNL     1       5.503  -2.534  24.708  0.00  0.00    -0.383 OA
ATOM     12  H   UNL     1       5.461  -3.189  23.987  0.00  0.00    +0.210 HD
ENDBRANCH   4  11
BRANCH   1  13
ATOM     13  C   UNL     1       9.169  -5.643  25.311  0.00  0.00    +0.190 C 
BRANCH  13  14
ATOM     14  O   UNL     1      10.530  -5.249  25.125  0.00  0.00    -0.392 OA
ATOM     15  H   UNL     1      11.046  -5.726  25.804  0.00  0.00    +0.210 HD
ENDBRANCH  13  14
ENDBRANCH   1  13
BRANCH   5  16
ATOM     16  O   UNL     1       8.049  -1.409  25.580  0.00  0.00    -0.459 OA
BRANCH  16  17
ATOM     17  C   UNL     1       8.706  -0.899  24.507  0.00  0.00    +0.150 A 
ATOM     18  C   UNL     1       8.261   0.187  23.685  0.00  0.00    +0.061 A 
ATOM     19  C   UNL     1       7.140   1.050  23.626  0.00  0.00    +0.068 A 
ATOM     20  C   UNL     1       7.064   2.052  22.645  0.00  0.00    +0.037 A 
ATOM     21  C   UNL     1       8.105   2.224  21.730  0.00  0.00    +0.019 A 
ATOM     22  C   UNL     1       9.232   1.400  21.765  0.00  0.00    +0.027 A 
ATOM     23 BR   UNL     1       5.574   3.218  22.492  0.00  0.00    -0.049 Br
ATOM     24 CL   UNL     1       5.920   0.775  24.799  0.00  0.00    -0.082 Cl
ATOM     25  C   UNL     1       9.274   0.392  22.737  0.00  0.00    +0.052 A 
ATOM     26  N   UNL     1      10.253  -0.542  22.961  0.00  0.00    -0.358 N 
ATOM     27  H   UNL     1      11.103  -0.623  22.425  0.00  0.00    +0.165 HD
ATOM     28  C   UNL     1       9.905  -1.353  24.001  0.00  0.00    +0.130 A 
ENDBRANCH  16  17
ENDBRANCH   5  16
TORSDOF 7
ENDMDL
MODEL 9
REMARK VINA RESULT:      -6.3      3.294      6.015
REMARK  Name = 
REMARK  7 active torsions:
REMARK  status: ('A' for Active; 'I' for Inactive)
REMARK    1  A    between atoms: O_1  and  C_2
REMARK    2  A    between atoms: C_2  and  C_3
REMARK    3  A    between atoms: C_6  and  O_8
REMARK    4  A    between atoms: O_8  and  C_9
REMARK    5  A    between atoms: C_20  and  O_22
REMARK    6  A    between atoms: C_23  and  O_25
REMARK    7  A    between atoms: C_26  and  O_28
REMARK                            x       y       z     vdW  Elec       q    Type
REMARK                         _______ _______ _______ _____ _____    ______ ____
ROOT
ATOM      1  C   UNL     1       5.370  -2.639  23.716  0.00  0.00    +0.179 C 
ATOM      2  C   UNL     1       5.347  -3.889  22.816  0.00  0.00    +0.177 C 
ATOM      3  C   UNL     1       6.402  -4.932  23.217  0.00  0.00    +0.180 C 
ATOM      4  C   UNL     1       7.785  -4.290  23.434  0.00  0.00    +0.214 C 
ATOM      5  C   UNL     1       7.685  -3.040  24.331  0.00  0.00    +0.339 C 
ATOM      6  O   UNL     1       6.698  -2.119  23.860  0.00  0.00    -0.331 OA
ENDROOT
BRANCH   2   7
ATOM      7  O   UNL     1       5.598  -3.454  21.468  0.00  0.00    -0.386 OA
ATOM      8  H   UNL     1       5.703  -2.486  21.475  0.00  0.00    +0.210 HD
ENDBRANCH   2   7
BRANCH   3   9
ATOM      9  O   UNL     1       5.992  -5.690  24.362  0.00  0.00    -0.386 OA
ATOM     10  H   UNL     1       6.230  -5.188  25.170  0.00  0.00    +0.210 HD
ENDBRANCH   3   9
BRANCH   4  11
ATOM     11  O   UNL     1       8.674  -5.271  24.002  0.00  0.00    -0.383 OA
ATOM     12  H   UNL     1       9.384  -4.781  24.456  0.00  0.00    +0.210 HD
ENDBRANCH   4  11
BRANCH   1  13
ATOM     13  C   UNL     1       4.658  -2.783  25.074  0.00  0.00    +0.190 C 
BRANCH  13  14
ATOM     14  O   UNL     1       4.304  -1.528  25.658  0.00  0.00    -0.392 OA
ATOM     15  H   UNL     1       3.808  -1.039  24.973  0.00  0.00    +0.210 HD
ENDBRANCH  13  14
ENDBRANCH   1  13
BRANCH   5  16
ATOM     16  O   UNL     1       8.973  -2.395  24.384  0.00  0.00    -0.459 OA
BRANCH  16  17
ATOM     17  C   UNL     1       9.193  -1.521  23.368  0.00  0.00    +0.150 A 
ATOM     18  C   UNL     1       9.036  -0.098  23.432  0.00  0.00    +0.061 A 
ATOM     19  C   UNL     1       8.643   0.858  24.398  0.00  0.00    +0.068 A 
ATOM     20  C   UNL     1       8.631   2.226  24.082  0.00  0.00    +0.037 A 
ATOM     21  C   UNL     1       9.029   2.661  22.816  0.00  0.00    +0.019 A 
ATOM     22  C   UNL     1       9.434   1.748  21.841  0.00  0.00    +0.027 A 
ATOM     23 BR   UNL     1       8.084   3.555  25.323  0.00  0.00    -0.049 Br
ATOM     24 CL   UNL     1       8.186   0.233  25.928  0.00  0.00    -0.082 Cl
ATOM     25  C   UNL     1       9.415   0.387  22.172  0.00  0.00    +0.052 A 
ATOM     26  N   UNL     1       9.748  -0.690  21.391  0.00  0.00    -0.358 N 
ATOM     27  H   UNL     1      10.061  -0.630  20.434  0.00  0.00    +0.165 HD
ATOM     28  C   UNL     1       9.581  -1.850  22.088  0.00  0.00    +0.130 A 
ENDBRANCH  16  17
ENDBRANCH   5  16
TORSDOF 7
ENDMDL
