MODEL 1
REMARK VINA RESULT:      -6.7      0.000      0.000
REMARK  Name = 
REMARK  16 active torsions:
REMARK  status: ('A' for Active; 'I' for Inactive)
REMARK    1  A    between atoms: N_1  and  C_2
REMARK    2  A    between atoms: C_2  and  O_4
REMARK    3  A    between atoms: C_2  and  O_5
REMARK    4  A    between atoms: O_5  and  C_6
REMARK    5  A    between atoms: C_15  and  C_16
REMARK    6  A    between atoms: C_20  and  C_21
REMARK    7  A    between atoms: C_20  and  C_44
REMARK    8  A    between atoms: C_21  and  C_22
REMARK    9  A    between atoms: C_22  and  O_24
REMARK   10  A    between atoms: C_22  and  C_25
REMARK   11  A    between atoms: C_25  and  C_27
REMARK   12  A    between atoms: C_25  and  N_34
REMARK   13  A    between atoms: C_27  and  C_28
REMARK   14  A    between atoms: C_35  and  O_37
REMARK   15  A    between atoms: O_37  and  C_38
REMARK   16  A    between atoms: C_44  and  C_45
REMARK                            x       y       z     vdW  Elec       q    Type
REMARK                         _______ _______ _______ _____ _____    ______ ____
ROOT
ATOM      1  C   UNL     1      10.125   1.384  23.362  0.00  0.00    +0.081 C 
ATOM      2  C   UNL     1       9.321   0.151  22.970  0.00  0.00    +0.159 C 
ATOM      3  O   UNL     1       8.814  -0.010  21.864  0.00  0.00    -0.295 OA
ATOM      4  C   UNL     1       9.259  -0.876  24.120  0.00  0.00    +0.085 C 
ATOM      5  N   UNL     1      10.277  -0.288  25.042  0.00  0.00    -0.303 NA
ATOM      6  H   UNL     1      10.064  -0.506  26.013  0.00  0.00    +0.123 HD
ATOM      7  C   UNL     1      10.232   1.169  24.860  0.00  0.00    +0.093 C 
ENDROOT
BRANCH   1   9
ATOM      8  C   UNL     1       8.001   3.107  23.169  0.00  0.00    +0.135 C 
ATOM      9  C   UNL     1       9.478   2.678  22.814  0.00  0.00    +0.060 C 
ATOM     10  C   UNL     1      10.282   3.885  23.250  0.00  0.00    -0.038 A 
ATOM     11  C   UNL     1       9.478   4.896  23.761  0.00  0.00    -0.041 A 
ATOM     12  C   UNL     1      10.024   6.049  24.303  0.00  0.00    +0.004 A 
ATOM     13  C   UNL     1      11.406   6.193  24.307  0.00  0.00    +0.000 A 
ATOM     14  C   UNL     1      12.223   5.209  23.735  0.00  0.00    +0.000 A 
ATOM     15  C   UNL     1      11.661   4.055  23.189  0.00  0.00    +0.004 A 
ATOM     16  C   UNL     1       8.030   4.590  23.618  0.00  0.00    +0.067 C 
BRANCH   8  17
ATOM     17  O   UNL     1       7.336   2.279  24.127  0.00  0.00    -0.335 OA
BRANCH  17  18
ATOM     18  C   UNL     1       6.151   1.655  23.649  0.00  0.00    +0.323 C 
BRANCH  18  19
ATOM     19  N   UNL     1       4.981   2.400  24.002  0.00  0.00    -0.283 NA
ATOM     20  H   UNL     1       5.121   3.372  23.759  0.00  0.00    +0.123 HD
ATOM     21  H   UNL     1       4.195   2.040  23.470  0.00  0.00    +0.123 HD
ENDBRANCH  18  19
BRANCH  18  22
ATOM     22  O   UNL     1       6.201   1.584  22.251  0.00  0.00    -0.355 OA
ATOM     23  H   UNL     1       6.235   2.499  21.944  0.00  0.00    +0.214 HD
ENDBRANCH  18  22
ENDBRANCH  17  18
ENDBRANCH   8  17
ENDBRANCH   1   9
BRANCH   4  24
ATOM     24  C   UNL     1       7.867  -0.831  24.816  0.00  0.00    +0.063 C 
BRANCH  24  25
ATOM     25  C   UNL     1       7.717  -1.459  26.213  0.00  0.00    +0.137 C 
BRANCH  25  26
ATOM     26  O   UNL     1       8.110  -0.521  27.214  0.00  0.00    -0.390 OA
ATOM     27  H   UNL     1       8.181  -0.987  28.069  0.00  0.00    +0.210 HD
ENDBRANCH  25  26
BRANCH  25  28
ATOM     28  C   UNL     1       6.254  -1.933  26.522  0.00  0.00    +0.109 C 
BRANCH  28  29
ATOM     29  N   UNL     1       5.641  -0.990  27.463  0.00  0.00    -0.275 N 
ATOM     30  H   UNL     1       6.103  -0.789  28.340  0.00  0.00    +0.152 HD
ATOM     31  C   UNL     1       4.766  -0.027  27.070  0.00  0.00    +0.401 C 
ATOM     32  O   UNL     1       4.200   0.019  25.985  0.00  0.00    -0.226 OA
BRANCH  31  33
ATOM     33  O   UNL     1       4.639   0.892  28.060  0.00  0.00    -0.445 OA
BRANCH  33  34
ATOM     34  C   UNL     1       4.876   2.263  27.680  0.00  0.00    +0.206 C 
ATOM     35  C   UNL     1       4.528   3.162  28.863  0.00  0.00    +0.204 C 
ATOM     36  O   UNL     1       5.737   3.407  29.606  0.00  0.00    -0.376 OA
ATOM     37  C   UNL     1       6.819   2.771  28.918  0.00  0.00    +0.163 C 
ATOM     38  C   UNL     1       6.352   2.542  27.497  0.00  0.00    +0.075 C 
ENDBRANCH  33  34
ENDBRANCH  31  33
ENDBRANCH  28  29
BRANCH  28  39
ATOM     39  C   UNL     1       6.168  -3.384  27.050  0.00  0.00    +0.060 C 
BRANCH  39  40
ATOM     40  C   UNL     1       5.374  -4.312  26.150  0.00  0.00    -0.046 A 
ATOM     41  C   UNL     1       5.367  -5.694  26.382  0.00  0.00    +0.004 A 
ATOM     42  C   UNL     1       4.567  -6.541  25.609  0.00  0.00    +0.000 A 
ATOM     43  C   UNL     1       3.777  -6.017  24.589  0.00  0.00    +0.000 A 
ATOM     44  C   UNL     1       3.808  -4.651  24.320  0.00  0.00    +0.000 A 
ATOM     45  C   UNL     1       4.609  -3.803  25.089  0.00  0.00    +0.004 A 
ENDBRANCH  39  40
ENDBRANCH  28  39
ENDBRANCH  25  28
ENDBRANCH  24  25
ENDBRANCH   4  24
BRANCH   4  46
ATOM     46  C   UNL     1       9.715  -2.267  23.584  0.00  0.00    +0.065 C 
BRANCH  46  47
ATOM     47  C   UNL     1       8.694  -3.378  23.369  0.00  0.00    -0.045 A 
ATOM     48  C   UNL     1       8.693  -4.565  24.110  0.00  0.00    +0.004 A 
ATOM     49  C   UNL     1       7.814  -5.609  23.818  0.00  0.00    +0.000 A 
ATOM     50  C   UNL     1       6.932  -5.497  22.747  0.00  0.00    +0.000 A 
ATOM     51  C   UNL     1       6.910  -4.327  21.999  0.00  0.00    +0.000 A 
ATOM     52  C   UNL     1       7.782  -3.276  22.300  0.00  0.00    +0.004 A 
ENDBRANCH  46  47
ENDBRANCH   4  46
TORSDOF 16
ENDMDL
MODEL 2
REMARK VINA RESULT:      -6.3      1.243      1.921
REMARK  Name = 
REMARK  16 active torsions:
REMARK  status: ('A' for Active; 'I' for Inactive)
REMARK    1  A    between atoms: N_1  and  C_2
REMARK    2  A    between atoms: C_2  and  O_4
REMARK    3  A    between atoms: C_2  and  O_5
REMARK    4  A    between atoms: O_5  and  C_6
REMARK    5  A    between atoms: C_15  and  C_16
REMARK    6  A    between atoms: C_20  and  C_21
REMARK    7  A    between atoms: C_20  and  C_44
REMARK    8  A    between atoms: C_21  and  C_22
REMARK    9  A    between atoms: C_22  and  O_24
REMARK   10  A    between atoms: C_22  and  C_25
REMARK   11  A    between atoms: C_25  and  C_27
REMARK   12  A    between atoms: C_25  and  N_34
REMARK   13  A    between atoms: C_27  and  C_28
REMARK   14  A    between atoms: C_35  and  O_37
REMARK   15  A    between atoms: O_37  and  C_38
REMARK   16  A    between atoms: C_44  and  C_45
REMARK                            x       y       z     vdW  Elec       q    Type
REMARK                         _______ _______ _______ _____ _____    ______ ____
ROOT
ATOM      1  C   UNL     1      10.095   2.088  23.122  0.00  0.00    +0.081 C 
ATOM      2  C   UNL     1       9.093   1.101  22.538  0.00  0.00    +0.159 C 
ATOM      3  O   UNL     1       8.459   1.302  21.507  0.00  0.00    -0.295 OA
ATOM      4  C   UNL     1       9.008  -0.188  23.381  0.00  0.00    +0.085 C 
ATOM      5  N   UNL     1      10.186   0.015  24.278  0.00  0.00    -0.303 NA
ATOM      6  H   UNL     1      10.045  -0.435  25.179  0.00  0.00    +0.123 HD
ATOM      7  C   UNL     1      10.324   1.464  24.485  0.00  0.00    +0.093 C 
ENDROOT
BRANCH   1   9
ATOM      8  C   UNL     1       8.349   4.071  23.854  0.00  0.00    +0.135 C 
ATOM      9  C   UNL     1       9.580   3.543  23.019  0.00  0.00    +0.060 C 
ATOM     10  C   UNL     1      10.677   4.512  23.408  0.00  0.00    -0.038 A 
ATOM     11  C   UNL     1      10.232   5.481  24.298  0.00  0.00    -0.041 A 
ATOM     12  C   UNL     1      11.102   6.407  24.852  0.00  0.00    +0.004 A 
ATOM     13  C   UNL     1      12.441   6.368  24.482  0.00  0.00    +0.000 A 
ATOM     14  C   UNL     1      12.888   5.435  23.536  0.00  0.00    +0.000 A 
ATOM     15  C   UNL     1      12.001   4.511  22.982  0.00  0.00    +0.004 A 
ATOM     16  C   UNL     1       8.766   5.404  24.527  0.00  0.00    +0.067 C 
BRANCH   8  17
ATOM     17  O   UNL     1       7.810   3.146  24.803  0.00  0.00    -0.335 OA
BRANCH  17  18
ATOM     18  C   UNL     1       7.195   3.749  25.934  0.00  0.00    +0.323 C 
BRANCH  18  19
ATOM     19  N   UNL     1       5.767   3.708  25.845  0.00  0.00    -0.283 NA
ATOM     20  H   UNL     1       5.376   4.426  26.442  0.00  0.00    +0.123 HD
ATOM     21  H   UNL     1       5.496   3.898  24.885  0.00  0.00    +0.123 HD
ENDBRANCH  18  19
BRANCH  18  22
ATOM     22  O   UNL     1       7.567   3.048  27.089  0.00  0.00    -0.355 OA
ATOM     23  H   UNL     1       7.123   2.193  27.030  0.00  0.00    +0.214 HD
ENDBRANCH  18  22
ENDBRANCH  17  18
ENDBRANCH   8  17
ENDBRANCH   1   9
BRANCH   4  24
ATOM     24  C   UNL     1       7.714  -0.189  24.246  0.00  0.00    +0.063 C 
BRANCH  24  25
ATOM     25  C   UNL     1       7.795  -0.689  25.700  0.00  0.00    +0.137 C 
BRANCH  25  26
ATOM     26  O   UNL     1       8.257   0.359  26.552  0.00  0.00    -0.390 OA
ATOM     27  H   UNL     1       7.485   0.792  26.962  0.00  0.00    +0.210 HD
ENDBRANCH  25  26
BRANCH  25  28
ATOM     28  C   UNL     1       6.421  -1.208  26.251  0.00  0.00    +0.109 C 
BRANCH  28  29
ATOM     29  N   UNL     1       5.935  -0.270  27.267  0.00  0.00    -0.275 N 
ATOM     30  H   UNL     1       6.503  -0.081  28.083  0.00  0.00    +0.152 HD
ATOM     31  C   UNL     1       5.025   0.702  26.993  0.00  0.00    +0.401 C 
ATOM     32  O   UNL     1       4.331   0.762  25.987  0.00  0.00    -0.226 OA
BRANCH  31  33
ATOM     33  O   UNL     1       5.028   1.613  27.999  0.00  0.00    -0.445 OA
BRANCH  33  34
ATOM     34  C   UNL     1       4.503   1.156  29.263  0.00  0.00    +0.206 C 
ATOM     35  C   UNL     1       4.648   2.280  30.285  0.00  0.00    +0.204 C 
ATOM     36  O   UNL     1       3.413   3.020  30.309  0.00  0.00    -0.376 OA
ATOM     37  C   UNL     1       2.494   2.383  29.416  0.00  0.00    +0.163 C 
ATOM     38  C   UNL     1       3.002   0.972  29.208  0.00  0.00    +0.075 C 
ENDBRANCH  33  34
ENDBRANCH  31  33
ENDBRANCH  28  29
BRANCH  28  39
ATOM     39  C   UNL     1       6.476  -2.651  26.803  0.00  0.00    +0.060 C 
BRANCH  39  40
ATOM     40  C   UNL     1       5.492  -3.595  26.138  0.00  0.00    -0.046 A 
ATOM     41  C   UNL     1       4.703  -3.158  25.064  0.00  0.00    +0.004 A 
ATOM     42  C   UNL     1       3.860  -4.048  24.393  0.00  0.00    +0.000 A 
ATOM     43  C   UNL     1       3.787  -5.380  24.796  0.00  0.00    +0.000 A 
ATOM     44  C   UNL     1       4.533  -5.816  25.888  0.00  0.00    +0.000 A 
ATOM     45  C   UNL     1       5.373  -4.927  26.562  0.00  0.00    +0.004 A 
ENDBRANCH  39  40
ENDBRANCH  28  39
ENDBRANCH  25  28
ENDBRANCH  24  25
ENDBRANCH   4  24
BRANCH   4  46
ATOM     46  C   UNL     1       9.212  -1.421  22.448  0.00  0.00    +0.065 C 
BRANCH  46  47
ATOM     47  C   UNL     1       8.687  -2.790  22.863  0.00  0.00    -0.045 A 
ATOM     48  C   UNL     1       7.599  -3.409  22.238  0.00  0.00    +0.004 A 
ATOM     49  C   UNL     1       7.072  -4.613  22.709  0.00  0.00    +0.000 A 
ATOM     50  C   UNL     1       7.610  -5.210  23.846  0.00  0.00    +0.000 A 
ATOM     51  C   UNL     1       8.694  -4.618  24.481  0.00  0.00    +0.000 A 
ATOM     52  C   UNL     1       9.229  -3.418  24.002  0.00  0.00    +0.004 A 
ENDBRANCH  46  47
ENDBRANCH   4  46
TORSDOF 16
ENDMDL
MODEL 3
REMARK VINA RESULT:      -6.2      2.190      7.803
REMARK  Name = 
REMARK  16 active torsions:
REMARK  status: ('A' for Active; 'I' for Inactive)
REMARK    1  A    between atoms: N_1  and  C_2
REMARK    2  A    between atoms: C_2  and  O_4
REMARK    3  A    between atoms: C_2  and  O_5
REMARK    4  A    between atoms: O_5  and  C_6
REMARK    5  A    between atoms: C_15  and  C_16
REMARK    6  A    between atoms: C_20  and  C_21
REMARK    7  A    between atoms: C_20  and  C_44
REMARK    8  A    between atoms: C_21  and  C_22
REMARK    9  A    between atoms: C_22  and  O_24
REMARK   10  A    between atoms: C_22  and  C_25
REMARK   11  A    between atoms: C_25  and  C_27
REMARK   12  A    between atoms: C_25  and  N_34
REMARK   13  A    between atoms: C_27  and  C_28
REMARK   14  A    between atoms: C_35  and  O_37
REMARK   15  A    between atoms: O_37  and  C_38
REMARK   16  A    between atoms: C_44  and  C_45
REMARK                            x       y       z     vdW  Elec       q    Type
REMARK                         _______ _______ _______ _____ _____    ______ ____
ROOT
ATOM      1  C   UNL     1       5.767  -4.661  23.155  0.00  0.00    +0.081 C 
ATOM      2  C   UNL     1       7.220  -4.231  23.304  0.00  0.00    +0.159 C 
ATOM      3  O   UNL     1       8.164  -5.014  23.327  0.00  0.00    -0.295 OA
ATOM      4  C   UNL     1       7.354  -2.696  23.384  0.00  0.00    +0.085 C 
ATOM      5  N   UNL     1       5.965  -2.299  22.998  0.00  0.00    -0.303 NA
ATOM      6  H   UNL     1       5.701  -1.417  23.432  0.00  0.00    +0.123 HD
ATOM      7  C   UNL     1       5.066  -3.356  23.482  0.00  0.00    +0.093 C 
ENDROOT
BRANCH   1   9
ATOM      8  C   UNL     1       5.885  -6.070  25.503  0.00  0.00    +0.135 C 
ATOM      9  C   UNL     1       5.463  -5.928  23.989  0.00  0.00    +0.060 C 
ATOM     10  C   UNL     1       3.969  -6.169  24.042  0.00  0.00    -0.038 A 
ATOM     11  C   UNL     1       3.525  -6.436  25.331  0.00  0.00    -0.041 A 
ATOM     12  C   UNL     1       2.177  -6.592  25.613  0.00  0.00    +0.004 A 
ATOM     13  C   UNL     1       1.264  -6.502  24.569  0.00  0.00    +0.000 A 
ATOM     14  C   UNL     1       1.706  -6.297  23.255  0.00  0.00    +0.000 A 
ATOM     15  C   UNL     1       3.067  -6.145  22.984  0.00  0.00    +0.004 A 
ATOM     16  C   UNL     1       4.646  -6.556  26.299  0.00  0.00    +0.067 C 
BRANCH   8  17
ATOM     17  O   UNL     1       6.464  -4.901  26.091  0.00  0.00    -0.335 OA
BRANCH  17  18
ATOM     18  C   UNL     1       7.622  -5.147  26.878  0.00  0.00    +0.323 C 
BRANCH  18  19
ATOM     19  N   UNL     1       7.325  -5.957  28.019  0.00  0.00    -0.283 NA
ATOM     20  H   UNL     1       6.854  -6.800  27.714  0.00  0.00    +0.123 HD
ATOM     21  H   UNL     1       8.198  -6.216  28.469  0.00  0.00    +0.123 HD
ENDBRANCH  18  19
BRANCH  18  22
ATOM     22  O   UNL     1       8.567  -5.836  26.104  0.00  0.00    -0.355 OA
ATOM     23  H   UNL     1       8.068  -6.245  25.386  0.00  0.00    +0.214 HD
ENDBRANCH  18  22
ENDBRANCH  17  18
ENDBRANCH   8  17
ENDBRANCH   1   9
BRANCH   4  24
ATOM     24  C   UNL     1       7.614  -2.247  24.851  0.00  0.00    +0.063 C 
BRANCH  24  25
ATOM     25  C   UNL     1       6.525  -1.445  25.585  0.00  0.00    +0.137 C 
BRANCH  25  26
ATOM     26  O   UNL     1       6.396  -1.911  26.927  0.00  0.00    -0.390 OA
ATOM     27  H   UNL     1       5.457  -2.121  27.096  0.00  0.00    +0.210 HD
ENDBRANCH  25  26
BRANCH  25  28
ATOM     28  C   UNL     1       6.813   0.097  25.619  0.00  0.00    +0.109 C 
BRANCH  28  29
ATOM     29  N   UNL     1       6.190   0.667  26.818  0.00  0.00    -0.275 N 
ATOM     30  H   UNL     1       6.726   1.284  27.414  0.00  0.00    +0.152 HD
ATOM     31  C   UNL     1       4.844   0.811  26.947  0.00  0.00    +0.401 C 
ATOM     32  O   UNL     1       4.001   0.281  26.235  0.00  0.00    -0.226 OA
BRANCH  31  33
ATOM     33  O   UNL     1       4.582   1.660  27.972  0.00  0.00    -0.445 OA
BRANCH  33  34
ATOM     34  C   UNL     1       3.825   2.840  27.635  0.00  0.00    +0.206 C 
ATOM     35  C   UNL     1       3.749   3.739  28.866  0.00  0.00    +0.204 C 
ATOM     36  O   UNL     1       4.824   4.694  28.785  0.00  0.00    -0.376 OA
ATOM     37  C   UNL     1       5.516   4.483  27.550  0.00  0.00    +0.163 C 
ATOM     38  C   UNL     1       4.570   3.716  26.651  0.00  0.00    +0.075 C 
ENDBRANCH  33  34
ENDBRANCH  31  33
ENDBRANCH  28  29
BRANCH  28  39
ATOM     39  C   UNL     1       6.358   0.845  24.344  0.00  0.00    +0.060 C 
BRANCH  39  40
ATOM     40  C   UNL     1       7.026   2.195  24.161  0.00  0.00    -0.046 A 
ATOM     41  C   UNL     1       7.880   2.706  25.148  0.00  0.00    +0.004 A 
ATOM     42  C   UNL     1       8.565   3.907  24.943  0.00  0.00    +0.000 A 
ATOM     43  C   UNL     1       8.394   4.616  23.756  0.00  0.00    +0.000 A 
ATOM     44  C   UNL     1       7.515   4.141  22.786  0.00  0.00    +0.000 A 
ATOM     45  C   UNL     1       6.827   2.942  22.990  0.00  0.00    +0.004 A 
ENDBRANCH  39  40
ENDBRANCH  28  39
ENDBRANCH  25  28
ENDBRANCH  24  25
ENDBRANCH   4  24
BRANCH   4  46
ATOM     46  C   UNL     1       8.394  -2.220  22.324  0.00  0.00    +0.065 C 
BRANCH  46  47
ATOM     47  C   UNL     1       9.235  -0.976  22.582  0.00  0.00    -0.045 A 
ATOM     48  C   UNL     1       9.961  -0.779  23.762  0.00  0.00    +0.004 A 
ATOM     49  C   UNL     1      10.634   0.417  24.017  0.00  0.00    +0.000 A 
ATOM     50  C   UNL     1      10.567   1.462  23.099  0.00  0.00    +0.000 A 
ATOM     51  C   UNL     1       9.858   1.289  21.917  0.00  0.00    +0.000 A 
ATOM     52  C   UNL     1       9.193   0.086  21.657  0.00  0.00    +0.004 A 
ENDBRANCH  46  47
ENDBRANCH   4  46
TORSDOF 16
ENDMDL
MODEL 4
REMARK VINA RESULT:      -6.1      1.909      3.716
REMARK  Name = 
REMARK  16 active torsions:
REMARK  status: ('A' for Active; 'I' for Inactive)
REMARK    1  A    between atoms: N_1  and  C_2
REMARK    2  A    between atoms: C_2  and  O_4
REMARK    3  A    between atoms: C_2  and  O_5
REMARK    4  A    between atoms: O_5  and  C_6
REMARK    5  A    between atoms: C_15  and  C_16
REMARK    6  A    between atoms: C_20  and  C_21
REMARK    7  A    between atoms: C_20  and  C_44
REMARK    8  A    between atoms: C_21  and  C_22
REMARK    9  A    between atoms: C_22  and  O_24
REMARK   10  A    between atoms: C_22  and  C_25
REMARK   11  A    between atoms: C_25  and  C_27
REMARK   12  A    between atoms: C_25  and  N_34
REMARK   13  A    between atoms: C_27  and  C_28
REMARK   14  A    between atoms: C_35  and  O_37
REMARK   15  A    between atoms: O_37  and  C_38
REMARK   16  A    between atoms: C_44  and  C_45
REMARK                            x       y       z     vdW  Elec       q    Type
REMARK                         _______ _______ _______ _____ _____    ______ ____
ROOT
ATOM      1  C   UNL     1       8.949   1.290  23.503  0.00  0.00    +0.081 C 
ATOM      2  C   UNL     1       8.567  -0.058  22.903  0.00  0.00    +0.159 C 
ATOM      3  O   UNL     1       8.684  -0.332  21.713  0.00  0.00    -0.295 OA
ATOM      4  C   UNL     1       8.056  -1.035  23.982  0.00  0.00    +0.085 C 
ATOM      5  N   UNL     1       8.430  -0.275  25.213  0.00  0.00    -0.303 NA
ATOM      6  H   UNL     1       7.793  -0.480  25.979  0.00  0.00    +0.123 HD
ATOM      7  C   UNL     1       8.333   1.154  24.882  0.00  0.00    +0.093 C 
ENDROOT
BRANCH   1   9
ATOM      8  C   UNL     1       7.020   2.897  22.403  0.00  0.00    +0.135 C 
ATOM      9  C   UNL     1       8.526   2.459  22.583  0.00  0.00    +0.060 C 
ATOM     10  C   UNL     1       9.187   3.743  23.037  0.00  0.00    -0.038 A 
ATOM     11  C   UNL     1       8.289   4.800  23.111  0.00  0.00    -0.041 A 
ATOM     12  C   UNL     1       8.671   6.041  23.596  0.00  0.00    +0.004 A 
ATOM     13  C   UNL     1       9.990   6.224  23.991  0.00  0.00    +0.000 A 
ATOM     14  C   UNL     1      10.920   5.183  23.860  0.00  0.00    +0.000 A 
ATOM     15  C   UNL     1      10.524   3.940  23.366  0.00  0.00    +0.004 A 
ATOM     16  C   UNL     1       6.945   4.434  22.591  0.00  0.00    +0.067 C 
BRANCH   8  17
ATOM     17  O   UNL     1       6.079   2.216  23.238  0.00  0.00    -0.335 OA
BRANCH  17  18
ATOM     18  C   UNL     1       5.132   3.063  23.875  0.00  0.00    +0.323 C 
BRANCH  18  19
ATOM     19  N   UNL     1       3.791   2.608  23.668  0.00  0.00    -0.283 NA
ATOM     20  H   UNL     1       3.248   3.354  23.251  0.00  0.00    +0.123 HD
ATOM     21  H   UNL     1       3.811   1.821  23.026  0.00  0.00    +0.123 HD
ENDBRANCH  18  19
BRANCH  18  22
ATOM     22  O   UNL     1       5.369   3.063  25.256  0.00  0.00    -0.355 OA
ATOM     23  H   UNL     1       6.258   3.422  25.368  0.00  0.00    +0.214 HD
ENDBRANCH  18  22
ENDBRANCH  17  18
ENDBRANCH   8  17
ENDBRANCH   1   9
BRANCH   4  24
ATOM     24  C   UNL     1       6.505  -1.154  23.917  0.00  0.00    +0.063 C 
BRANCH  24  25
ATOM     25  C   UNL     1       5.706  -1.145  25.233  0.00  0.00    +0.137 C 
BRANCH  25  26
ATOM     26  O   UNL     1       5.003   0.089  25.369  0.00  0.00    -0.390 OA
ATOM     27  H   UNL     1       4.923   0.300  26.319  0.00  0.00    +0.210 HD
ENDBRANCH  25  26
BRANCH  25  28
ATOM     28  C   UNL     1       4.673  -2.321  25.335  0.00  0.00    +0.109 C 
BRANCH  28  29
ATOM     29  N   UNL     1       4.851  -2.995  26.625  0.00  0.00    -0.275 N 
ATOM     30  H   UNL     1       4.086  -3.529  27.018  0.00  0.00    +0.152 HD
ATOM     31  C   UNL     1       6.072  -3.348  27.105  0.00  0.00    +0.401 C 
ATOM     32  O   UNL     1       7.147  -2.945  26.679  0.00  0.00    -0.226 OA
BRANCH  31  33
ATOM     33  O   UNL     1       5.914  -4.240  28.115  0.00  0.00    -0.445 OA
BRANCH  33  34
ATOM     34  C   UNL     1       6.428  -5.565  27.871  0.00  0.00    +0.206 C 
ATOM     35  C   UNL     1       6.068  -6.453  29.058  0.00  0.00    +0.204 C 
ATOM     36  O   UNL     1       4.836  -7.130  28.749  0.00  0.00    -0.376 OA
ATOM     37  C   UNL     1       4.448  -6.767  27.420  0.00  0.00    +0.163 C 
ATOM     38  C   UNL     1       5.693  -6.245  26.735  0.00  0.00    +0.075 C 
ENDBRANCH  33  34
ENDBRANCH  31  33
ENDBRANCH  28  29
BRANCH  28  39
ATOM     39  C   UNL     1       4.755  -3.326  24.163  0.00  0.00    +0.060 C 
BRANCH  39  40
ATOM     40  C   UNL     1       3.661  -4.377  24.186  0.00  0.00    -0.046 A 
ATOM     41  C   UNL     1       3.851  -5.616  23.558  0.00  0.00    +0.004 A 
ATOM     42  C   UNL     1       2.880  -6.617  23.653  0.00  0.00    +0.000 A 
ATOM     43  C   UNL     1       1.705  -6.387  24.365  0.00  0.00    +0.000 A 
ATOM     44  C   UNL     1       1.485  -5.146  24.956  0.00  0.00    +0.000 A 
ATOM     45  C   UNL     1       2.452  -4.142  24.860  0.00  0.00    +0.004 A 
ENDBRANCH  39  40
ENDBRANCH  28  39
ENDBRANCH  25  28
ENDBRANCH  24  25
ENDBRANCH   4  24
BRANCH   4  46
ATOM     46  C   UNL     1       8.853  -2.371  23.876  0.00  0.00    +0.065 C 
BRANCH  46  47
ATOM     47  C   UNL     1       8.168  -3.633  23.364  0.00  0.00    -0.045 A 
ATOM     48  C   UNL     1       8.212  -4.853  24.048  0.00  0.00    +0.004 A 
ATOM     49  C   UNL     1       7.669  -6.017  23.503  0.00  0.00    +0.000 A 
ATOM     50  C   UNL     1       7.094  -5.990  22.235  0.00  0.00    +0.000 A 
ATOM     51  C   UNL     1       7.035  -4.790  21.538  0.00  0.00    +0.000 A 
ATOM     52  C   UNL     1       7.568  -3.620  22.090  0.00  0.00    +0.004 A 
ENDBRANCH  46  47
ENDBRANCH   4  46
TORSDOF 16
ENDMDL
MODEL 5
REMARK VINA RESULT:      -6.1      2.440      5.803
REMARK  Name = 
REMARK  16 active torsions:
REMARK  status: ('A' for Active; 'I' for Inactive)
REMARK    1  A    between atoms: N_1  and  C_2
REMARK    2  A    between atoms: C_2  and  O_4
REMARK    3  A    between atoms: C_2  and  O_5
REMARK    4  A    between atoms: O_5  and  C_6
REMARK    5  A    between atoms: C_15  and  C_16
REMARK    6  A    between atoms: C_20  and  C_21
REMARK    7  A    between atoms: C_20  and  C_44
REMARK    8  A    between atoms: C_21  and  C_22
REMARK    9  A    between atoms: C_22  and  O_24
REMARK   10  A    between atoms: C_22  and  C_25
REMARK   11  A    between atoms: C_25  and  C_27
REMARK   12  A    between atoms: C_25  and  N_34
REMARK   13  A    between atoms: C_27  and  C_28
REMARK   14  A    between atoms: C_35  and  O_37
REMARK   15  A    between atoms: O_37  and  C_38
REMARK   16  A    between atoms: C_44  and  C_45
REMARK                            x       y       z     vdW  Elec       q    Type
REMARK                         _______ _______ _______ _____ _____    ______ ____
ROOT
ATOM      1  C   UNL     1       6.966   0.840  25.197  0.00  0.00    +0.081 C 
ATOM      2  C   UNL     1       6.540   0.544  26.629  0.00  0.00    +0.159 C 
ATOM      3  O   UNL     1       6.887   1.214  27.596  0.00  0.00    -0.295 OA
ATOM      4  C   UNL     1       5.593  -0.672  26.700  0.00  0.00    +0.085 C 
ATOM      5  N   UNL     1       5.302  -0.855  25.245  0.00  0.00    -0.303 NA
ATOM      6  H   UNL     1       5.110  -1.829  25.028  0.00  0.00    +0.123 HD
ATOM      7  C   UNL     1       6.503  -0.430  24.511  0.00  0.00    +0.093 C 
ENDROOT
BRANCH   1   9
ATOM      8  C   UNL     1       9.430   0.731  23.999  0.00  0.00    +0.135 C 
ATOM      9  C   UNL     1       8.455   1.255  25.125  0.00  0.00    +0.060 C 
ATOM     10  C   UNL     1       8.569   2.759  24.982  0.00  0.00    -0.038 A 
ATOM     11  C   UNL     1       9.458   3.125  23.979  0.00  0.00    -0.041 A 
ATOM     12  C   UNL     1       9.637   4.452  23.622  0.00  0.00    +0.004 A 
ATOM     13  C   UNL     1       8.922   5.428  24.307  0.00  0.00    +0.000 A 
ATOM     14  C   UNL     1       8.072   5.074  25.363  0.00  0.00    +0.000 A 
ATOM     15  C   UNL     1       7.904   3.734  25.715  0.00  0.00    +0.004 A 
ATOM     16  C   UNL     1      10.172   1.955  23.404  0.00  0.00    +0.067 C 
BRANCH   8  17
ATOM     17  O   UNL     1       8.818  -0.063  22.979  0.00  0.00    -0.335 OA
BRANCH  17  18
ATOM     18  C   UNL     1       9.374  -1.362  22.826  0.00  0.00    +0.323 C 
BRANCH  18  19
ATOM     19  N   UNL     1      10.255  -1.431  21.700  0.00  0.00    -0.283 NA
ATOM     20  H   UNL     1      10.545  -2.392  21.564  0.00  0.00    +0.123 HD
ATOM     21  H   UNL     1       9.750  -1.123  20.874  0.00  0.00    +0.123 HD
ENDBRANCH  18  19
BRANCH  18  22
ATOM     22  O   UNL     1      10.122  -1.679  23.968  0.00  0.00    -0.355 OA
ATOM     23  H   UNL     1      10.941  -1.173  23.892  0.00  0.00    +0.214 HD
ENDBRANCH  18  22
ENDBRANCH  17  18
ENDBRANCH   8  17
ENDBRANCH   1   9
BRANCH   4  24
ATOM     24  C   UNL     1       6.355  -1.926  27.220  0.00  0.00    +0.063 C 
BRANCH  24  25
ATOM     25  C   UNL     1       7.363  -2.620  26.286  0.00  0.00    +0.137 C 
BRANCH  25  26
ATOM     26  O   UNL     1       8.682  -2.142  26.551  0.00  0.00    -0.390 OA
ATOM     27  H   UNL     1       9.300  -2.898  26.523  0.00  0.00    +0.210 HD
ENDBRANCH  25  26
BRANCH  25  28
ATOM     28  C   UNL     1       7.361  -4.182  26.429  0.00  0.00    +0.109 C 
BRANCH  28  29
ATOM     29  N   UNL     1       7.270  -4.778  25.093  0.00  0.00    -0.275 N 
ATOM     30  H   UNL     1       6.361  -4.922  24.672  0.00  0.00    +0.152 HD
ATOM     31  C   UNL     1       8.289  -4.724  24.195  0.00  0.00    +0.401 C 
ATOM     32  O   UNL     1       9.446  -4.419  24.451  0.00  0.00    -0.226 OA
BRANCH  31  33
ATOM     33  O   UNL     1       7.815  -5.034  22.962  0.00  0.00    -0.445 OA
BRANCH  33  34
ATOM     34  C   UNL     1       6.387  -4.934  22.793  0.00  0.00    +0.206 C 
ATOM     35  C   UNL     1       6.093  -3.866  21.744  0.00  0.00    +0.204 C 
ATOM     36  O   UNL     1       5.960  -4.521  20.469  0.00  0.00    -0.376 OA
ATOM     37  C   UNL     1       6.085  -5.932  20.677  0.00  0.00    +0.163 C 
ATOM     38  C   UNL     1       5.815  -6.177  22.145  0.00  0.00    +0.075 C 
ENDBRANCH  33  34
ENDBRANCH  31  33
ENDBRANCH  28  29
BRANCH  28  39
ATOM     39  C   UNL     1       6.250  -4.722  27.359  0.00  0.00    +0.060 C 
BRANCH  39  40
ATOM     40  C   UNL     1       5.050  -5.274  26.614  0.00  0.00    -0.046 A 
ATOM     41  C   UNL     1       4.185  -4.415  25.921  0.00  0.00    +0.004 A 
ATOM     42  C   UNL     1       3.130  -4.928  25.162  0.00  0.00    +0.000 A 
ATOM     43  C   UNL     1       2.921  -6.304  25.096  0.00  0.00    +0.000 A 
ATOM     44  C   UNL     1       3.745  -7.165  25.815  0.00  0.00    +0.000 A 
ATOM     45  C   UNL     1       4.799  -6.654  26.577  0.00  0.00    +0.004 A 
ENDBRANCH  39  40
ENDBRANCH  28  39
ENDBRANCH  25  28
ENDBRANCH  24  25
ENDBRANCH   4  24
BRANCH   4  46
ATOM     46  C   UNL     1       4.309  -0.272  27.488  0.00  0.00    +0.065 C 
BRANCH  46  47
ATOM     47  C   UNL     1       3.267  -1.326  27.841  0.00  0.00    -0.045 A 
ATOM     48  C   UNL     1       3.439  -2.249  28.879  0.00  0.00    +0.004 A 
ATOM     49  C   UNL     1       2.518  -3.272  29.109  0.00  0.00    +0.000 A 
ATOM     50  C   UNL     1       1.411  -3.412  28.277  0.00  0.00    +0.000 A 
ATOM     51  C   UNL     1       1.215  -2.505  27.243  0.00  0.00    +0.000 A 
ATOM     52  C   UNL     1       2.132  -1.473  27.020  0.00  0.00    +0.004 A 
ENDBRANCH  46  47
ENDBRANCH   4  46
TORSDOF 16
ENDMDL
MODEL 6
REMARK VINA RESULT:      -5.8      2.548      8.504
REMARK  Name = 
REMARK  16 active torsions:
REMARK  status: ('A' for Active; 'I' for Inactive)
REMARK    1  A    between atoms: N_1  and  C_2
REMARK    2  A    between atoms: C_2  and  O_4
REMARK    3  A    between atoms: C_2  and  O_5
REMARK    4  A    between atoms: O_5  and  C_6
REMARK    5  A    between atoms: C_15  and  C_16
REMARK    6  A    between atoms: C_20  and  C_21
REMARK    7  A    between atoms: C_20  and  C_44
REMARK    8  A    between atoms: C_21  and  C_22
REMARK    9  A    between atoms: C_22  and  O_24
REMARK   10  A    between atoms: C_22  and  C_25
REMARK   11  A    between atoms: C_25  and  C_27
REMARK   12  A    between atoms: C_25  and  N_34
REMARK   13  A    between atoms: C_27  and  C_28
REMARK   14  A    between atoms: C_35  and  O_37
REMARK   15  A    between atoms: O_37  and  C_38
REMARK   16  A    between atoms: C_44  and  C_45
REMARK                            x       y       z     vdW  Elec       q    Type
REMARK                         _______ _______ _______ _____ _____    ______ ____
ROOT
ATOM      1  C   UNL     1       6.267  -1.394  27.074  0.00  0.00    +0.081 C 
ATOM      2  C   UNL     1       5.753  -0.401  26.040  0.00  0.00    +0.159 C 
ATOM      3  O   UNL     1       4.591  -0.365  25.647  0.00  0.00    -0.295 OA
ATOM      4  C   UNL     1       6.863   0.570  25.584  0.00  0.00    +0.085 C 
ATOM      5  N   UNL     1       7.914   0.251  26.598  0.00  0.00    -0.303 NA
ATOM      6  H   UNL     1       8.846   0.400  26.221  0.00  0.00    +0.123 HD
ATOM      7  C   UNL     1       7.761  -1.170  26.942  0.00  0.00    +0.093 C 
ENDROOT
BRANCH   1   9
ATOM      8  C   UNL     1       6.562  -4.035  26.400  0.00  0.00    +0.135 C 
ATOM      9  C   UNL     1       5.677  -2.805  26.844  0.00  0.00    +0.060 C 
ATOM     10  C   UNL     1       5.029  -3.312  28.116  0.00  0.00    -0.038 A 
ATOM     11  C   UNL     1       5.406  -4.615  28.415  0.00  0.00    -0.041 A 
ATOM     12  C   UNL     1       5.001  -5.234  29.587  0.00  0.00    +0.004 A 
ATOM     13  C   UNL     1       4.180  -4.531  30.461  0.00  0.00    +0.000 A 
ATOM     14  C   UNL     1       3.741  -3.240  30.138  0.00  0.00    +0.000 A 
ATOM     15  C   UNL     1       4.153  -2.630  28.953  0.00  0.00    +0.004 A 
ATOM     16  C   UNL     1       6.232  -5.223  27.339  0.00  0.00    +0.067 C 
BRANCH   8  17
ATOM     17  O   UNL     1       7.969  -3.787  26.337  0.00  0.00    -0.335 OA
BRANCH  17  18
ATOM     18  C   UNL     1       8.777  -4.956  26.322  0.00  0.00    +0.323 C 
BRANCH  18  19
ATOM     19  N   UNL     1       9.254  -5.254  25.007  0.00  0.00    -0.283 NA
ATOM     20  H   UNL     1      10.010  -4.622  24.777  0.00  0.00    +0.123 HD
ATOM     21  H   UNL     1       9.610  -6.206  24.998  0.00  0.00    +0.123 HD
ENDBRANCH  18  19
BRANCH  18  22
ATOM     22  O   UNL     1       9.896  -4.753  27.142  0.00  0.00    -0.355 OA
ATOM     23  H   UNL     1       9.719  -5.248  27.952  0.00  0.00    +0.214 HD
ENDBRANCH  18  22
ENDBRANCH  17  18
ENDBRANCH   8  17
ENDBRANCH   1   9
BRANCH   4  24
ATOM     24  C   UNL     1       7.389   0.171  24.174  0.00  0.00    +0.063 C 
BRANCH  24  25
ATOM     25  C   UNL     1       6.918  -1.158  23.557  0.00  0.00    +0.137 C 
BRANCH  25  26
ATOM     26  O   UNL     1       6.032  -0.903  22.467  0.00  0.00    -0.390 OA
ATOM     27  H   UNL     1       5.976   0.062  22.329  0.00  0.00    +0.210 HD
ENDBRANCH  25  26
BRANCH  25  28
ATOM     28  C   UNL     1       8.100  -2.051  23.039  0.00  0.00    +0.109 C 
BRANCH  28  29
ATOM     29  N   UNL     1       7.770  -3.458  23.285  0.00  0.00    -0.275 N 
ATOM     30  H   UNL     1       7.916  -3.852  24.205  0.00  0.00    +0.152 HD
ATOM     31  C   UNL     1       6.868  -4.142  22.531  0.00  0.00    +0.401 C 
ATOM     32  O   UNL     1       6.427  -3.780  21.449  0.00  0.00    -0.226 OA
BRANCH  31  33
ATOM     33  O   UNL     1       6.512  -5.278  23.182  0.00  0.00    -0.445 OA
BRANCH  33  34
ATOM     34  C   UNL     1       5.223  -5.823  22.838  0.00  0.00    +0.206 C 
ATOM     35  C   UNL     1       4.831  -6.851  23.895  0.00  0.00    +0.204 C 
ATOM     36  O   UNL     1       4.023  -6.186  24.884  0.00  0.00    -0.376 OA
ATOM     37  C   UNL     1       3.836  -4.829  24.468  0.00  0.00    +0.163 C 
ATOM     38  C   UNL     1       4.126  -4.790  22.983  0.00  0.00    +0.075 C 
ENDBRANCH  33  34
ENDBRANCH  31  33
ENDBRANCH  28  29
BRANCH  28  39
ATOM     39  C   UNL     1       9.472  -1.684  23.651  0.00  0.00    +0.060 C 
BRANCH  39  40
ATOM     40  C   UNL     1       9.929  -0.277  23.315  0.00  0.00    -0.046 A 
ATOM     41  C   UNL     1       9.714   0.255  22.036  0.00  0.00    +0.004 A 
ATOM     42  C   UNL     1      10.055   1.580  21.751  0.00  0.00    +0.000 A 
ATOM     43  C   UNL     1      10.624   2.384  22.737  0.00  0.00    +0.000 A 
ATOM     44  C   UNL     1      10.883   1.854  23.998  0.00  0.00    +0.000 A 
ATOM     45  C   UNL     1      10.546   0.529  24.285  0.00  0.00    +0.004 A 
ENDBRANCH  39  40
ENDBRANCH  28  39
ENDBRANCH  25  28
ENDBRANCH  24  25
ENDBRANCH   4  24
BRANCH   4  46
ATOM     46  C   UNL     1       6.352   2.034  25.738  0.00  0.00    +0.065 C 
BRANCH  46  47
ATOM     47  C   UNL     1       7.023   3.165  24.967  0.00  0.00    -0.045 A 
ATOM     48  C   UNL     1       6.730   3.452  23.629  0.00  0.00    +0.004 A 
ATOM     49  C   UNL     1       7.438   4.421  22.917  0.00  0.00    +0.000 A 
ATOM     50  C   UNL     1       8.485   5.107  23.527  0.00  0.00    +0.000 A 
ATOM     51  C   UNL     1       8.792   4.844  24.855  0.00  0.00    +0.000 A 
ATOM     52  C   UNL     1       8.075   3.881  25.573  0.00  0.00    +0.004 A 
ENDBRANCH  46  47
ENDBRANCH   4  46
TORSDOF 16
ENDMDL
MODEL 7
REMARK VINA RESULT:      -5.8      2.304      7.003
REMARK  Name = 
REMARK  16 active torsions:
REMARK  status: ('A' for Active; 'I' for Inactive)
REMARK    1  A    between atoms: N_1  and  C_2
REMARK    2  A    between atoms: C_2  and  O_4
REMARK    3  A    between atoms: C_2  and  O_5
REMARK    4  A    between atoms: O_5  and  C_6
REMARK    5  A    between atoms: C_15  and  C_16
REMARK    6  A    between atoms: C_20  and  C_21
REMARK    7  A    between atoms: C_20  and  C_44
REMARK    8  A    between atoms: C_21  and  C_22
REMARK    9  A    between atoms: C_22  and  O_24
REMARK   10  A    between atoms: C_22  and  C_25
REMARK   11  A    between atoms: C_25  and  C_27
REMARK   12  A    between atoms: C_25  and  N_34
REMARK   13  A    between atoms: C_27  and  C_28
REMARK   14  A    between atoms: C_35  and  O_37
REMARK   15  A    between atoms: O_37  and  C_38
REMARK   16  A    between atoms: C_44  and  C_45
REMARK                            x       y       z     vdW  Elec       q    Type
REMARK                         _______ _______ _______ _____ _____    ______ ____
ROOT
ATOM      1  C   UNL     1       6.109  -4.532  22.965  0.00  0.00    +0.081 C 
ATOM      2  C   UNL     1       7.463  -3.877  23.208  0.00  0.00    +0.159 C 
ATOM      3  O   UNL     1       8.499  -4.505  23.400  0.00  0.00    -0.295 OA
ATOM      4  C   UNL     1       7.370  -2.338  23.145  0.00  0.00    +0.085 C 
ATOM      5  N   UNL     1       5.989  -2.189  22.591  0.00  0.00    -0.303 NA
ATOM      6  H   UNL     1       5.558  -1.323  22.907  0.00  0.00    +0.123 HD
ATOM      7  C   UNL     1       5.200  -3.324  23.091  0.00  0.00    +0.093 C 
ENDROOT
BRANCH   1   9
ATOM      8  C   UNL     1       6.408  -5.788  25.383  0.00  0.00    +0.135 C 
ATOM      9  C   UNL     1       5.898  -5.754  23.890  0.00  0.00    +0.060 C 
ATOM     10  C   UNL     1       4.418  -6.039  24.044  0.00  0.00    -0.038 A 
ATOM     11  C   UNL     1       4.057  -6.240  25.370  0.00  0.00    -0.041 A 
ATOM     12  C   UNL     1       2.733  -6.421  25.739  0.00  0.00    +0.004 A 
ATOM     13  C   UNL     1       1.760  -6.424  24.746  0.00  0.00    +0.000 A 
ATOM     14  C   UNL     1       2.121  -6.287  23.399  0.00  0.00    +0.000 A 
ATOM     15  C   UNL     1       3.458  -6.109  23.041  0.00  0.00    +0.004 A 
ATOM     16  C   UNL     1       5.234  -6.263  26.277  0.00  0.00    +0.067 C 
BRANCH   8  17
ATOM     17  O   UNL     1       6.978  -4.568  25.865  0.00  0.00    -0.335 OA
BRANCH  17  18
ATOM     18  C   UNL     1       8.057  -4.737  26.775  0.00  0.00    +0.323 C 
BRANCH  18  19
ATOM     19  N   UNL     1       9.054  -5.623  26.256  0.00  0.00    -0.283 NA
ATOM     20  H   UNL     1       9.767  -5.080  25.784  0.00  0.00    +0.123 HD
ATOM     21  H   UNL     1       9.482  -6.120  27.032  0.00  0.00    +0.123 HD
ENDBRANCH  18  19
BRANCH  18  22
ATOM     22  O   UNL     1       8.669  -3.496  26.999  0.00  0.00    -0.355 OA
ATOM     23  H   UNL     1       9.618  -3.671  27.006  0.00  0.00    +0.214 HD
ENDBRANCH  18  22
ENDBRANCH  17  18
ENDBRANCH   8  17
ENDBRANCH   1   9
BRANCH   4  24
ATOM     24  C   UNL     1       7.403  -1.732  24.578  0.00  0.00    +0.063 C 
BRANCH  24  25
ATOM     25  C   UNL     1       6.580  -0.463  24.865  0.00  0.00    +0.137 C 
BRANCH  25  26
ATOM     26  O   UNL     1       6.097   0.092  23.642  0.00  0.00    -0.390 OA
ATOM     27  H   UNL     1       6.080  -0.611  22.965  0.00  0.00    +0.210 HD
ENDBRANCH  25  26
BRANCH  25  28
ATOM     28  C   UNL     1       5.356  -0.723  25.811  0.00  0.00    +0.109 C 
BRANCH  28  29
ATOM     29  N   UNL     1       5.256   0.382  26.769  0.00  0.00    -0.275 N 
ATOM     30  H   UNL     1       5.861   0.396  27.580  0.00  0.00    +0.152 HD
ATOM     31  C   UNL     1       4.763   1.603  26.431  0.00  0.00    +0.401 C 
ATOM     32  O   UNL     1       4.130   1.857  25.414  0.00  0.00    -0.226 OA
BRANCH  31  33
ATOM     33  O   UNL     1       5.107   2.504  27.385  0.00  0.00    -0.445 OA
BRANCH  33  34
ATOM     34  C   UNL     1       6.492   2.497  27.788  0.00  0.00    +0.206 C 
ATOM     35  C   UNL     1       7.279   3.395  26.838  0.00  0.00    +0.204 C 
ATOM     36  O   UNL     1       7.359   4.705  27.430  0.00  0.00    -0.376 OA
ATOM     37  C   UNL     1       6.729   4.653  28.715  0.00  0.00    +0.163 C 
ATOM     38  C   UNL     1       6.688   3.194  29.117  0.00  0.00    +0.075 C 
ENDBRANCH  33  34
ENDBRANCH  31  33
ENDBRANCH  28  29
BRANCH  28  39
ATOM     39  C   UNL     1       5.407  -2.088  26.536  0.00  0.00    +0.060 C 
BRANCH  39  40
ATOM     40  C   UNL     1       4.044  -2.610  26.947  0.00  0.00    -0.046 A 
ATOM     41  C   UNL     1       2.954  -2.523  26.068  0.00  0.00    +0.004 A 
ATOM     42  C   UNL     1       1.720  -3.082  26.410  0.00  0.00    +0.000 A 
ATOM     43  C   UNL     1       1.557  -3.722  27.636  0.00  0.00    +0.000 A 
ATOM     44  C   UNL     1       2.618  -3.777  28.536  0.00  0.00    +0.000 A 
ATOM     45  C   UNL     1       3.853  -3.216  28.198  0.00  0.00    +0.004 A 
ENDBRANCH  39  40
ENDBRANCH  28  39
ENDBRANCH  25  28
ENDBRANCH  24  25
ENDBRANCH   4  24
BRANCH   4  46
ATOM     46  C   UNL     1       8.442  -1.805  22.147  0.00  0.00    +0.065 C 
BRANCH  46  47
ATOM     47  C   UNL     1       9.256  -0.563  22.490  0.00  0.00    -0.045 A 
ATOM     48  C   UNL     1      10.107  -0.493  23.599  0.00  0.00    +0.004 A 
ATOM     49  C   UNL     1      10.756   0.692  23.950  0.00  0.00    +0.000 A 
ATOM     50  C   UNL     1      10.539   1.850  23.209  0.00  0.00    +0.000 A 
ATOM     51  C   UNL     1       9.703   1.805  22.100  0.00  0.00    +0.000 A 
ATOM     52  C   UNL     1       9.062   0.615  21.742  0.00  0.00    +0.004 A 
ENDBRANCH  46  47
ENDBRANCH   4  46
TORSDOF 16
ENDMDL
MODEL 8
REMARK VINA RESULT:      -5.8      1.921      7.823
REMARK  Name = 
REMARK  16 active torsions:
REMARK  status: ('A' for Active; 'I' for Inactive)
REMARK    1  A    between atoms: N_1  and  C_2
REMARK    2  A    between atoms: C_2  and  O_4
REMARK    3  A    between atoms: C_2  and  O_5
REMARK    4  A    between atoms: O_5  and  C_6
REMARK    5  A    between atoms: C_15  and  C_16
REMARK    6  A    between atoms: C_20  and  C_21
REMARK    7  A    between atoms: C_20  and  C_44
REMARK    8  A    between atoms: C_21  and  C_22
REMARK    9  A    between atoms: C_22  and  O_24
REMARK   10  A    between atoms: C_22  and  C_25
REMARK   11  A    between atoms: C_25  and  C_27
REMARK   12  A    between atoms: C_25  and  N_34
REMARK   13  A    between atoms: C_27  and  C_28
REMARK   14  A    between atoms: C_35  and  O_37
REMARK   15  A    between atoms: O_37  and  C_38
REMARK   16  A    between atoms: C_44  and  C_45
REMARK                            x       y       z     vdW  Elec       q    Type
REMARK                         _______ _______ _______ _____ _____    ______ ____
ROOT
ATOM      1  C   UNL     1       6.894  -3.873  25.167  0.00  0.00    +0.081 C 
ATOM      2  C   UNL     1       7.970  -2.879  25.585  0.00  0.00    +0.159 C 
ATOM      3  O   UNL     1       8.722  -3.050  26.540  0.00  0.00    -0.295 OA
ATOM      4  C   UNL     1       8.016  -1.661  24.640  0.00  0.00    +0.085 C 
ATOM      5  N   UNL     1       7.126  -2.154  23.545  0.00  0.00    -0.303 NA
ATOM      6  H   UNL     1       6.649  -1.383  23.084  0.00  0.00    +0.123 HD
ATOM      7  C   UNL     1       6.125  -3.032  24.167  0.00  0.00    +0.093 C 
ENDROOT
BRANCH   1   9
ATOM      8  C   UNL     1       5.413  -3.570  27.454  0.00  0.00    +0.135 C 
ATOM      9  C   UNL     1       6.165  -4.467  26.395  0.00  0.00    +0.060 C 
ATOM     10  C   UNL     1       5.078  -5.420  25.943  0.00  0.00    -0.038 A 
ATOM     11  C   UNL     1       3.874  -5.193  26.599  0.00  0.00    -0.041 A 
ATOM     12  C   UNL     1       2.726  -5.893  26.264  0.00  0.00    +0.004 A 
ATOM     13  C   UNL     1       2.801  -6.857  25.266  0.00  0.00    +0.000 A 
ATOM     14  C   UNL     1       4.025  -7.139  24.643  0.00  0.00    +0.000 A 
ATOM     15  C   UNL     1       5.174  -6.430  24.993  0.00  0.00    +0.004 A 
ATOM     16  C   UNL     1       4.001  -4.172  27.672  0.00  0.00    +0.067 C 
BRANCH   8  17
ATOM     17  O   UNL     1       5.349  -2.176  27.140  0.00  0.00    -0.335 OA
BRANCH  17  18
ATOM     18  C   UNL     1       4.169  -1.521  27.589  0.00  0.00    +0.323 C 
BRANCH  18  19
ATOM     19  N   UNL     1       4.374  -0.863  28.843  0.00  0.00    -0.283 NA
ATOM     20  H   UNL     1       5.276  -1.131  29.216  0.00  0.00    +0.123 HD
ATOM     21  H   UNL     1       4.370   0.141  28.686  0.00  0.00    +0.123 HD
ENDBRANCH  18  19
BRANCH  18  22
ATOM     22  O   UNL     1       3.801  -0.545  26.654  0.00  0.00    -0.355 OA
ATOM     23  H   UNL     1       4.223   0.272  26.948  0.00  0.00    +0.214 HD
ENDBRANCH  18  22
ENDBRANCH  17  18
ENDBRANCH   8  17
ENDBRANCH   1   9
BRANCH   4  24
ATOM     24  C   UNL     1       7.349  -0.425  25.311  0.00  0.00    +0.063 C 
BRANCH  24  25
ATOM     25  C   UNL     1       6.550   0.553  24.432  0.00  0.00    +0.137 C 
BRANCH  25  26
ATOM     26  O   UNL     1       5.191   0.125  24.336  0.00  0.00    -0.390 OA
ATOM     27  H   UNL     1       4.614   0.913  24.338  0.00  0.00    +0.210 HD
ENDBRANCH  25  26
BRANCH  25  28
ATOM     28  C   UNL     1       6.571   2.026  24.972  0.00  0.00    +0.109 C 
BRANCH  28  29
ATOM     29  N   UNL     1       5.546   2.162  26.011  0.00  0.00    -0.275 N 
ATOM     30  H   UNL     1       4.602   1.849  25.825  0.00  0.00    +0.152 HD
ATOM     31  C   UNL     1       5.849   2.239  27.334  0.00  0.00    +0.401 C 
ATOM     32  O   UNL     1       6.961   2.455  27.797  0.00  0.00    -0.226 OA
BRANCH  31  33
ATOM     33  O   UNL     1       4.728   2.010  28.063  0.00  0.00    -0.445 OA
BRANCH  33  34
ATOM     34  C   UNL     1       4.453   2.962  29.111  0.00  0.00    +0.206 C 
ATOM     35  C   UNL     1       3.816   4.201  28.488  0.00  0.00    +0.204 C 
ATOM     36  O   UNL     1       2.386   4.055  28.570  0.00  0.00    -0.376 OA
ATOM     37  C   UNL     1       2.102   2.835  29.264  0.00  0.00    +0.163 C 
ATOM     38  C   UNL     1       3.355   2.473  30.031  0.00  0.00    +0.075 C 
ENDBRANCH  33  34
ENDBRANCH  31  33
ENDBRANCH  28  29
BRANCH  28  39
ATOM     39  C   UNL     1       6.395   3.096  23.869  0.00  0.00    +0.060 C 
BRANCH  39  40
ATOM     40  C   UNL     1       7.427   4.207  23.930  0.00  0.00    -0.046 A 
ATOM     41  C   UNL     1       8.262   4.341  25.048  0.00  0.00    +0.004 A 
ATOM     42  C   UNL     1       9.272   5.307  25.069  0.00  0.00    +0.000 A 
ATOM     43  C   UNL     1       9.449   6.157  23.980  0.00  0.00    +0.000 A 
ATOM     44  C   UNL     1       8.599   6.062  22.882  0.00  0.00    +0.000 A 
ATOM     45  C   UNL     1       7.587   5.100  22.860  0.00  0.00    +0.004 A 
ENDBRANCH  39  40
ENDBRANCH  28  39
ENDBRANCH  25  28
ENDBRANCH  24  25
ENDBRANCH   4  24
BRANCH   4  46
ATOM     46  C   UNL     1       9.479  -1.464  24.137  0.00  0.00    +0.065 C 
BRANCH  46  47
ATOM     47  C   UNL     1       9.929  -0.109  23.605  0.00  0.00    -0.045 A 
ATOM     48  C   UNL     1      10.622   0.823  24.386  0.00  0.00    +0.004 A 
ATOM     49  C   UNL     1      10.926   2.098  23.906  0.00  0.00    +0.000 A 
ATOM     50  C   UNL     1      10.511   2.480  22.633  0.00  0.00    +0.000 A 
ATOM     51  C   UNL     1       9.827   1.571  21.836  0.00  0.00    +0.000 A 
ATOM     52  C   UNL     1       9.532   0.289  22.313  0.00  0.00    +0.004 A 
ENDBRANCH  46  47
ENDBRANCH   4  46
TORSDOF 16
ENDMDL
MODEL 9
REMARK VINA RESULT:      -5.7      2.546      5.419
REMARK  Name = 
REMARK  16 active torsions:
REMARK  status: ('A' for Active; 'I' for Inactive)
REMARK    1  A    between atoms: N_1  and  C_2
REMARK    2  A    between atoms: C_2  and  O_4
REMARK    3  A    between atoms: C_2  and  O_5
REMARK    4  A    between atoms: O_5  and  C_6
REMARK    5  A    between atoms: C_15  and  C_16
REMARK    6  A    between atoms: C_20  and  C_21
REMARK    7  A    between atoms: C_20  and  C_44
REMARK    8  A    between atoms: C_21  and  C_22
REMARK    9  A    between atoms: C_22  and  O_24
REMARK   10  A    between atoms: C_22  and  C_25
REMARK   11  A    between atoms: C_25  and  C_27
REMARK   12  A    between atoms: C_25  and  N_34
REMARK   13  A    between atoms: C_27  and  C_28
REMARK   14  A    between atoms: C_35  and  O_37
REMARK   15  A    between atoms: O_37  and  C_38
REMARK   16  A    between atoms: C_44  and  C_45
REMARK                            x       y       z     vdW  Elec       q    Type
REMARK                         _______ _______ _______ _____ _____    ______ ____
ROOT
ATOM      1  C   UNL     1       7.300   3.865  26.550  0.00  0.00    +0.081 C 
ATOM      2  C   UNL     1       7.830   3.174  25.301  0.00  0.00    +0.159 C 
ATOM      3  O   UNL     1       8.190   3.772  24.292  0.00  0.00    -0.295 OA
ATOM      4  C   UNL     1       7.891   1.643  25.480  0.00  0.00    +0.085 C 
ATOM      5  N   UNL     1       7.640   1.548  26.951  0.00  0.00    -0.303 NA
ATOM      6  H   UNL     1       7.177   0.675  27.189  0.00  0.00    +0.123 HD
ATOM      7  C   UNL     1       6.759   2.669  27.309  0.00  0.00    +0.093 C 
ENDROOT
BRANCH   1   9
ATOM      8  C   UNL     1       4.953   4.823  25.508  0.00  0.00    +0.135 C 
ATOM      9  C   UNL     1       6.359   5.039  26.191  0.00  0.00    +0.060 C 
ATOM     10  C   UNL     1       5.998   5.817  27.440  0.00  0.00    -0.038 A 
ATOM     11  C   UNL     1       4.635   6.069  27.527  0.00  0.00    -0.041 A 
ATOM     12  C   UNL     1       4.084   6.685  28.640  0.00  0.00    +0.004 A 
ATOM     13  C   UNL     1       4.929   7.074  29.672  0.00  0.00    +0.000 A 
ATOM     14  C   UNL     1       6.313   6.883  29.566  0.00  0.00    +0.000 A 
ATOM     15  C   UNL     1       6.856   6.266  28.438  0.00  0.00    +0.004 A 
ATOM     16  C   UNL     1       3.903   5.636  26.308  0.00  0.00    +0.067 C 
BRANCH   8  17
ATOM     17  O   UNL     1       4.552   3.459  25.347  0.00  0.00    -0.335 OA
BRANCH  17  18
ATOM     18  C   UNL     1       3.436   3.267  24.488  0.00  0.00    +0.323 C 
BRANCH  18  19
ATOM     19  N   UNL     1       3.800   2.563  23.296  0.00  0.00    -0.283 NA
ATOM     20  H   UNL     1       3.620   3.154  22.494  0.00  0.00    +0.123 HD
ATOM     21  H   UNL     1       4.794   2.355  23.332  0.00  0.00    +0.123 HD
ENDBRANCH  18  19
BRANCH  18  22
ATOM     22  O   UNL     1       2.470   2.500  25.153  0.00  0.00    -0.355 OA
ATOM     23  H   UNL     1       1.942   3.128  25.660  0.00  0.00    +0.214 HD
ENDBRANCH  18  22
ENDBRANCH  17  18
ENDBRANCH   8  17
ENDBRANCH   1   9
BRANCH   4  24
ATOM     24  C   UNL     1       6.713   0.959  24.726  0.00  0.00    +0.063 C 
BRANCH  24  25
ATOM     25  C   UNL     1       5.842  -0.060  25.481  0.00  0.00    +0.137 C 
BRANCH  25  26
ATOM     26  O   UNL     1       4.573   0.517  25.791  0.00  0.00    -0.390 OA
ATOM     27  H   UNL     1       4.409   0.417  26.748  0.00  0.00    +0.210 HD
ENDBRANCH  25  26
BRANCH  25  28
ATOM     28  C   UNL     1       5.603  -1.385  24.676  0.00  0.00    +0.109 C 
BRANCH  28  29
ATOM     29  N   UNL     1       5.731  -2.523  25.591  0.00  0.00    -0.275 N 
ATOM     30  H   UNL     1       6.571  -2.625  26.145  0.00  0.00    +0.152 HD
ATOM     31  C   UNL     1       4.654  -3.181  26.097  0.00  0.00    +0.401 C 
ATOM     32  O   UNL     1       3.507  -3.090  25.683  0.00  0.00    -0.226 OA
BRANCH  31  33
ATOM     33  O   UNL     1       5.049  -3.935  27.154  0.00  0.00    -0.445 OA
BRANCH  33  34
ATOM     34  C   UNL     1       6.063  -4.923  26.880  0.00  0.00    +0.206 C 
ATOM     35  C   UNL     1       6.280  -5.760  28.137  0.00  0.00    +0.204 C 
ATOM     36  O   UNL     1       5.449  -6.931  28.040  0.00  0.00    -0.376 OA
ATOM     37  C   UNL     1       4.784  -6.902  26.773  0.00  0.00    +0.163 C 
ATOM     38  C   UNL     1       5.575  -5.960  25.891  0.00  0.00    +0.075 C 
ENDBRANCH  33  34
ENDBRANCH  31  33
ENDBRANCH  28  29
BRANCH  28  39
ATOM     39  C   UNL     1       6.533  -1.545  23.451  0.00  0.00    +0.060 C 
BRANCH  39  40
ATOM     40  C   UNL     1       6.666  -2.979  22.972  0.00  0.00    -0.046 A 
ATOM     41  C   UNL     1       5.834  -3.469  21.955  0.00  0.00    +0.004 A 
ATOM     42  C   UNL     1       6.013  -4.761  21.452  0.00  0.00    +0.000 A 
ATOM     43  C   UNL     1       7.015  -5.580  21.968  0.00  0.00    +0.000 A 
ATOM     44  C   UNL     1       7.819  -5.120  23.008  0.00  0.00    +0.000 A 
ATOM     45  C   UNL     1       7.640  -3.830  23.514  0.00  0.00    +0.004 A 
ENDBRANCH  39  40
ENDBRANCH  28  39
ENDBRANCH  25  28
ENDBRANCH  24  25
ENDBRANCH   4  24
BRANCH   4  46
ATOM     46  C   UNL     1       9.322   1.145  25.116  0.00  0.00    +0.065 C 
BRANCH  46  47
ATOM     47  C   UNL     1       9.570   0.425  23.796  0.00  0.00    -0.045 A 
ATOM     48  C   UNL     1       9.181   0.950  22.558  0.00  0.00    +0.004 A 
ATOM     49  C   UNL     1       9.322   0.220  21.377  0.00  0.00    +0.000 A 
ATOM     50  C   UNL     1       9.830  -1.075  21.415  0.00  0.00    +0.000 A 
ATOM     51  C   UNL     1      10.228  -1.617  22.631  0.00  0.00    +0.000 A 
ATOM     52  C   UNL     1      10.098  -0.881  23.813  0.00  0.00    +0.004 A 
ENDBRANCH  46  47
ENDBRANCH   4  46
TORSDOF 16
ENDMDL
