MODEL 1
REMARK VINA RESULT:      -8.4      0.000      0.000
REMARK  Name = 
REMARK  6 active torsions:
REMARK  status: ('A' for Active; 'I' for Inactive)
REMARK    1  A    between atoms: O_1  and  C_2
REMARK    2  A    between atoms: C_2  and  C_4
REMARK    3  A    between atoms: C_5  and  N_6
REMARK    4  A    between atoms: C_7  and  C_9
REMARK    5  A    between atoms: C_13  and  S_15
REMARK    6  A    between atoms: S_15  and  N_18
REMARK                            x       y       z     vdW  Elec       q    Type
REMARK                         _______ _______ _______ _____ _____    ______ ____
ROOT
ATOM      1  C   UNL     1       5.627  -5.781  24.334  0.00  0.00    +0.039 A 
ATOM      2  C   UNL     1       6.665  -4.996  24.860  0.00  0.00    +0.041 A 
ATOM      3  C   UNL     1       7.671  -4.472  24.044  0.00  0.00    +0.106 A 
ATOM      4  C   UNL     1       7.549  -4.585  22.660  0.00  0.00    +0.028 A 
ATOM      5  C   UNL     1       6.462  -5.282  22.115  0.00  0.00    +0.003 A 
ATOM      6  C   UNL     1       5.519  -5.908  22.947  0.00  0.00    +0.013 A 
ENDROOT
BRANCH   1   9
ATOM      7  N   UNL     1       4.530  -5.865  26.556  0.00  0.00    -0.281 N 
ATOM      8  H   UNL     1       4.724  -4.869  26.644  0.00  0.00    +0.155 HD
ATOM      9  C   UNL     1       4.768  -6.481  25.341  0.00  0.00    +0.248 C 
ATOM     10  O   UNL     1       4.246  -7.542  25.000  0.00  0.00    -0.270 OA
BRANCH   7  16
ATOM     11  C   UNL     1       4.101  -6.814  28.776  0.00  0.00    +0.080 A 
ATOM     12  C   UNL     1       3.213  -7.338  29.731  0.00  0.00    +0.017 A 
ATOM     13  C   UNL     1       1.854  -7.446  29.437  0.00  0.00    +0.001 A 
ATOM     14  C   UNL     1       1.381  -7.043  28.190  0.00  0.00    +0.002 A 
ATOM     15  C   UNL     1       2.262  -6.522  27.238  0.00  0.00    +0.024 A 
ATOM     16  C   UNL     1       3.630  -6.399  27.518  0.00  0.00    +0.048 A 
BRANCH  11  17
ATOM     17  C   UNL     1       5.532  -6.631  29.113  0.00  0.00    +0.339 C 
ATOM     18  O   UNL     1       6.366  -7.508  28.947  0.00  0.00    -0.245 OA
BRANCH  17  19
ATOM     19  O   UNL     1       5.844  -5.386  29.532  0.00  0.00    -0.477 OA
ATOM     20  H   UNL     1       6.800  -5.211  29.628  0.00  0.00    +0.295 HD
ENDBRANCH  17  19
ENDBRANCH  11  17
ENDBRANCH   7  16
ENDBRANCH   1   9
BRANCH   3  21
ATOM     21  S   UNL     1       9.026  -3.570  24.784  0.00  0.00    +0.061 S 
ATOM     22  O   UNL     1      10.220  -4.337  24.503  0.00  0.00    -0.153 OA
ATOM     23  O   UNL     1       8.637  -3.272  26.148  0.00  0.00    -0.153 OA
BRANCH  21  24
ATOM     24  N   UNL     1       9.138  -2.085  23.946  0.00  0.00    -0.172 NA
ATOM     25  C   UNL     1       8.948  -0.863  24.768  0.00  0.00    +0.144 C 
ATOM     26  C   UNL     1       9.203   0.458  24.095  0.00  0.00    -0.028 A 
ATOM     27  C   UNL     1       9.758   0.535  22.816  0.00  0.00    -0.042 A 
ATOM     28  C   UNL     1      10.041   1.794  22.265  0.00  0.00    +0.004 A 
ATOM     29  C   UNL     1       9.793   2.960  22.993  0.00  0.00    +0.000 A 
ATOM     30  C   UNL     1       9.247   2.883  24.269  0.00  0.00    +0.000 A 
ATOM     31  C   UNL     1       9.974  -0.722  22.020  0.00  0.00    +0.052 C 
ATOM     32  C   UNL     1       8.957   1.636  24.819  0.00  0.00    +0.005 A 
ATOM     33  C   UNL     1      10.155  -1.981  22.880  0.00  0.00    +0.114 C 
ENDBRANCH  21  24
ENDBRANCH   3  21
TORSDOF 6
ENDMDL
MODEL 2
REMARK VINA RESULT:      -8.1      2.940      9.946
REMARK  Name = 
REMARK  6 active torsions:
REMARK  status: ('A' for Active; 'I' for Inactive)
REMARK    1  A    between atoms: O_1  and  C_2
REMARK    2  A    between atoms: C_2  and  C_4
REMARK    3  A    between atoms: C_5  and  N_6
REMARK    4  A    between atoms: C_7  and  C_9
REMARK    5  A    between atoms: C_13  and  S_15
REMARK    6  A    between atoms: S_15  and  N_18
REMARK                            x       y       z     vdW  Elec       q    Type
REMARK                         _______ _______ _______ _____ _____    ______ ____
ROOT
ATOM      1  C   UNL     1       9.993   0.206  23.030  0.00  0.00    +0.039 A 
ATOM      2  C   UNL     1       9.775  -0.840  23.941  0.00  0.00    +0.041 A 
ATOM      3  C   UNL     1       9.111  -2.010  23.564  0.00  0.00    +0.106 A 
ATOM      4  C   UNL     1       8.812  -2.218  22.219  0.00  0.00    +0.028 A 
ATOM      5  C   UNL     1       9.117  -1.223  21.281  0.00  0.00    +0.003 A 
ATOM      6  C   UNL     1       9.675   0.001  21.685  0.00  0.00    +0.013 A 
ENDROOT
BRANCH   1   9
ATOM      7  N   UNL     1      10.422   2.642  22.860  0.00  0.00    -0.281 N 
ATOM      8  H   UNL     1       9.826   2.648  22.034  0.00  0.00    +0.155 HD
ATOM      9  C   UNL     1      10.486   1.490  23.622  0.00  0.00    +0.248 C 
ATOM     10  O   UNL     1      10.850   1.468  24.798  0.00  0.00    -0.270 OA
BRANCH   7  16
ATOM     11  C   UNL     1       9.774   4.694  24.036  0.00  0.00    +0.080 A 
ATOM     12  C   UNL     1      10.097   5.957  24.559  0.00  0.00    +0.017 A 
ATOM     13  C   UNL     1      11.396   6.452  24.439  0.00  0.00    +0.001 A 
ATOM     14  C   UNL     1      12.369   5.696  23.789  0.00  0.00    +0.002 A 
ATOM     15  C   UNL     1      12.049   4.439  23.267  0.00  0.00    +0.024 A 
ATOM     16  C   UNL     1      10.751   3.922  23.384  0.00  0.00    +0.048 A 
BRANCH  11  17
ATOM     17  C   UNL     1       8.415   4.136  24.226  0.00  0.00    +0.339 C 
ATOM     18  O   UNL     1       7.519   4.288  23.409  0.00  0.00    -0.245 OA
BRANCH  17  19
ATOM     19  O   UNL     1       8.283   3.375  25.333  0.00  0.00    -0.477 OA
ATOM     20  H   UNL     1       7.932   2.477  25.176  0.00  0.00    +0.295 HD
ENDBRANCH  17  19
ENDBRANCH  11  17
ENDBRANCH   7  16
ENDBRANCH   1   9
BRANCH   3  21
ATOM     21  S   UNL     1       8.766  -3.262  24.794  0.00  0.00    +0.061 S 
ATOM     22  O   UNL     1       8.761  -2.580  26.070  0.00  0.00    -0.153 OA
ATOM     23  O   UNL     1       9.675  -4.361  24.542  0.00  0.00    -0.153 OA
BRANCH  21  24
ATOM     24  N   UNL     1       7.182  -3.824  24.486  0.00  0.00    -0.172 NA
ATOM     25  C   UNL     1       6.779  -5.054  25.214  0.00  0.00    +0.144 C 
ATOM     26  C   UNL     1       5.341  -5.479  25.093  0.00  0.00    -0.028 A 
ATOM     27  C   UNL     1       4.387  -4.671  24.472  0.00  0.00    -0.042 A 
ATOM     28  C   UNL     1       3.047  -5.085  24.450  0.00  0.00    +0.004 A 
ATOM     29  C   UNL     1       2.663  -6.281  25.060  0.00  0.00    +0.000 A 
ATOM     30  C   UNL     1       3.612  -7.082  25.684  0.00  0.00    +0.000 A 
ATOM     31  C   UNL     1       4.818  -3.410  23.774  0.00  0.00    +0.052 C 
ATOM     32  C   UNL     1       4.946  -6.681  25.703  0.00  0.00    +0.005 A 
ATOM     33  C   UNL     1       6.121  -2.809  24.320  0.00  0.00    +0.114 C 
ENDBRANCH  21  24
ENDBRANCH   3  21
TORSDOF 6
ENDMDL
MODEL 3
REMARK VINA RESULT:      -8.1      3.343     10.071
REMARK  Name = 
REMARK  6 active torsions:
REMARK  status: ('A' for Active; 'I' for Inactive)
REMARK    1  A    between atoms: O_1  and  C_2
REMARK    2  A    between atoms: C_2  and  C_4
REMARK    3  A    between atoms: C_5  and  N_6
REMARK    4  A    between atoms: C_7  and  C_9
REMARK    5  A    between atoms: C_13  and  S_15
REMARK    6  A    between atoms: S_15  and  N_18
REMARK                            x       y       z     vdW  Elec       q    Type
REMARK                         _______ _______ _______ _____ _____    ______ ____
ROOT
ATOM      1  C   UNL     1       9.431   0.722  23.146  0.00  0.00    +0.039 A 
ATOM      2  C   UNL     1       9.251  -0.383  23.992  0.00  0.00    +0.041 A 
ATOM      3  C   UNL     1       9.057  -1.670  23.483  0.00  0.00    +0.106 A 
ATOM      4  C   UNL     1       9.218  -1.891  22.116  0.00  0.00    +0.028 A 
ATOM      5  C   UNL     1       9.498  -0.810  21.269  0.00  0.00    +0.003 A 
ATOM      6  C   UNL     1       9.573   0.499  21.773  0.00  0.00    +0.013 A 
ENDROOT
BRANCH   1   9
ATOM      7  N   UNL     1       9.484   3.197  23.025  0.00  0.00    -0.281 N 
ATOM      8  H   UNL     1       9.348   3.111  22.019  0.00  0.00    +0.155 HD
ATOM      9  C   UNL     1       9.375   2.063  23.808  0.00  0.00    +0.248 C 
ATOM     10  O   UNL     1       9.151   2.088  25.018  0.00  0.00    -0.270 OA
BRANCH   7  16
ATOM     11  C   UNL     1      10.430   5.353  23.711  0.00  0.00    +0.080 A 
ATOM     12  C   UNL     1      10.269   6.650  24.229  0.00  0.00    +0.017 A 
ATOM     13  C   UNL     1       9.001   7.108  24.586  0.00  0.00    +0.001 A 
ATOM     14  C   UNL     1       7.895   6.272  24.438  0.00  0.00    +0.002 A 
ATOM     15  C   UNL     1       8.052   4.982  23.924  0.00  0.00    +0.024 A 
ATOM     16  C   UNL     1       9.319   4.507  23.553  0.00  0.00    +0.048 A 
BRANCH  11  17
ATOM     17  C   UNL     1      11.765   4.892  23.265  0.00  0.00    +0.339 C 
ATOM     18  O   UNL     1      12.308   3.899  23.726  0.00  0.00    -0.245 OA
BRANCH  17  19
ATOM     19  O   UNL     1      12.282   5.610  22.245  0.00  0.00    -0.477 OA
ATOM     20  H   UNL     1      13.203   5.385  22.009  0.00  0.00    +0.295 HD
ENDBRANCH  17  19
ENDBRANCH  11  17
ENDBRANCH   7  16
ENDBRANCH   1   9
BRANCH   3  21
ATOM     21  S   UNL     1       8.726  -3.021  24.607  0.00  0.00    +0.061 S 
ATOM     22  O   UNL     1       8.467  -2.416  25.896  0.00  0.00    -0.153 OA
ATOM     23  O   UNL     1       9.797  -3.982  24.437  0.00  0.00    -0.153 OA
BRANCH  21  24
ATOM     24  N   UNL     1       7.283  -3.760  24.067  0.00  0.00    -0.172 NA
ATOM     25  C   UNL     1       6.808  -4.915  24.871  0.00  0.00    +0.144 C 
ATOM     26  C   UNL     1       5.459  -5.482  24.522  0.00  0.00    -0.028 A 
ATOM     27  C   UNL     1       4.613  -4.852  23.607  0.00  0.00    -0.042 A 
ATOM     28  C   UNL     1       3.337  -5.385  23.372  0.00  0.00    +0.004 A 
ATOM     29  C   UNL     1       2.904  -6.521  24.060  0.00  0.00    +0.000 A 
ATOM     30  C   UNL     1       3.744  -7.144  24.976  0.00  0.00    +0.000 A 
ATOM     31  C   UNL     1       5.107  -3.660  22.834  0.00  0.00    +0.052 C 
ATOM     32  C   UNL     1       5.015  -6.624  25.208  0.00  0.00    +0.005 A 
ATOM     33  C   UNL     1       6.222  -2.877  23.540  0.00  0.00    +0.114 C 
ENDBRANCH  21  24
ENDBRANCH   3  21
TORSDOF 6
ENDMDL
MODEL 4
REMARK VINA RESULT:      -8.0      3.100      5.244
REMARK  Name = 
REMARK  6 active torsions:
REMARK  status: ('A' for Active; 'I' for Inactive)
REMARK    1  A    between atoms: O_1  and  C_2
REMARK    2  A    between atoms: C_2  and  C_4
REMARK    3  A    between atoms: C_5  and  N_6
REMARK    4  A    between atoms: C_7  and  C_9
REMARK    5  A    between atoms: C_13  and  S_15
REMARK    6  A    between atoms: S_15  and  N_18
REMARK                            x       y       z     vdW  Elec       q    Type
REMARK                         _______ _______ _______ _____ _____    ______ ____
ROOT
ATOM      1  C   UNL     1       7.962  -2.282  23.823  0.00  0.00    +0.039 A 
ATOM      2  C   UNL     1       7.591  -1.090  23.181  0.00  0.00    +0.041 A 
ATOM      3  C   UNL     1       8.517  -0.072  22.936  0.00  0.00    +0.106 A 
ATOM      4  C   UNL     1       9.869  -0.313  23.177  0.00  0.00    +0.028 A 
ATOM      5  C   UNL     1      10.267  -1.540  23.725  0.00  0.00    +0.003 A 
ATOM      6  C   UNL     1       9.316  -2.511  24.080  0.00  0.00    +0.013 A 
ENDROOT
BRANCH   1   9
ATOM      7  N   UNL     1       7.084  -4.516  24.441  0.00  0.00    -0.281 N 
ATOM      8  H   UNL     1       8.049  -4.823  24.543  0.00  0.00    +0.155 HD
ATOM      9  C   UNL     1       6.833  -3.171  24.244  0.00  0.00    +0.248 C 
ATOM     10  O   UNL     1       5.749  -2.636  24.475  0.00  0.00    -0.270 OA
BRANCH   7  16
ATOM     11  C   UNL     1       5.200  -6.047  24.093  0.00  0.00    +0.080 A 
ATOM     12  C   UNL     1       4.233  -6.930  24.601  0.00  0.00    +0.017 A 
ATOM     13  C   UNL     1       4.165  -7.181  25.972  0.00  0.00    +0.001 A 
ATOM     14  C   UNL     1       5.052  -6.543  26.837  0.00  0.00    +0.002 A 
ATOM     15  C   UNL     1       6.015  -5.664  26.334  0.00  0.00    +0.024 A 
ATOM     16  C   UNL     1       6.103  -5.406  24.959  0.00  0.00    +0.048 A 
BRANCH  11  17
ATOM     17  C   UNL     1       5.320  -5.836  22.632  0.00  0.00    +0.339 C 
ATOM     18  O   UNL     1       4.796  -4.895  22.055  0.00  0.00    -0.245 OA
BRANCH  17  19
ATOM     19  O   UNL     1       6.131  -6.721  22.013  0.00  0.00    -0.477 OA
ATOM     20  H   UNL     1       6.462  -7.444  22.581  0.00  0.00    +0.295 HD
ENDBRANCH  17  19
ENDBRANCH  11  17
ENDBRANCH   7  16
ENDBRANCH   1   9
BRANCH   3  21
ATOM     21  S   UNL     1       7.964   1.467  22.213  0.00  0.00    +0.061 S 
ATOM     22  O   UNL     1       6.532   1.514  22.417  0.00  0.00    -0.153 OA
ATOM     23  O   UNL     1       8.528   1.531  20.880  0.00  0.00    -0.153 OA
BRANCH  21  24
ATOM     24  N   UNL     1       8.674   2.720  23.133  0.00  0.00    -0.172 NA
ATOM     25  C   UNL     1      10.094   3.025  22.822  0.00  0.00    +0.144 C 
ATOM     26  C   UNL     1      10.697   4.227  23.496  0.00  0.00    -0.028 A 
ATOM     27  C   UNL     1       9.920   5.117  24.240  0.00  0.00    -0.042 A 
ATOM     28  C   UNL     1      10.522   6.261  24.787  0.00  0.00    +0.004 A 
ATOM     29  C   UNL     1      11.877   6.522  24.573  0.00  0.00    +0.000 A 
ATOM     30  C   UNL     1      12.648   5.640  23.825  0.00  0.00    +0.000 A 
ATOM     31  C   UNL     1       8.475   4.802  24.508  0.00  0.00    +0.052 C 
ATOM     32  C   UNL     1      12.059   4.498  23.287  0.00  0.00    +0.005 A 
ATOM     33  C   UNL     1       7.830   3.889  23.455  0.00  0.00    +0.114 C 
ENDBRANCH  21  24
ENDBRANCH   3  21
TORSDOF 6
ENDMDL
MODEL 5
REMARK VINA RESULT:      -7.8      1.725      2.861
REMARK  Name = 
REMARK  6 active torsions:
REMARK  status: ('A' for Active; 'I' for Inactive)
REMARK    1  A    between atoms: O_1  and  C_2
REMARK    2  A    between atoms: C_2  and  C_4
REMARK    3  A    between atoms: C_5  and  N_6
REMARK    4  A    between atoms: C_7  and  C_9
REMARK    5  A    between atoms: C_13  and  S_15
REMARK    6  A    between atoms: S_15  and  N_18
REMARK                            x       y       z     vdW  Elec       q    Type
REMARK                         _______ _______ _______ _____ _____    ______ ____
ROOT
ATOM      1  C   UNL     1       5.319  -5.453  23.944  0.00  0.00    +0.039 A 
ATOM      2  C   UNL     1       6.366  -4.917  24.711  0.00  0.00    +0.041 A 
ATOM      3  C   UNL     1       7.682  -4.900  24.243  0.00  0.00    +0.106 A 
ATOM      4  C   UNL     1       7.936  -5.264  22.921  0.00  0.00    +0.028 A 
ATOM      5  C   UNL     1       6.882  -5.707  22.110  0.00  0.00    +0.003 A 
ATOM      6  C   UNL     1       5.582  -5.834  22.626  0.00  0.00    +0.013 A 
ENDROOT
BRANCH   1   9
ATOM      7  N   UNL     1       3.881  -6.700  25.532  0.00  0.00    -0.281 N 
ATOM      8  H   UNL     1       4.721  -7.175  25.858  0.00  0.00    +0.155 HD
ATOM      9  C   UNL     1       4.017  -5.636  24.660  0.00  0.00    +0.248 C 
ATOM     10  O   UNL     1       3.155  -4.773  24.495  0.00  0.00    -0.270 OA
BRANCH   7  16
ATOM     11  C   UNL     1       1.799  -7.890  26.045  0.00  0.00    +0.080 A 
ATOM     12  C   UNL     1       0.660  -8.071  26.847  0.00  0.00    +0.017 A 
ATOM     13  C   UNL     1       0.444  -7.247  27.951  0.00  0.00    +0.001 A 
ATOM     14  C   UNL     1       1.356  -6.236  28.250  0.00  0.00    +0.002 A 
ATOM     15  C   UNL     1       2.490  -6.054  27.454  0.00  0.00    +0.024 A 
ATOM     16  C   UNL     1       2.727  -6.877  26.344  0.00  0.00    +0.048 A 
BRANCH  11  17
ATOM     17  C   UNL     1       2.067  -8.810  24.915  0.00  0.00    +0.339 C 
ATOM     18  O   UNL     1       2.188  -8.423  23.763  0.00  0.00    -0.245 OA
BRANCH  17  19
ATOM     19  O   UNL     1       2.252 -10.095  25.284  0.00  0.00    -0.477 OA
ATOM     20  H   UNL     1       1.658 -10.411  25.992  0.00  0.00    +0.295 HD
ENDBRANCH  17  19
ENDBRANCH  11  17
ENDBRANCH   7  16
ENDBRANCH   1   9
BRANCH   3  21
ATOM     21  S   UNL     1       8.989  -4.303  25.307  0.00  0.00    +0.061 S 
ATOM     22  O   UNL     1      10.200  -4.958  24.861  0.00  0.00    -0.153 OA
ATOM     23  O   UNL     1       8.522  -4.453  26.670  0.00  0.00    -0.153 OA
BRANCH  21  24
ATOM     24  N   UNL     1       9.144  -2.630  24.997  0.00  0.00    -0.172 NA
ATOM     25  C   UNL     1       9.325  -2.251  23.573  0.00  0.00    +0.144 C 
ATOM     26  C   UNL     1       9.298  -0.782  23.248  0.00  0.00    -0.028 A 
ATOM     27  C   UNL     1       8.948   0.173  24.204  0.00  0.00    -0.042 A 
ATOM     28  C   UNL     1       8.870   1.523  23.828  0.00  0.00    +0.004 A 
ATOM     29  C   UNL     1       9.118   1.908  22.509  0.00  0.00    +0.000 A 
ATOM     30  C   UNL     1       9.459   0.956  21.556  0.00  0.00    +0.000 A 
ATOM     31  C   UNL     1       8.733  -0.244  25.632  0.00  0.00    +0.052 C 
ATOM     32  C   UNL     1       9.546  -0.385  21.924  0.00  0.00    +0.005 A 
ATOM     33  C   UNL     1       8.309  -1.710  25.797  0.00  0.00    +0.114 C 
ENDBRANCH  21  24
ENDBRANCH   3  21
TORSDOF 6
ENDMDL
MODEL 6
REMARK VINA RESULT:      -7.7      2.662      4.178
REMARK  Name = 
REMARK  6 active torsions:
REMARK  status: ('A' for Active; 'I' for Inactive)
REMARK    1  A    between atoms: O_1  and  C_2
REMARK    2  A    between atoms: C_2  and  C_4
REMARK    3  A    between atoms: C_5  and  N_6
REMARK    4  A    between atoms: C_7  and  C_9
REMARK    5  A    between atoms: C_13  and  S_15
REMARK    6  A    between atoms: S_15  and  N_18
REMARK                            x       y       z     vdW  Elec       q    Type
REMARK                         _______ _______ _______ _____ _____    ______ ____
ROOT
ATOM      1  C   UNL     1       7.458  -2.848  25.081  0.00  0.00    +0.039 A 
ATOM      2  C   UNL     1       8.142  -2.122  24.094  0.00  0.00    +0.041 A 
ATOM      3  C   UNL     1       8.795  -0.923  24.390  0.00  0.00    +0.106 A 
ATOM      4  C   UNL     1       8.918  -0.527  25.720  0.00  0.00    +0.028 A 
ATOM      5  C   UNL     1       8.325  -1.298  26.729  0.00  0.00    +0.003 A 
ATOM      6  C   UNL     1       7.567  -2.438  26.413  0.00  0.00    +0.013 A 
ENDROOT
BRANCH   1   9
ATOM      7  N   UNL     1       5.410  -4.236  25.238  0.00  0.00    -0.281 N 
ATOM      8  H   UNL     1       5.027  -3.529  25.863  0.00  0.00    +0.155 HD
ATOM      9  C   UNL     1       6.599  -3.970  24.585  0.00  0.00    +0.248 C 
ATOM     10  O   UNL     1       6.961  -4.549  23.561  0.00  0.00    -0.270 OA
BRANCH   7  16
ATOM     11  C   UNL     1       4.314  -6.421  25.434  0.00  0.00    +0.080 A 
ATOM     12  C   UNL     1       3.391  -7.372  24.968  0.00  0.00    +0.017 A 
ATOM     13  C   UNL     1       2.625  -7.106  23.833  0.00  0.00    +0.001 A 
ATOM     14  C   UNL     1       2.786  -5.898  23.156  0.00  0.00    +0.002 A 
ATOM     15  C   UNL     1       3.704  -4.951  23.617  0.00  0.00    +0.024 A 
ATOM     16  C   UNL     1       4.478  -5.198  24.761  0.00  0.00    +0.048 A 
BRANCH  11  17
ATOM     17  C   UNL     1       5.075  -6.673  26.680  0.00  0.00    +0.339 C 
ATOM     18  O   UNL     1       6.262  -6.406  26.793  0.00  0.00    -0.245 OA
BRANCH  17  19
ATOM     19  O   UNL     1       4.322  -7.136  27.700  0.00  0.00    -0.477 OA
ATOM     20  H   UNL     1       4.451  -6.673  28.551  0.00  0.00    +0.295 HD
ENDBRANCH  17  19
ENDBRANCH  11  17
ENDBRANCH   7  16
ENDBRANCH   1   9
BRANCH   3  21
ATOM     21  S   UNL     1       9.558   0.013  23.070  0.00  0.00    +0.061 S 
ATOM     22  O   UNL     1       9.275  -0.711  21.850  0.00  0.00    -0.153 OA
ATOM     23  O   UNL     1      10.922   0.279  23.478  0.00  0.00    -0.153 OA
BRANCH  21  24
ATOM     24  N   UNL     1       8.740   1.512  23.001  0.00  0.00    -0.172 NA
ATOM     25  C   UNL     1       9.489   2.682  23.527  0.00  0.00    +0.144 C 
ATOM     26  C   UNL     1       8.865   4.036  23.329  0.00  0.00    -0.028 A 
ATOM     27  C   UNL     1       7.727   4.212  22.541  0.00  0.00    -0.042 A 
ATOM     28  C   UNL     1       7.228   5.507  22.333  0.00  0.00    +0.004 A 
ATOM     29  C   UNL     1       7.874   6.614  22.889  0.00  0.00    +0.000 A 
ATOM     30  C   UNL     1       9.012   6.439  23.667  0.00  0.00    +0.000 A 
ATOM     31  C   UNL     1       7.009   3.011  21.990  0.00  0.00    +0.052 C 
ATOM     32  C   UNL     1       9.507   5.156  23.884  0.00  0.00    +0.005 A 
ATOM     33  C   UNL     1       7.904   1.776  21.812  0.00  0.00    +0.114 C 
ENDBRANCH  21  24
ENDBRANCH   3  21
TORSDOF 6
ENDMDL
MODEL 7
REMARK VINA RESULT:      -7.7      3.052      4.797
REMARK  Name = 
REMARK  6 active torsions:
REMARK  status: ('A' for Active; 'I' for Inactive)
REMARK    1  A    between atoms: O_1  and  C_2
REMARK    2  A    between atoms: C_2  and  C_4
REMARK    3  A    between atoms: C_5  and  N_6
REMARK    4  A    between atoms: C_7  and  C_9
REMARK    5  A    between atoms: C_13  and  S_15
REMARK    6  A    between atoms: S_15  and  N_18
REMARK                            x       y       z     vdW  Elec       q    Type
REMARK                         _______ _______ _______ _____ _____    ______ ____
ROOT
ATOM      1  C   UNL     1       7.880  -2.255  23.856  0.00  0.00    +0.039 A 
ATOM      2  C   UNL     1       7.514  -1.053  23.231  0.00  0.00    +0.041 A 
ATOM      3  C   UNL     1       8.412   0.010  23.108  0.00  0.00    +0.106 A 
ATOM      4  C   UNL     1       9.748  -0.186  23.456  0.00  0.00    +0.028 A 
ATOM      5  C   UNL     1      10.150  -1.418  23.988  0.00  0.00    +0.003 A 
ATOM      6  C   UNL     1       9.216  -2.441  24.221  0.00  0.00    +0.013 A 
ENDROOT
BRANCH   1   9
ATOM      7  N   UNL     1       7.064  -4.507  24.496  0.00  0.00    -0.281 N 
ATOM      8  H   UNL     1       8.013  -4.722  24.795  0.00  0.00    +0.155 HD
ATOM      9  C   UNL     1       6.759  -3.206  24.142  0.00  0.00    +0.248 C 
ATOM     10  O   UNL     1       5.615  -2.752  24.128  0.00  0.00    -0.270 OA
BRANCH   7  16
ATOM     11  C   UNL     1       5.951  -5.802  26.256  0.00  0.00    +0.080 A 
ATOM     12  C   UNL     1       4.967  -6.719  26.662  0.00  0.00    +0.017 A 
ATOM     13  C   UNL     1       4.096  -7.272  25.724  0.00  0.00    +0.001 A 
ATOM     14  C   UNL     1       4.212  -6.922  24.380  0.00  0.00    +0.002 A 
ATOM     15  C   UNL     1       5.190  -6.010  23.973  0.00  0.00    +0.024 A 
ATOM     16  C   UNL     1       6.070  -5.439  24.903  0.00  0.00    +0.048 A 
BRANCH  11  17
ATOM     17  C   UNL     1       6.829  -5.159  27.261  0.00  0.00    +0.339 C 
ATOM     18  O   UNL     1       8.047  -5.148  27.163  0.00  0.00    -0.245 OA
BRANCH  17  19
ATOM     19  O   UNL     1       6.162  -4.514  28.241  0.00  0.00    -0.477 OA
ATOM     20  H   UNL     1       5.617  -5.086  28.815  0.00  0.00    +0.295 HD
ENDBRANCH  17  19
ENDBRANCH  11  17
ENDBRANCH   7  16
ENDBRANCH   1   9
BRANCH   3  21
ATOM     21  S   UNL     1       7.857   1.556  22.399  0.00  0.00    +0.061 S 
ATOM     22  O   UNL     1       6.417   1.568  22.543  0.00  0.00    -0.153 OA
ATOM     23  O   UNL     1       8.475   1.665  21.093  0.00  0.00    -0.153 OA
BRANCH  21  24
ATOM     24  N   UNL     1       8.500   2.799  23.379  0.00  0.00    -0.172 NA
ATOM     25  C   UNL     1       9.866   3.261  23.023  0.00  0.00    +0.144 C 
ATOM     26  C   UNL     1      10.393   4.463  23.758  0.00  0.00    -0.028 A 
ATOM     27  C   UNL     1       9.582   5.217  24.608  0.00  0.00    -0.042 A 
ATOM     28  C   UNL     1      10.105   6.370  25.214  0.00  0.00    +0.004 A 
ATOM     29  C   UNL     1      11.416   6.775  24.954  0.00  0.00    +0.000 A 
ATOM     30  C   UNL     1      12.222   6.028  24.101  0.00  0.00    +0.000 A 
ATOM     31  C   UNL     1       8.189   4.745  24.922  0.00  0.00    +0.052 C 
ATOM     32  C   UNL     1      11.710   4.878  23.504  0.00  0.00    +0.005 A 
ATOM     33  C   UNL     1       7.572   3.854  23.834  0.00  0.00    +0.114 C 
ENDBRANCH  21  24
ENDBRANCH   3  21
TORSDOF 6
ENDMDL
MODEL 8
REMARK VINA RESULT:      -7.7      4.095      9.227
REMARK  Name = 
REMARK  6 active torsions:
REMARK  status: ('A' for Active; 'I' for Inactive)
REMARK    1  A    between atoms: O_1  and  C_2
REMARK    2  A    between atoms: C_2  and  C_4
REMARK    3  A    between atoms: C_5  and  N_6
REMARK    4  A    between atoms: C_7  and  C_9
REMARK    5  A    between atoms: C_13  and  S_15
REMARK    6  A    between atoms: S_15  and  N_18
REMARK                            x       y       z     vdW  Elec       q    Type
REMARK                         _______ _______ _______ _____ _____    ______ ____
ROOT
ATOM      1  C   UNL     1       8.054   0.907  22.799  0.00  0.00    +0.039 A 
ATOM      2  C   UNL     1       8.207  -0.154  23.705  0.00  0.00    +0.041 A 
ATOM      3  C   UNL     1       8.879  -1.327  23.351  0.00  0.00    +0.106 A 
ATOM      4  C   UNL     1       9.560  -1.378  22.136  0.00  0.00    +0.028 A 
ATOM      5  C   UNL     1       9.500  -0.284  21.262  0.00  0.00    +0.003 A 
ATOM      6  C   UNL     1       8.722   0.844  21.574  0.00  0.00    +0.013 A 
ENDROOT
BRANCH   1   9
ATOM      7  N   UNL     1       6.539   2.789  22.246  0.00  0.00    -0.281 N 
ATOM      8  H   UNL     1       6.575   2.480  21.276  0.00  0.00    +0.155 HD
ATOM      9  C   UNL     1       7.106   1.987  23.219  0.00  0.00    +0.248 C 
ATOM     10  O   UNL     1       6.814   2.052  24.413  0.00  0.00    -0.270 OA
BRANCH   7  16
ATOM     11  C   UNL     1       5.882   5.110  22.688  0.00  0.00    +0.080 A 
ATOM     12  C   UNL     1       4.894   6.067  22.976  0.00  0.00    +0.017 A 
ATOM     13  C   UNL     1       3.562   5.678  23.116  0.00  0.00    +0.001 A 
ATOM     14  C   UNL     1       3.215   4.335  22.980  0.00  0.00    +0.002 A 
ATOM     15  C   UNL     1       4.196   3.381  22.693  0.00  0.00    +0.024 A 
ATOM     16  C   UNL     1       5.539   3.755  22.542  0.00  0.00    +0.048 A 
BRANCH  11  17
ATOM     17  C   UNL     1       7.285   5.532  22.467  0.00  0.00    +0.339 C 
ATOM     18  O   UNL     1       8.188   5.250  23.240  0.00  0.00    -0.245 OA
BRANCH  17  19
ATOM     19  O   UNL     1       7.488   6.176  21.298  0.00  0.00    -0.477 OA
ATOM     20  H   UNL     1       8.426   6.311  21.060  0.00  0.00    +0.295 HD
ENDBRANCH  17  19
ENDBRANCH  11  17
ENDBRANCH   7  16
ENDBRANCH   1   9
BRANCH   3  21
ATOM     21  S   UNL     1       8.949  -2.687  24.511  0.00  0.00    +0.061 S 
ATOM     22  O   UNL     1       8.802  -2.101  25.825  0.00  0.00    -0.153 OA
ATOM     23  O   UNL     1      10.121  -3.468  24.172  0.00  0.00    -0.153 OA
BRANCH  21  24
ATOM     24  N   UNL     1       7.577  -3.659  24.205  0.00  0.00    -0.172 NA
ATOM     25  C   UNL     1       6.300  -3.176  24.789  0.00  0.00    +0.144 C 
ATOM     26  C   UNL     1       5.049  -3.916  24.402  0.00  0.00    -0.028 A 
ATOM     27  C   UNL     1       5.056  -4.897  23.409  0.00  0.00    -0.042 A 
ATOM     28  C   UNL     1       3.847  -5.506  23.038  0.00  0.00    +0.004 A 
ATOM     29  C   UNL     1       2.645  -5.121  23.636  0.00  0.00    +0.000 A 
ATOM     30  C   UNL     1       2.638  -4.138  24.619  0.00  0.00    +0.000 A 
ATOM     31  C   UNL     1       6.360  -5.341  22.808  0.00  0.00    +0.052 C 
ATOM     32  C   UNL     1       3.836  -3.536  24.998  0.00  0.00    +0.005 A 
ATOM     33  C   UNL     1       7.468  -4.281  22.870  0.00  0.00    +0.114 C 
ENDBRANCH  21  24
ENDBRANCH   3  21
TORSDOF 6
ENDMDL
MODEL 9
REMARK VINA RESULT:      -7.6      2.907      8.997
REMARK  Name = 
REMARK  6 active torsions:
REMARK  status: ('A' for Active; 'I' for Inactive)
REMARK    1  A    between atoms: O_1  and  C_2
REMARK    2  A    between atoms: C_2  and  C_4
REMARK    3  A    between atoms: C_5  and  N_6
REMARK    4  A    between atoms: C_7  and  C_9
REMARK    5  A    between atoms: C_13  and  S_15
REMARK    6  A    between atoms: S_15  and  N_18
REMARK                            x       y       z     vdW  Elec       q    Type
REMARK                         _______ _______ _______ _____ _____    ______ ____
ROOT
ATOM      1  C   UNL     1       8.183  -2.212  24.261  0.00  0.00    +0.039 A 
ATOM      2  C   UNL     1       7.212  -2.954  23.570  0.00  0.00    +0.041 A 
ATOM      3  C   UNL     1       7.335  -4.334  23.393  0.00  0.00    +0.106 A 
ATOM      4  C   UNL     1       8.351  -5.016  24.060  0.00  0.00    +0.028 A 
ATOM      5  C   UNL     1       9.271  -4.299  24.837  0.00  0.00    +0.003 A 
ATOM      6  C   UNL     1       9.211  -2.898  24.913  0.00  0.00    +0.013 A 
ENDROOT
BRANCH   1   9
ATOM      7  N   UNL     1       7.344  -0.186  23.104  0.00  0.00    -0.281 N 
ATOM      8  H   UNL     1       6.723  -0.795  22.575  0.00  0.00    +0.155 HD
ATOM      9  C   UNL     1       8.057  -0.724  24.160  0.00  0.00    +0.248 C 
ATOM     10  O   UNL     1       8.530  -0.053  25.077  0.00  0.00    -0.270 OA
BRANCH   7  16
ATOM     11  C   UNL     1       7.947   2.048  22.294  0.00  0.00    +0.080 A 
ATOM     12  C   UNL     1       7.678   3.423  22.184  0.00  0.00    +0.017 A 
ATOM     13  C   UNL     1       6.533   3.961  22.773  0.00  0.00    +0.001 A 
ATOM     14  C   UNL     1       5.664   3.132  23.480  0.00  0.00    +0.002 A 
ATOM     15  C   UNL     1       5.930   1.764  23.591  0.00  0.00    +0.024 A 
ATOM     16  C   UNL     1       7.071   1.205  22.999  0.00  0.00    +0.048 A 
BRANCH  11  17
ATOM     17  C   UNL     1       9.123   1.464  21.608  0.00  0.00    +0.339 C 
ATOM     18  O   UNL     1       9.070   0.414  20.986  0.00  0.00    -0.245 OA
BRANCH  17  19
ATOM     19  O   UNL     1      10.228   2.238  21.655  0.00  0.00    -0.477 OA
ATOM     20  H   UNL     1      11.061   1.758  21.827  0.00  0.00    +0.295 HD
ENDBRANCH  17  19
ENDBRANCH  11  17
ENDBRANCH   7  16
ENDBRANCH   1   9
BRANCH   3  21
ATOM     21  S   UNL     1       6.121  -5.208  22.413  0.00  0.00    +0.061 S 
ATOM     22  O   UNL     1       6.779  -6.404  21.932  0.00  0.00    -0.153 OA
ATOM     23  O   UNL     1       5.556  -4.247  21.488  0.00  0.00    -0.153 OA
BRANCH  21  24
ATOM     24  N   UNL     1       4.878  -5.681  23.485  0.00  0.00    -0.172 NA
ATOM     25  C   UNL     1       5.301  -5.965  24.880  0.00  0.00    +0.144 C 
ATOM     26  C   UNL     1       4.212  -6.222  25.886  0.00  0.00    -0.028 A 
ATOM     27  C   UNL     1       2.865  -6.033  25.572  0.00  0.00    -0.042 A 
ATOM     28  C   UNL     1       1.895  -6.219  26.569  0.00  0.00    +0.004 A 
ATOM     29  C   UNL     1       2.270  -6.567  27.868  0.00  0.00    +0.000 A 
ATOM     30  C   UNL     1       3.612  -6.747  28.183  0.00  0.00    +0.000 A 
ATOM     31  C   UNL     1       2.467  -5.709  24.158  0.00  0.00    +0.052 C 
ATOM     32  C   UNL     1       4.579  -6.572  27.195  0.00  0.00    +0.005 A 
ATOM     33  C   UNL     1       3.567  -5.014  23.344  0.00  0.00    +0.114 C 
ENDBRANCH  21  24
ENDBRANCH   3  21
TORSDOF 6
ENDMDL
