MODEL 1
REMARK VINA RESULT:      -6.8      0.000      0.000
REMARK  Name = 
REMARK  3 active torsions:
REMARK  status: ('A' for Active; 'I' for Inactive)
REMARK    1  A    between atoms: C_2  and  C_6
REMARK    2  A    between atoms: C_13  and  C_15
REMARK    3  A    between atoms: C_20  and  O_21
REMARK                            x       y       z     vdW  Elec       q    Type
REMARK                         _______ _______ _______ _____ _____    ______ ____
ROOT
ATOM      1  C   UNL     1       6.763  -5.104  22.988  0.00  0.00    +0.063 A 
ATOM      2  C   UNL     1       7.711  -5.436  23.978  0.00  0.00    +0.018 A 
ATOM      3  C   UNL     1       8.652  -4.501  24.445  0.00  0.00    +0.031 A 
ATOM      4  C   UNL     1       8.655  -3.215  23.893  0.00  0.00    +0.089 A 
ATOM      5  N   UNL     1       9.467  -2.143  24.156  0.00  0.00    -0.228 NA
ATOM      6  C   UNL     1       9.060  -1.167  23.359  0.00  0.00    +0.143 A 
ATOM      7  N   UNL     1       8.000  -1.603  22.600  0.00  0.00    -0.338 N 
ATOM      8  H   UNL     1       7.538  -1.018  21.917  0.00  0.00    +0.167 HD
ATOM      9  C   UNL     1       7.719  -2.903  22.919  0.00  0.00    +0.067 A 
ATOM     10  C   UNL     1       6.756  -3.800  22.452  0.00  0.00    +0.043 A 
ENDROOT
BRANCH   1  14
ATOM     11  N   UNL     1       5.701  -6.380  21.222  0.00  0.00    -0.250 N 
ATOM     12  H   UNL     1       6.331  -5.939  20.559  0.00  0.00    +0.288 HD
ATOM     13  H   UNL     1       5.035  -7.043  20.851  0.00  0.00    +0.288 HD
ATOM     14  C   UNL     1       5.788  -6.106  22.506  0.00  0.00    +0.266 C 
ATOM     15  N   UNL     1       5.001  -6.720  23.366  0.00  0.00    -0.288 N 
ATOM     16  H   UNL     1       4.326  -7.418  23.086  0.00  0.00    +0.301 HD
ATOM     17  H   UNL     1       5.038  -6.486  24.353  0.00  0.00    +0.301 HD
ENDBRANCH   1  14
BRANCH   6  18
ATOM     18  C   UNL     1       9.602   0.193  23.255  0.00  0.00    +0.059 A 
ATOM     19  C   UNL     1      10.139   0.888  24.357  0.00  0.00    +0.127 A 
ATOM     20  C   UNL     1      10.671   2.172  24.214  0.00  0.00    +0.046 A 
ATOM     21  C   UNL     1      10.667   2.787  22.964  0.00  0.00    +0.004 A 
ATOM     22  C   UNL     1      10.129   2.122  21.864  0.00  0.00    +0.001 A 
ATOM     23  C   UNL     1       9.599   0.837  22.009  0.00  0.00    +0.015 A 
BRANCH  19  24
ATOM     24  O   UNL     1      10.149   0.306  25.605  0.00  0.00    -0.506 OA
ATOM     25  H   UNL     1      11.064   0.032  25.795  0.00  0.00    +0.292 HD
ENDBRANCH  19  24
ENDBRANCH   6  18
TORSDOF 3
ENDMDL
MODEL 2
REMARK VINA RESULT:      -6.8      2.999      7.259
REMARK  Name = 
REMARK  3 active torsions:
REMARK  status: ('A' for Active; 'I' for Inactive)
REMARK    1  A    between atoms: C_2  and  C_6
REMARK    2  A    between atoms: C_13  and  C_15
REMARK    3  A    between atoms: C_20  and  O_21
REMARK                            x       y       z     vdW  Elec       q    Type
REMARK                         _______ _______ _______ _____ _____    ______ ____
ROOT
ATOM      1  C   UNL     1      10.127   2.403  23.282  0.00  0.00    +0.063 A 
ATOM      2  C   UNL     1      10.184   1.669  22.080  0.00  0.00    +0.018 A 
ATOM      3  C   UNL     1       9.836   0.308  22.026  0.00  0.00    +0.031 A 
ATOM      4  C   UNL     1       9.443  -0.334  23.206  0.00  0.00    +0.089 A 
ATOM      5  N   UNL     1       9.076  -1.637  23.424  0.00  0.00    -0.228 NA
ATOM      6  C   UNL     1       8.806  -1.734  24.716  0.00  0.00    +0.143 A 
ATOM      7  N   UNL     1       8.988  -0.511  25.319  0.00  0.00    -0.338 N 
ATOM      8  H   UNL     1       8.843  -0.361  26.308  0.00  0.00    +0.167 HD
ATOM      9  C   UNL     1       9.393   0.399  24.382  0.00  0.00    +0.067 A 
ATOM     10  C   UNL     1       9.709   1.757  24.464  0.00  0.00    +0.043 A 
ENDROOT
BRANCH   1  14
ATOM     11  N   UNL     1       9.602   4.751  23.582  0.00  0.00    -0.250 N 
ATOM     12  H   UNL     1       8.650   4.483  23.807  0.00  0.00    +0.288 HD
ATOM     13  H   UNL     1       9.818   5.738  23.596  0.00  0.00    +0.288 HD
ATOM     14  C   UNL     1      10.507   3.832  23.317  0.00  0.00    +0.266 C 
ATOM     15  N   UNL     1      11.753   4.184  23.075  0.00  0.00    -0.288 N 
ATOM     16  H   UNL     1      12.062   5.145  23.096  0.00  0.00    +0.301 HD
ATOM     17  H   UNL     1      12.446   3.484  22.834  0.00  0.00    +0.301 HD
ENDBRANCH   1  14
BRANCH   6  18
ATOM     18  C   UNL     1       8.365  -2.923  25.455  0.00  0.00    +0.059 A 
ATOM     19  C   UNL     1       9.021  -4.166  25.364  0.00  0.00    +0.127 A 
ATOM     20  C   UNL     1       8.587  -5.269  26.104  0.00  0.00    +0.046 A 
ATOM     21  C   UNL     1       7.484  -5.148  26.945  0.00  0.00    +0.004 A 
ATOM     22  C   UNL     1       6.814  -3.930  27.041  0.00  0.00    +0.001 A 
ATOM     23  C   UNL     1       7.249  -2.827  26.300  0.00  0.00    +0.015 A 
BRANCH  19  24
ATOM     24  O   UNL     1      10.110  -4.316  24.535  0.00  0.00    -0.506 OA
ATOM     25  H   UNL     1       9.829  -4.854  23.773  0.00  0.00    +0.292 HD
ENDBRANCH  19  24
ENDBRANCH   6  18
TORSDOF 3
ENDMDL
MODEL 3
REMARK VINA RESULT:      -6.7      2.057      2.567
REMARK  Name = 
REMARK  3 active torsions:
REMARK  status: ('A' for Active; 'I' for Inactive)
REMARK    1  A    between atoms: C_2  and  C_6
REMARK    2  A    between atoms: C_13  and  C_15
REMARK    3  A    between atoms: C_20  and  O_21
REMARK                            x       y       z     vdW  Elec       q    Type
REMARK                         _______ _______ _______ _____ _____    ______ ____
ROOT
ATOM      1  C   UNL     1       4.648  -5.253  23.026  0.00  0.00    +0.063 A 
ATOM      2  C   UNL     1       5.809  -5.868  22.515  0.00  0.00    +0.018 A 
ATOM      3  C   UNL     1       6.978  -5.135  22.244  0.00  0.00    +0.031 A 
ATOM      4  C   UNL     1       6.974  -3.754  22.470  0.00  0.00    +0.089 A 
ATOM      5  N   UNL     1       7.961  -2.823  22.273  0.00  0.00    -0.228 NA
ATOM      6  C   UNL     1       7.447  -1.658  22.634  0.00  0.00    +0.143 A 
ATOM      7  N   UNL     1       6.153  -1.836  23.063  0.00  0.00    -0.338 N 
ATOM      8  H   UNL     1       5.570  -1.073  23.379  0.00  0.00    +0.167 HD
ATOM      9  C   UNL     1       5.825  -3.161  22.970  0.00  0.00    +0.067 A 
ATOM     10  C   UNL     1       4.657  -3.865  23.273  0.00  0.00    +0.043 A 
ENDROOT
BRANCH   1  14
ATOM     11  N   UNL     1       2.239  -5.512  23.100  0.00  0.00    -0.250 N 
ATOM     12  H   UNL     1       2.152  -4.574  22.723  0.00  0.00    +0.288 HD
ATOM     13  H   UNL     1       1.382  -6.012  23.291  0.00  0.00    +0.288 HD
ATOM     14  C   UNL     1       3.428  -6.043  23.295  0.00  0.00    +0.266 C 
ATOM     15  N   UNL     1       3.533  -7.279  23.738  0.00  0.00    -0.288 N 
ATOM     16  H   UNL     1       2.729  -7.861  23.928  0.00  0.00    +0.301 HD
ATOM     17  H   UNL     1       4.445  -7.681  23.925  0.00  0.00    +0.301 HD
ENDBRANCH   1  14
BRANCH   6  18
ATOM     18  C   UNL     1       8.101  -0.344  22.617  0.00  0.00    +0.059 A 
ATOM     19  C   UNL     1       9.274  -0.083  21.881  0.00  0.00    +0.127 A 
ATOM     20  C   UNL     1       9.852   1.189  21.867  0.00  0.00    +0.046 A 
ATOM     21  C   UNL     1       9.269   2.222  22.597  0.00  0.00    +0.004 A 
ATOM     22  C   UNL     1       8.116   1.983  23.341  0.00  0.00    +0.001 A 
ATOM     23  C   UNL     1       7.538   0.710  23.353  0.00  0.00    +0.015 A 
BRANCH  19  24
ATOM     24  O   UNL     1       9.875  -1.088  21.157  0.00  0.00    -0.506 OA
ATOM     25  H   UNL     1       9.509  -1.935  21.469  0.00  0.00    +0.292 HD
ENDBRANCH  19  24
ENDBRANCH   6  18
TORSDOF 3
ENDMDL
MODEL 4
REMARK VINA RESULT:      -6.7      2.815      7.064
REMARK  Name = 
REMARK  3 active torsions:
REMARK  status: ('A' for Active; 'I' for Inactive)
REMARK    1  A    between atoms: C_2  and  C_6
REMARK    2  A    between atoms: C_13  and  C_15
REMARK    3  A    between atoms: C_20  and  O_21
REMARK                            x       y       z     vdW  Elec       q    Type
REMARK                         _______ _______ _______ _____ _____    ______ ____
ROOT
ATOM      1  C   UNL     1       9.067   0.310  22.295  0.00  0.00    +0.063 A 
ATOM      2  C   UNL     1      10.199  -0.503  22.507  0.00  0.00    +0.018 A 
ATOM      3  C   UNL     1      10.085  -1.830  22.959  0.00  0.00    +0.031 A 
ATOM      4  C   UNL     1       8.810  -2.344  23.223  0.00  0.00    +0.089 A 
ATOM      5  N   UNL     1       8.433  -3.579  23.682  0.00  0.00    -0.228 NA
ATOM      6  C   UNL     1       7.112  -3.552  23.770  0.00  0.00    +0.143 A 
ATOM      7  N   UNL     1       6.647  -2.323  23.367  0.00  0.00    -0.338 N 
ATOM      8  H   UNL     1       5.664  -2.084  23.362  0.00  0.00    +0.167 HD
ATOM      9  C   UNL     1       7.706  -1.533  23.013  0.00  0.00    +0.067 A 
ATOM     10  C   UNL     1       7.784  -0.220  22.542  0.00  0.00    +0.043 A 
ENDROOT
BRANCH   1  14
ATOM     11  N   UNL     1      10.397   2.280  21.818  0.00  0.00    -0.250 N 
ATOM     12  H   UNL     1      11.223   1.757  22.089  0.00  0.00    +0.288 HD
ATOM     13  H   UNL     1      10.535   3.237  21.524  0.00  0.00    +0.288 HD
ATOM     14  C   UNL     1       9.213   1.705  21.828  0.00  0.00    +0.266 C 
ATOM     15  N   UNL     1       8.151   2.375  21.427  0.00  0.00    -0.288 N 
ATOM     16  H   UNL     1       8.201   3.326  21.091  0.00  0.00    +0.301 HD
ATOM     17  H   UNL     1       7.231   1.950  21.467  0.00  0.00    +0.301 HD
ENDBRANCH   1  14
BRANCH   6  18
ATOM     18  C   UNL     1       6.219  -4.632  24.209  0.00  0.00    +0.059 A 
ATOM     19  C   UNL     1       5.228  -5.190  23.377  0.00  0.00    +0.127 A 
ATOM     20  C   UNL     1       4.415  -6.236  23.821  0.00  0.00    +0.046 A 
ATOM     21  C   UNL     1       4.575  -6.737  25.110  0.00  0.00    +0.004 A 
ATOM     22  C   UNL     1       5.541  -6.191  25.953  0.00  0.00    +0.001 A 
ATOM     23  C   UNL     1       6.355  -5.145  25.507  0.00  0.00    +0.015 A 
BRANCH  19  24
ATOM     24  O   UNL     1       5.045  -4.708  22.100  0.00  0.00    -0.506 OA
ATOM     25  H   UNL     1       5.631  -5.212  21.507  0.00  0.00    +0.292 HD
ENDBRANCH  19  24
ENDBRANCH   6  18
TORSDOF 3
ENDMDL
MODEL 5
REMARK VINA RESULT:      -6.7      1.764      2.448
REMARK  Name = 
REMARK  3 active torsions:
REMARK  status: ('A' for Active; 'I' for Inactive)
REMARK    1  A    between atoms: C_2  and  C_6
REMARK    2  A    between atoms: C_13  and  C_15
REMARK    3  A    between atoms: C_20  and  O_21
REMARK                            x       y       z     vdW  Elec       q    Type
REMARK                         _______ _______ _______ _____ _____    ______ ____
ROOT
ATOM      1  C   UNL     1       5.748  -5.570  23.854  0.00  0.00    +0.063 A 
ATOM      2  C   UNL     1       6.309  -5.838  22.589  0.00  0.00    +0.018 A 
ATOM      3  C   UNL     1       7.193  -4.939  21.966  0.00  0.00    +0.031 A 
ATOM      4  C   UNL     1       7.503  -3.739  22.616  0.00  0.00    +0.089 A 
ATOM      5  N   UNL     1       8.310  -2.703  22.222  0.00  0.00    -0.228 NA
ATOM      6  C   UNL     1       8.258  -1.805  23.193  0.00  0.00    +0.143 A 
ATOM      7  N   UNL     1       7.437  -2.259  24.199  0.00  0.00    -0.338 N 
ATOM      8  H   UNL     1       7.250  -1.724  25.036  0.00  0.00    +0.167 HD
ATOM      9  C   UNL     1       6.943  -3.488  23.859  0.00  0.00    +0.067 A 
ATOM     10  C   UNL     1       6.081  -4.370  24.515  0.00  0.00    +0.043 A 
ENDROOT
BRANCH   1  14
ATOM     11  N   UNL     1       4.887  -6.767  25.778  0.00  0.00    -0.250 N 
ATOM     12  H   UNL     1       5.555  -6.267  26.357  0.00  0.00    +0.288 HD
ATOM     13  H   UNL     1       4.280  -7.427  26.244  0.00  0.00    +0.288 HD
ATOM     14  C   UNL     1       4.814  -6.526  24.487  0.00  0.00    +0.266 C 
ATOM     15  N   UNL     1       3.911  -7.142  23.751  0.00  0.00    -0.288 N 
ATOM     16  H   UNL     1       3.245  -7.796  24.139  0.00  0.00    +0.301 HD
ATOM     17  H   UNL     1       3.873  -6.988  22.749  0.00  0.00    +0.301 HD
ENDBRANCH   1  14
BRANCH   6  18
ATOM     18  C   UNL     1       8.949  -0.512  23.259  0.00  0.00    +0.059 A 
ATOM     19  C   UNL     1       9.508   0.115  22.127  0.00  0.00    +0.127 A 
ATOM     20  C   UNL     1      10.135   1.359  22.225  0.00  0.00    +0.046 A 
ATOM     21  C   UNL     1      10.221   1.996  23.460  0.00  0.00    +0.004 A 
ATOM     22  C   UNL     1       9.686   1.388  24.594  0.00  0.00    +0.001 A 
ATOM     23  C   UNL     1       9.057   0.143  24.495  0.00  0.00    +0.015 A 
BRANCH  19  24
ATOM     24  O   UNL     1       9.443  -0.496  20.895  0.00  0.00    -0.506 OA
ATOM     25  H   UNL     1       9.568  -1.452  21.033  0.00  0.00    +0.292 HD
ENDBRANCH  19  24
ENDBRANCH   6  18
TORSDOF 3
ENDMDL
MODEL 6
REMARK VINA RESULT:      -6.5      2.493      2.932
REMARK  Name = 
REMARK  3 active torsions:
REMARK  status: ('A' for Active; 'I' for Inactive)
REMARK    1  A    between atoms: C_2  and  C_6
REMARK    2  A    between atoms: C_13  and  C_15
REMARK    3  A    between atoms: C_20  and  O_21
REMARK                            x       y       z     vdW  Elec       q    Type
REMARK                         _______ _______ _______ _____ _____    ______ ____
ROOT
ATOM      1  C   UNL     1       7.363  -4.997  26.291  0.00  0.00    +0.063 A 
ATOM      2  C   UNL     1       8.497  -5.570  25.682  0.00  0.00    +0.018 A 
ATOM      3  C   UNL     1       9.403  -4.800  24.929  0.00  0.00    +0.031 A 
ATOM      4  C   UNL     1       9.152  -3.433  24.769  0.00  0.00    +0.089 A 
ATOM      5  N   UNL     1       9.857  -2.480  24.080  0.00  0.00    -0.228 NA
ATOM      6  C   UNL     1       9.193  -1.345  24.234  0.00  0.00    +0.143 A 
ATOM      7  N   UNL     1       8.083  -1.563  25.016  0.00  0.00    -0.338 N 
ATOM      8  H   UNL     1       7.430  -0.829  25.255  0.00  0.00    +0.167 HD
ATOM      9  C   UNL     1       8.032  -2.882  25.372  0.00  0.00    +0.067 A 
ATOM     10  C   UNL     1       7.127  -3.614  26.145  0.00  0.00    +0.043 A 
ENDROOT
BRANCH   1  14
ATOM     11  N   UNL     1       5.259  -6.172  26.555  0.00  0.00    -0.250 N 
ATOM     12  H   UNL     1       5.021  -5.908  25.604  0.00  0.00    +0.288 HD
ATOM     13  H   UNL     1       4.580  -6.722  27.062  0.00  0.00    +0.288 HD
ATOM     14  C   UNL     1       6.420  -5.827  27.071  0.00  0.00    +0.266 C 
ATOM     15  N   UNL     1       6.743  -6.217  28.287  0.00  0.00    -0.288 N 
ATOM     16  H   UNL     1       6.136  -6.792  28.855  0.00  0.00    +0.301 HD
ATOM     17  H   UNL     1       7.620  -5.924  28.704  0.00  0.00    +0.301 HD
ENDBRANCH   1  14
BRANCH   6  18
ATOM     18  C   UNL     1       9.535  -0.024  23.695  0.00  0.00    +0.059 A 
ATOM     19  C   UNL     1       9.799   0.200  22.329  0.00  0.00    +0.127 A 
ATOM     20  C   UNL     1      10.095   1.478  21.849  0.00  0.00    +0.046 A 
ATOM     21  C   UNL     1      10.138   2.555  22.730  0.00  0.00    +0.004 A 
ATOM     22  C   UNL     1       9.893   2.354  24.086  0.00  0.00    +0.001 A 
ATOM     23  C   UNL     1       9.596   1.075  24.565  0.00  0.00    +0.015 A 
BRANCH  19  24
ATOM     24  O   UNL     1       9.769  -0.849  21.438  0.00  0.00    -0.506 OA
ATOM     25  H   UNL     1       9.668  -1.670  21.952  0.00  0.00    +0.292 HD
ENDBRANCH  19  24
ENDBRANCH   6  18
TORSDOF 3
ENDMDL
MODEL 7
REMARK VINA RESULT:      -6.5      2.505      6.994
REMARK  Name = 
REMARK  3 active torsions:
REMARK  status: ('A' for Active; 'I' for Inactive)
REMARK    1  A    between atoms: C_2  and  C_6
REMARK    2  A    between atoms: C_13  and  C_15
REMARK    3  A    between atoms: C_20  and  O_21
REMARK                            x       y       z     vdW  Elec       q    Type
REMARK                         _______ _______ _______ _____ _____    ______ ____
ROOT
ATOM      1  C   UNL     1       9.933   1.934  23.499  0.00  0.00    +0.063 A 
ATOM      2  C   UNL     1      10.627   1.269  24.530  0.00  0.00    +0.018 A 
ATOM      3  C   UNL     1      10.445  -0.103  24.781  0.00  0.00    +0.031 A 
ATOM      4  C   UNL     1       9.533  -0.816  23.994  0.00  0.00    +0.089 A 
ATOM      5  N   UNL     1       9.165  -2.136  24.044  0.00  0.00    -0.228 NA
ATOM      6  C   UNL     1       8.264  -2.304  23.090  0.00  0.00    +0.143 A 
ATOM      7  N   UNL     1       8.060  -1.114  22.431  0.00  0.00    -0.338 N 
ATOM      8  H   UNL     1       7.405  -1.016  21.667  0.00  0.00    +0.167 HD
ATOM      9  C   UNL     1       8.856  -0.149  22.985  0.00  0.00    +0.067 A 
ATOM     10  C   UNL     1       9.032   1.206  22.695  0.00  0.00    +0.043 A 
ENDROOT
BRANCH   1  14
ATOM     11  N   UNL     1       9.096   4.179  23.132  0.00  0.00    -0.250 N 
ATOM     12  H   UNL     1       8.154   3.819  23.240  0.00  0.00    +0.288 HD
ATOM     13  H   UNL     1       9.191   5.168  22.949  0.00  0.00    +0.288 HD
ATOM     14  C   UNL     1      10.134   3.379  23.260  0.00  0.00    +0.266 C 
ATOM     15  N   UNL     1      11.355   3.863  23.168  0.00  0.00    -0.288 N 
ATOM     16  H   UNL     1      11.543   4.844  23.014  0.00  0.00    +0.301 HD
ATOM     17  H   UNL     1      12.158   3.246  23.229  0.00  0.00    +0.301 HD
ENDBRANCH   1  14
BRANCH   6  18
ATOM     18  C   UNL     1       7.559  -3.540  22.727  0.00  0.00    +0.059 A 
ATOM     19  C   UNL     1       7.891  -4.797  23.270  0.00  0.00    +0.127 A 
ATOM     20  C   UNL     1       7.180  -5.947  22.921  0.00  0.00    +0.046 A 
ATOM     21  C   UNL     1       6.126  -5.861  22.016  0.00  0.00    +0.004 A 
ATOM     22  C   UNL     1       5.789  -4.630  21.457  0.00  0.00    +0.001 A 
ATOM     23  C   UNL     1       6.501  -3.479  21.808  0.00  0.00    +0.015 A 
BRANCH  19  24
ATOM     24  O   UNL     1       8.934  -4.911  24.163  0.00  0.00    -0.506 OA
ATOM     25  H   UNL     1       9.440  -4.080  24.134  0.00  0.00    +0.292 HD
ENDBRANCH  19  24
ENDBRANCH   6  18
TORSDOF 3
ENDMDL
MODEL 8
REMARK VINA RESULT:      -6.5      2.536      6.831
REMARK  Name = 
REMARK  3 active torsions:
REMARK  status: ('A' for Active; 'I' for Inactive)
REMARK    1  A    between atoms: C_2  and  C_6
REMARK    2  A    between atoms: C_13  and  C_15
REMARK    3  A    between atoms: C_20  and  O_21
REMARK                            x       y       z     vdW  Elec       q    Type
REMARK                         _______ _______ _______ _____ _____    ______ ____
ROOT
ATOM      1  C   UNL     1       9.126   0.282  22.370  0.00  0.00    +0.063 A 
ATOM      2  C   UNL     1      10.282  -0.493  22.595  0.00  0.00    +0.018 A 
ATOM      3  C   UNL     1      10.209  -1.803  23.102  0.00  0.00    +0.031 A 
ATOM      4  C   UNL     1       8.953  -2.337  23.409  0.00  0.00    +0.089 A 
ATOM      5  N   UNL     1       8.615  -3.562  23.924  0.00  0.00    -0.228 NA
ATOM      6  C   UNL     1       7.296  -3.565  24.034  0.00  0.00    +0.143 A 
ATOM      7  N   UNL     1       6.792  -2.365  23.590  0.00  0.00    -0.338 N 
ATOM      8  H   UNL     1       5.804  -2.152  23.592  0.00  0.00    +0.167 HD
ATOM      9  C   UNL     1       7.824  -1.564  23.185  0.00  0.00    +0.067 A 
ATOM     10  C   UNL     1       7.861  -0.270  22.660  0.00  0.00    +0.043 A 
ENDROOT
BRANCH   1  14
ATOM     11  N   UNL     1      10.395   2.264  21.791  0.00  0.00    -0.250 N 
ATOM     12  H   UNL     1      11.239   1.774  22.070  0.00  0.00    +0.288 HD
ATOM     13  H   UNL     1      10.503   3.211  21.457  0.00  0.00    +0.288 HD
ATOM     14  C   UNL     1       9.227   1.660  21.844  0.00  0.00    +0.266 C 
ATOM     15  N   UNL     1       8.143   2.284  21.433  0.00  0.00    -0.288 N 
ATOM     16  H   UNL     1       8.162   3.222  21.057  0.00  0.00    +0.301 HD
ATOM     17  H   UNL     1       7.235   1.838  21.505  0.00  0.00    +0.301 HD
ENDBRANCH   1  14
BRANCH   6  18
ATOM     18  C   UNL     1       6.439  -4.648  24.531  0.00  0.00    +0.059 A 
ATOM     19  C   UNL     1       6.498  -5.123  25.856  0.00  0.00    +0.127 A 
ATOM     20  C   UNL     1       5.647  -6.137  26.301  0.00  0.00    +0.046 A 
ATOM     21  C   UNL     1       4.723  -6.700  25.423  0.00  0.00    +0.004 A 
ATOM     22  C   UNL     1       4.656  -6.253  24.105  0.00  0.00    +0.001 A 
ATOM     23  C   UNL     1       5.508  -5.237  23.662  0.00  0.00    +0.015 A 
BRANCH  19  24
ATOM     24  O   UNL     1       7.406  -4.589  26.743  0.00  0.00    -0.506 OA
ATOM     25  H   UNL     1       8.023  -5.299  26.997  0.00  0.00    +0.292 HD
ENDBRANCH  19  24
ENDBRANCH   6  18
TORSDOF 3
ENDMDL
MODEL 9
REMARK VINA RESULT:      -6.4      2.636      7.023
REMARK  Name = 
REMARK  3 active torsions:
REMARK  status: ('A' for Active; 'I' for Inactive)
REMARK    1  A    between atoms: C_2  and  C_6
REMARK    2  A    between atoms: C_13  and  C_15
REMARK    3  A    between atoms: C_20  and  O_21
REMARK                            x       y       z     vdW  Elec       q    Type
REMARK                         _______ _______ _______ _____ _____    ______ ____
ROOT
ATOM      1  C   UNL     1       8.314   1.977  22.319  0.00  0.00    +0.063 A 
ATOM      2  C   UNL     1       9.541   1.414  21.912  0.00  0.00    +0.018 A 
ATOM      3  C   UNL     1       9.731   0.022  21.843  0.00  0.00    +0.031 A 
ATOM      4  C   UNL     1       8.675  -0.820  22.210  0.00  0.00    +0.089 A 
ATOM      5  N   UNL     1       8.610  -2.189  22.249  0.00  0.00    -0.228 NA
ATOM      6  C   UNL     1       7.392  -2.488  22.673  0.00  0.00    +0.143 A 
ATOM      7  N   UNL     1       6.683  -1.331  22.897  0.00  0.00    -0.338 N 
ATOM      8  H   UNL     1       5.730  -1.329  23.233  0.00  0.00    +0.167 HD
ATOM      9  C   UNL     1       7.475  -0.254  22.610  0.00  0.00    +0.067 A 
ATOM     10  C   UNL     1       7.247   1.123  22.665  0.00  0.00    +0.043 A 
ENDROOT
BRANCH   1  14
ATOM     11  N   UNL     1       7.078   4.011  21.860  0.00  0.00    -0.250 N 
ATOM     12  H   UNL     1       6.351   3.444  21.435  0.00  0.00    +0.288 HD
ATOM     13  H   UNL     1       6.932   5.011  21.872  0.00  0.00    +0.288 HD
ATOM     14  C   UNL     1       8.140   3.443  22.392  0.00  0.00    +0.266 C 
ATOM     15  N   UNL     1       9.055   4.182  22.985  0.00  0.00    -0.288 N 
ATOM     16  H   UNL     1       8.976   5.186  23.068  0.00  0.00    +0.301 HD
ATOM     17  H   UNL     1       9.893   3.754  23.364  0.00  0.00    +0.301 HD
ENDBRANCH   1  14
BRANCH   6  18
ATOM     18  C   UNL     1       6.817  -3.822  22.884  0.00  0.00    +0.059 A 
ATOM     19  C   UNL     1       6.242  -4.222  24.107  0.00  0.00    +0.127 A 
ATOM     20  C   UNL     1       5.680  -5.492  24.261  0.00  0.00    +0.046 A 
ATOM     21  C   UNL     1       5.689  -6.387  23.194  0.00  0.00    +0.004 A 
ATOM     22  C   UNL     1       6.263  -6.016  21.981  0.00  0.00    +0.001 A 
ATOM     23  C   UNL     1       6.825  -4.745  21.827  0.00  0.00    +0.015 A 
BRANCH  19  24
ATOM     24  O   UNL     1       6.226  -3.359  25.180  0.00  0.00    -0.506 OA
ATOM     25  H   UNL     1       6.721  -3.781  25.905  0.00  0.00    +0.292 HD
ENDBRANCH  19  24
ENDBRANCH   6  18
TORSDOF 3
ENDMDL
