MODEL 1
REMARK VINA RESULT:      -6.2      0.000      0.000
REMARK  Name = 
REMARK  16 active torsions:
REMARK  status: ('A' for Active; 'I' for Inactive)
REMARK    1  A    between atoms: N_1  and  CA_2
REMARK    2  A    between atoms: CA_2  and  CB_4
REMARK    3  A    between atoms: CA_2  and  C_24
REMARK    4  A    between atoms: CB_4  and  SG_5
REMARK    5  A    between atoms: SG_5  and  C_6
REMARK    6  A    between atoms: C_6  and  C_7
REMARK    7  A    between atoms: C_7  and  C_8
REMARK    8  A    between atoms: C_8  and  C_9
REMARK    9  A    between atoms: C_9  and  C_10
REMARK   10  A    between atoms: CA_11  and  N_12
REMARK   11  A    between atoms: CA_11  and  C_21
REMARK   12  A    between atoms: C_13  and  C_15
REMARK   13  A    between atoms: C_18  and  C_19
REMARK   14  A    between atoms: C_18  and  C_20
REMARK   15  A    between atoms: C_21  and  OXT_23
REMARK   16  A    between atoms: C_24  and  OXT_26
REMARK                            x       y       z     vdW  Elec       q    Type
REMARK                         _______ _______ _______ _____ _____    ______ ____
ROOT
ATOM      1  C   UNL     1      11.419   3.494  23.381  0.00  0.00    +0.003 C 
ATOM      2  CA  UNL     1      11.302   4.840  23.452  0.00  0.00    +0.114 C 
ENDROOT
BRANCH   2   3
ATOM      3  N   UNL     1      10.077   5.465  23.216  0.00  0.00    -0.280 N 
ATOM      4  H   UNL     1       9.891   5.745  22.262  0.00  0.00    +0.155 HD
ATOM      5  C   UNL     1       9.045   5.672  24.102  0.00  0.00    +0.221 C 
ATOM      6  O   UNL     1       9.123   5.401  25.293  0.00  0.00    -0.275 OA
BRANCH   5   7
ATOM      7  C   UNL     1       7.777   6.257  23.546  0.00  0.00    +0.081 C 
ATOM      8  C   UNL     1       6.706   5.437  22.812  0.00  0.00    -0.023 C 
ATOM      9  C   UNL     1       5.269   5.901  22.816  0.00  0.00    +0.011 C 
ATOM     10  C   UNL     1       6.833   3.936  22.709  0.00  0.00    +0.011 C 
ATOM     11  C   UNL     1       7.661   6.303  22.030  0.00  0.00    +0.020 C 
ENDBRANCH   5   7
ENDBRANCH   2   3
BRANCH   2  12
ATOM     12  C   UNL     1      12.592   5.524  23.863  0.00  0.00    +0.351 C 
ATOM     13  O   UNL     1      12.638   6.348  24.769  0.00  0.00    -0.244 OA
BRANCH  12  14
ATOM     14  OXT UNL     1      13.719   5.072  23.287  0.00  0.00    -0.476 OA
ATOM     15  HXT UNL     1      14.426   4.886  23.946  0.00  0.00    +0.295 HD
ENDBRANCH  12  14
ENDBRANCH   2  12
BRANCH   1  16
ATOM     16  C   UNL     1      10.324   2.506  23.115  0.00  0.00    +0.029 C 
BRANCH  16  17
ATOM     17  C   UNL     1       9.784   1.737  24.334  0.00  0.00    +0.005 C 
BRANCH  17  18
ATOM     18  C   UNL     1      10.660   0.488  24.502  0.00  0.00    +0.011 C 
BRANCH  18  19
ATOM     19  C   UNL     1      10.110  -0.779  23.858  0.00  0.00    +0.069 C 
BRANCH  19  20
ATOM     20  SG  UNL     1       9.098  -1.624  25.128  0.00  0.00    -0.159 S 
BRANCH  20  21
ATOM     21  CB  UNL     1       9.125  -3.321  24.454  0.00  0.00    +0.099 C 
BRANCH  21  22
ATOM     22  CA  UNL     1       9.276  -4.348  25.587  0.00  0.00    +0.170 C 
BRANCH  22  23
ATOM     23  N   UNL     1      10.305  -5.404  25.314  0.00  0.00    -0.318 NA
ATOM     24  H1  UNL     1      10.407  -5.974  26.161  0.00  0.00    +0.119 HD
ATOM     25  H2  UNL     1       9.870  -6.056  24.648  0.00  0.00    +0.119 HD
ENDBRANCH  22  23
BRANCH  22  26
ATOM     26  C   UNL     1       7.936  -5.046  25.849  0.00  0.00    +0.323 C 
ATOM     27  O   UNL     1       6.903  -4.853  25.234  0.00  0.00    -0.249 OA
BRANCH  26  28
ATOM     28  OXT UNL     1       8.037  -5.913  26.894  0.00  0.00    -0.480 OA
ATOM     29  HXT UNL     1       8.941  -5.788  27.276  0.00  0.00    +0.295 HD
ENDBRANCH  26  28
ENDBRANCH  22  26
ENDBRANCH  21  22
ENDBRANCH  20  21
ENDBRANCH  19  20
ENDBRANCH  18  19
ENDBRANCH  17  18
ENDBRANCH  16  17
ENDBRANCH   1  16
TORSDOF 14
ENDMDL
MODEL 2
REMARK VINA RESULT:      -6.1      4.587      7.172
REMARK  Name = 
REMARK  16 active torsions:
REMARK  status: ('A' for Active; 'I' for Inactive)
REMARK    1  A    between atoms: N_1  and  CA_2
REMARK    2  A    between atoms: CA_2  and  CB_4
REMARK    3  A    between atoms: CA_2  and  C_24
REMARK    4  A    between atoms: CB_4  and  SG_5
REMARK    5  A    between atoms: SG_5  and  C_6
REMARK    6  A    between atoms: C_6  and  C_7
REMARK    7  A    between atoms: C_7  and  C_8
REMARK    8  A    between atoms: C_8  and  C_9
REMARK    9  A    between atoms: C_9  and  C_10
REMARK   10  A    between atoms: CA_11  and  N_12
REMARK   11  A    between atoms: CA_11  and  C_21
REMARK   12  A    between atoms: C_13  and  C_15
REMARK   13  A    between atoms: C_18  and  C_19
REMARK   14  A    between atoms: C_18  and  C_20
REMARK   15  A    between atoms: C_21  and  OXT_23
REMARK   16  A    between atoms: C_24  and  OXT_26
REMARK                            x       y       z     vdW  Elec       q    Type
REMARK                         _______ _______ _______ _____ _____    ______ ____
ROOT
ATOM      1  C   UNL     1       7.898  -4.528  23.814  0.00  0.00    +0.003 C 
ATOM      2  CA  UNL     1       8.997  -3.956  24.359  0.00  0.00    +0.114 C 
ENDROOT
BRANCH   2   3
ATOM      3  N   UNL     1       9.592  -2.842  23.767  0.00  0.00    -0.280 N 
ATOM      4  H   UNL     1      10.007  -2.985  22.857  0.00  0.00    +0.155 HD
ATOM      5  C   UNL     1       9.611  -1.545  24.226  0.00  0.00    +0.221 C 
ATOM      6  O   UNL     1       9.162  -1.216  25.316  0.00  0.00    -0.275 OA
BRANCH   5   7
ATOM      7  C   UNL     1      10.215  -0.511  23.318  0.00  0.00    +0.081 C 
ATOM      8  C   UNL     1       9.391   0.457  22.456  0.00  0.00    -0.023 C 
ATOM      9  C   UNL     1       9.972   1.795  22.063  0.00  0.00    +0.011 C 
ATOM     10  C   UNL     1       7.886   0.486  22.569  0.00  0.00    +0.011 C 
ATOM     11  C   UNL     1      10.051  -0.742  21.824  0.00  0.00    +0.020 C 
ENDBRANCH   5   7
ENDBRANCH   2   3
BRANCH   2  12
ATOM     12  C   UNL     1       9.421  -4.615  25.659  0.00  0.00    +0.351 C 
ATOM     13  O   UNL     1       8.971  -4.271  26.745  0.00  0.00    -0.244 OA
BRANCH  12  14
ATOM     14  OXT UNL     1      10.204  -5.702  25.551  0.00  0.00    -0.476 OA
ATOM     15  HXT UNL     1      10.848  -5.773  26.293  0.00  0.00    +0.295 HD
ENDBRANCH  12  14
ENDBRANCH   2  12
BRANCH   1  16
ATOM     16  C   UNL     1       7.149  -4.066  22.601  0.00  0.00    +0.029 C 
BRANCH  16  17
ATOM     17  C   UNL     1       5.944  -3.142  22.852  0.00  0.00    +0.005 C 
BRANCH  17  18
ATOM     18  C   UNL     1       5.368  -3.517  24.224  0.00  0.00    +0.011 C 
BRANCH  18  19
ATOM     19  C   UNL     1       4.307  -4.610  24.203  0.00  0.00    +0.069 C 
BRANCH  19  20
ATOM     20  SG  UNL     1       4.903  -5.951  25.298  0.00  0.00    -0.159 S 
BRANCH  20  21
ATOM     21  CB  UNL     1       4.154  -5.409  26.873  0.00  0.00    +0.099 C 
BRANCH  21  22
ATOM     22  CA  UNL     1       5.244  -5.108  27.912  0.00  0.00    +0.170 C 
BRANCH  22  23
ATOM     23  N   UNL     1       6.229  -4.066  27.474  0.00  0.00    -0.318 NA
ATOM     24  H1  UNL     1       6.752  -4.440  26.675  0.00  0.00    +0.119 HD
ATOM     25  H2  UNL     1       5.671  -3.312  27.050  0.00  0.00    +0.119 HD
ENDBRANCH  22  23
BRANCH  22  26
ATOM     26  C   UNL     1       6.022  -6.386  28.246  0.00  0.00    +0.323 C 
ATOM     27  O   UNL     1       5.533  -7.444  28.600  0.00  0.00    -0.249 OA
BRANCH  26  28
ATOM     28  OXT UNL     1       7.363  -6.186  28.119  0.00  0.00    -0.480 OA
ATOM     29  HXT UNL     1       7.760  -7.068  27.914  0.00  0.00    +0.295 HD
ENDBRANCH  26  28
ENDBRANCH  22  26
ENDBRANCH  21  22
ENDBRANCH  20  21
ENDBRANCH  19  20
ENDBRANCH  18  19
ENDBRANCH  17  18
ENDBRANCH  16  17
ENDBRANCH   1  16
TORSDOF 14
ENDMDL
MODEL 3
REMARK VINA RESULT:      -6.1      4.708      7.445
REMARK  Name = 
REMARK  16 active torsions:
REMARK  status: ('A' for Active; 'I' for Inactive)
REMARK    1  A    between atoms: N_1  and  CA_2
REMARK    2  A    between atoms: CA_2  and  CB_4
REMARK    3  A    between atoms: CA_2  and  C_24
REMARK    4  A    between atoms: CB_4  and  SG_5
REMARK    5  A    between atoms: SG_5  and  C_6
REMARK    6  A    between atoms: C_6  and  C_7
REMARK    7  A    between atoms: C_7  and  C_8
REMARK    8  A    between atoms: C_8  and  C_9
REMARK    9  A    between atoms: C_9  and  C_10
REMARK   10  A    between atoms: CA_11  and  N_12
REMARK   11  A    between atoms: CA_11  and  C_21
REMARK   12  A    between atoms: C_13  and  C_15
REMARK   13  A    between atoms: C_18  and  C_19
REMARK   14  A    between atoms: C_18  and  C_20
REMARK   15  A    between atoms: C_21  and  OXT_23
REMARK   16  A    between atoms: C_24  and  OXT_26
REMARK                            x       y       z     vdW  Elec       q    Type
REMARK                         _______ _______ _______ _____ _____    ______ ____
ROOT
ATOM      1  C   UNL     1       7.707  -4.720  23.634  0.00  0.00    +0.003 C 
ATOM      2  CA  UNL     1       8.578  -3.805  24.120  0.00  0.00    +0.114 C 
ENDROOT
BRANCH   2   3
ATOM      3  N   UNL     1       8.581  -2.495  23.641  0.00  0.00    -0.280 N 
ATOM      4  H   UNL     1       7.757  -1.943  23.837  0.00  0.00    +0.155 HD
ATOM      5  C   UNL     1       9.603  -1.824  23.009  0.00  0.00    +0.221 C 
ATOM      6  O   UNL     1      10.656  -2.359  22.691  0.00  0.00    -0.275 OA
BRANCH   5   7
ATOM      7  C   UNL     1       9.380  -0.367  22.715  0.00  0.00    +0.081 C 
ATOM      8  C   UNL     1       9.887   0.774  23.609  0.00  0.00    -0.023 C 
ATOM      9  C   UNL     1      10.169   2.132  23.009  0.00  0.00    +0.011 C 
ATOM     10  C   UNL     1      10.756   0.475  24.807  0.00  0.00    +0.011 C 
ATOM     11  C   UNL     1       8.433   0.375  23.646  0.00  0.00    +0.020 C 
ENDBRANCH   5   7
ENDBRANCH   2   3
BRANCH   2  12
ATOM     12  C   UNL     1       9.450  -4.354  25.234  0.00  0.00    +0.351 C 
ATOM     13  O   UNL     1       9.302  -4.024  26.405  0.00  0.00    -0.244 OA
BRANCH  12  14
ATOM     14  OXT UNL     1      10.298  -5.341  24.899  0.00  0.00    -0.476 OA
ATOM     15  HXT UNL     1      11.240  -5.072  24.999  0.00  0.00    +0.295 HD
ENDBRANCH  12  14
ENDBRANCH   2  12
BRANCH   1  16
ATOM     16  C   UNL     1       6.633  -4.489  22.615  0.00  0.00    +0.029 C 
BRANCH  16  17
ATOM     17  C   UNL     1       5.181  -4.617  23.109  0.00  0.00    +0.005 C 
BRANCH  17  18
ATOM     18  C   UNL     1       4.868  -6.116  23.202  0.00  0.00    +0.011 C 
BRANCH  18  19
ATOM     19  C   UNL     1       4.690  -6.653  24.617  0.00  0.00    +0.069 C 
BRANCH  19  20
ATOM     20  SG  UNL     1       3.345  -5.681  25.389  0.00  0.00    -0.159 S 
BRANCH  20  21
ATOM     21  CB  UNL     1       3.918  -5.698  27.123  0.00  0.00    +0.099 C 
BRANCH  21  22
ATOM     22  CA  UNL     1       5.280  -6.399  27.233  0.00  0.00    +0.170 C 
BRANCH  22  23
ATOM     23  N   UNL     1       5.329  -7.467  28.284  0.00  0.00    -0.318 NA
ATOM     24  H1  UNL     1       6.028  -7.193  28.982  0.00  0.00    +0.119 HD
ATOM     25  H2  UNL     1       4.444  -7.393  28.803  0.00  0.00    +0.119 HD
ENDBRANCH  22  23
BRANCH  22  26
ATOM     26  C   UNL     1       6.378  -5.375  27.544  0.00  0.00    +0.323 C 
ATOM     27  O   UNL     1       6.230  -4.168  27.591  0.00  0.00    -0.249 OA
BRANCH  26  28
ATOM     28  OXT UNL     1       7.575  -5.993  27.746  0.00  0.00    -0.480 OA
ATOM     29  HXT UNL     1       8.235  -5.515  27.184  0.00  0.00    +0.295 HD
ENDBRANCH  26  28
ENDBRANCH  22  26
ENDBRANCH  21  22
ENDBRANCH  20  21
ENDBRANCH  19  20
ENDBRANCH  18  19
ENDBRANCH  17  18
ENDBRANCH  16  17
ENDBRANCH   1  16
TORSDOF 14
ENDMDL
MODEL 4
REMARK VINA RESULT:      -5.9      4.742      7.430
REMARK  Name = 
REMARK  16 active torsions:
REMARK  status: ('A' for Active; 'I' for Inactive)
REMARK    1  A    between atoms: N_1  and  CA_2
REMARK    2  A    between atoms: CA_2  and  CB_4
REMARK    3  A    between atoms: CA_2  and  C_24
REMARK    4  A    between atoms: CB_4  and  SG_5
REMARK    5  A    between atoms: SG_5  and  C_6
REMARK    6  A    between atoms: C_6  and  C_7
REMARK    7  A    between atoms: C_7  and  C_8
REMARK    8  A    between atoms: C_8  and  C_9
REMARK    9  A    between atoms: C_9  and  C_10
REMARK   10  A    between atoms: CA_11  and  N_12
REMARK   11  A    between atoms: CA_11  and  C_21
REMARK   12  A    between atoms: C_13  and  C_15
REMARK   13  A    between atoms: C_18  and  C_19
REMARK   14  A    between atoms: C_18  and  C_20
REMARK   15  A    between atoms: C_21  and  OXT_23
REMARK   16  A    between atoms: C_24  and  OXT_26
REMARK                            x       y       z     vdW  Elec       q    Type
REMARK                         _______ _______ _______ _____ _____    ______ ____
ROOT
ATOM      1  C   UNL     1       7.606  -3.820  24.148  0.00  0.00    +0.003 C 
ATOM      2  CA  UNL     1       7.337  -3.116  23.024  0.00  0.00    +0.114 C 
ENDROOT
BRANCH   2   3
ATOM      3  N   UNL     1       7.707  -1.775  22.914  0.00  0.00    -0.280 N 
ATOM      4  H   UNL     1       7.065  -1.098  23.303  0.00  0.00    +0.155 HD
ATOM      5  C   UNL     1       8.881  -1.257  22.418  0.00  0.00    +0.221 C 
ATOM      6  O   UNL     1       9.749  -1.946  21.900  0.00  0.00    -0.275 OA
BRANCH   5   7
ATOM      7  C   UNL     1       9.073   0.229  22.539  0.00  0.00    +0.081 C 
ATOM      8  C   UNL     1       9.725   0.912  23.750  0.00  0.00    -0.023 C 
ATOM      9  C   UNL     1      10.417   2.244  23.580  0.00  0.00    +0.011 C 
ATOM     10  C   UNL     1      10.321   0.084  24.863  0.00  0.00    +0.011 C 
ATOM     11  C   UNL     1       8.226   0.939  23.585  0.00  0.00    +0.020 C 
ENDBRANCH   5   7
ENDBRANCH   2   3
BRANCH   2  12
ATOM     12  C   UNL     1       6.679  -3.956  21.946  0.00  0.00    +0.351 C 
ATOM     13  O   UNL     1       7.098  -5.063  21.629  0.00  0.00    -0.244 OA
BRANCH  12  14
ATOM     14  OXT UNL     1       5.516  -3.494  21.454  0.00  0.00    -0.476 OA
ATOM     15  HXT UNL     1       5.591  -2.569  21.126  0.00  0.00    +0.295 HD
ENDBRANCH  12  14
ENDBRANCH   2  12
BRANCH   1  16
ATOM     16  C   UNL     1       8.345  -3.337  25.359  0.00  0.00    +0.029 C 
BRANCH  16  17
ATOM     17  C   UNL     1       8.778  -4.413  26.372  0.00  0.00    +0.005 C 
BRANCH  17  18
ATOM     18  C   UNL     1       7.528  -5.235  26.715  0.00  0.00    +0.011 C 
BRANCH  18  19
ATOM     19  C   UNL     1       6.459  -4.488  27.504  0.00  0.00    +0.069 C 
BRANCH  19  20
ATOM     20  SG  UNL     1       4.916  -5.464  27.365  0.00  0.00    -0.159 S 
BRANCH  20  21
ATOM     21  CB  UNL     1       5.262  -6.353  25.808  0.00  0.00    +0.099 C 
BRANCH  21  22
ATOM     22  CA  UNL     1       3.968  -6.552  25.003  0.00  0.00    +0.170 C 
BRANCH  22  23
ATOM     23  N   UNL     1       3.434  -7.951  25.051  0.00  0.00    -0.318 NA
ATOM     24  H1  UNL     1       2.470  -7.911  25.399  0.00  0.00    +0.119 HD
ATOM     25  H2  UNL     1       3.313  -8.241  24.071  0.00  0.00    +0.119 HD
ENDBRANCH  22  23
BRANCH  22  26
ATOM     26  C   UNL     1       4.199  -6.181  23.533  0.00  0.00    +0.323 C 
ATOM     27  O   UNL     1       3.547  -5.376  22.893  0.00  0.00    -0.249 OA
BRANCH  26  28
ATOM     28  OXT UNL     1       5.234  -6.895  23.009  0.00  0.00    -0.480 OA
ATOM     29  HXT UNL     1       5.033  -7.015  22.048  0.00  0.00    +0.295 HD
ENDBRANCH  26  28
ENDBRANCH  22  26
ENDBRANCH  21  22
ENDBRANCH  20  21
ENDBRANCH  19  20
ENDBRANCH  18  19
ENDBRANCH  17  18
ENDBRANCH  16  17
ENDBRANCH   1  16
TORSDOF 14
ENDMDL
MODEL 5
REMARK VINA RESULT:      -5.9      2.426      2.754
REMARK  Name = 
REMARK  16 active torsions:
REMARK  status: ('A' for Active; 'I' for Inactive)
REMARK    1  A    between atoms: N_1  and  CA_2
REMARK    2  A    between atoms: CA_2  and  CB_4
REMARK    3  A    between atoms: CA_2  and  C_24
REMARK    4  A    between atoms: CB_4  and  SG_5
REMARK    5  A    between atoms: SG_5  and  C_6
REMARK    6  A    between atoms: C_6  and  C_7
REMARK    7  A    between atoms: C_7  and  C_8
REMARK    8  A    between atoms: C_8  and  C_9
REMARK    9  A    between atoms: C_9  and  C_10
REMARK   10  A    between atoms: CA_11  and  N_12
REMARK   11  A    between atoms: CA_11  and  C_21
REMARK   12  A    between atoms: C_13  and  C_15
REMARK   13  A    between atoms: C_18  and  C_19
REMARK   14  A    between atoms: C_18  and  C_20
REMARK   15  A    between atoms: C_21  and  OXT_23
REMARK   16  A    between atoms: C_24  and  OXT_26
REMARK                            x       y       z     vdW  Elec       q    Type
REMARK                         _______ _______ _______ _____ _____    ______ ____
ROOT
ATOM      1  C   UNL     1      11.421   3.689  23.441  0.00  0.00    +0.003 C 
ATOM      2  CA  UNL     1      11.276   5.034  23.465  0.00  0.00    +0.114 C 
ENDROOT
BRANCH   2   3
ATOM      3  N   UNL     1      10.045   5.626  23.184  0.00  0.00    -0.280 N 
ATOM      4  H   UNL     1       9.842   5.802  22.209  0.00  0.00    +0.155 HD
ATOM      5  C   UNL     1       9.026   5.923  24.060  0.00  0.00    +0.221 C 
ATOM      6  O   UNL     1       9.124   5.781  25.271  0.00  0.00    -0.275 OA
BRANCH   5   7
ATOM      7  C   UNL     1       7.747   6.441  23.464  0.00  0.00    +0.081 C 
ATOM      8  C   UNL     1       6.643   5.540  22.890  0.00  0.00    -0.023 C 
ATOM      9  C   UNL     1       5.212   6.022  22.873  0.00  0.00    +0.011 C 
ATOM     10  C   UNL     1       6.751   4.038  23.001  0.00  0.00    +0.011 C 
ATOM     11  C   UNL     1       7.581   6.271  21.962  0.00  0.00    +0.020 C 
ENDBRANCH   5   7
ENDBRANCH   2   3
BRANCH   2  12
ATOM     12  C   UNL     1      12.544   5.757  23.879  0.00  0.00    +0.351 C 
ATOM     13  O   UNL     1      12.541   6.672  24.694  0.00  0.00    -0.244 OA
BRANCH  12  14
ATOM     14  OXT UNL     1      13.701   5.246  23.423  0.00  0.00    -0.476 OA
ATOM     15  HXT UNL     1      14.280   5.934  23.023  0.00  0.00    +0.295 HD
ENDBRANCH  12  14
ENDBRANCH   2  12
BRANCH   1  16
ATOM     16  C   UNL     1      10.351   2.671  23.186  0.00  0.00    +0.029 C 
BRANCH  16  17
ATOM     17  C   UNL     1      10.271   1.497  24.179  0.00  0.00    +0.005 C 
BRANCH  17  18
ATOM     18  C   UNL     1       8.785   1.162  24.360  0.00  0.00    +0.011 C 
BRANCH  18  19
ATOM     19  C   UNL     1       8.458   0.310  25.580  0.00  0.00    +0.069 C 
BRANCH  19  20
ATOM     20  SG  UNL     1       7.521  -1.143  24.978  0.00  0.00    -0.159 S 
BRANCH  20  21
ATOM     21  CB  UNL     1       7.502  -0.771  23.191  0.00  0.00    +0.099 C 
BRANCH  21  22
ATOM     22  CA  UNL     1       8.150  -1.914  22.395  0.00  0.00    +0.170 C 
BRANCH  22  23
ATOM     23  N   UNL     1       8.226  -3.208  23.147  0.00  0.00    -0.318 NA
ATOM     24  H1  UNL     1       8.376  -2.991  24.139  0.00  0.00    +0.119 HD
ATOM     25  H2  UNL     1       7.273  -3.596  23.139  0.00  0.00    +0.119 HD
ENDBRANCH  22  23
BRANCH  22  26
ATOM     26  C   UNL     1       9.572  -1.524  21.975  0.00  0.00    +0.323 C 
ATOM     27  O   UNL     1      10.600  -1.933  22.483  0.00  0.00    -0.249 OA
BRANCH  26  28
ATOM     28  OXT UNL     1       9.547  -0.625  20.953  0.00  0.00    -0.480 OA
ATOM     29  HXT UNL     1       9.548  -1.152  20.116  0.00  0.00    +0.295 HD
ENDBRANCH  26  28
ENDBRANCH  22  26
ENDBRANCH  21  22
ENDBRANCH  20  21
ENDBRANCH  19  20
ENDBRANCH  18  19
ENDBRANCH  17  18
ENDBRANCH  16  17
ENDBRANCH   1  16
TORSDOF 14
ENDMDL
MODEL 6
REMARK VINA RESULT:      -5.8      3.153      4.773
REMARK  Name = 
REMARK  16 active torsions:
REMARK  status: ('A' for Active; 'I' for Inactive)
REMARK    1  A    between atoms: N_1  and  CA_2
REMARK    2  A    between atoms: CA_2  and  CB_4
REMARK    3  A    between atoms: CA_2  and  C_24
REMARK    4  A    between atoms: CB_4  and  SG_5
REMARK    5  A    between atoms: SG_5  and  C_6
REMARK    6  A    between atoms: C_6  and  C_7
REMARK    7  A    between atoms: C_7  and  C_8
REMARK    8  A    between atoms: C_8  and  C_9
REMARK    9  A    between atoms: C_9  and  C_10
REMARK   10  A    between atoms: CA_11  and  N_12
REMARK   11  A    between atoms: CA_11  and  C_21
REMARK   12  A    between atoms: C_13  and  C_15
REMARK   13  A    between atoms: C_18  and  C_19
REMARK   14  A    between atoms: C_18  and  C_20
REMARK   15  A    between atoms: C_21  and  OXT_23
REMARK   16  A    between atoms: C_24  and  OXT_26
REMARK                            x       y       z     vdW  Elec       q    Type
REMARK                         _______ _______ _______ _____ _____    ______ ____
ROOT
ATOM      1  C   UNL     1       9.066  -0.968  25.019  0.00  0.00    +0.003 C 
ATOM      2  CA  UNL     1       9.122  -0.823  23.674  0.00  0.00    +0.114 C 
ENDROOT
BRANCH   2   3
ATOM      3  N   UNL     1       8.471   0.236  23.041  0.00  0.00    -0.280 N 
ATOM      4  H   UNL     1       7.467   0.277  23.153  0.00  0.00    +0.155 HD
ATOM      5  C   UNL     1       9.031   1.287  22.352  0.00  0.00    +0.221 C 
ATOM      6  O   UNL     1      10.229   1.370  22.120  0.00  0.00    -0.275 OA
BRANCH   5   7
ATOM      7  C   UNL     1       8.096   2.365  21.880  0.00  0.00    +0.081 C 
ATOM      8  C   UNL     1       7.552   3.482  22.782  0.00  0.00    -0.023 C 
ATOM      9  C   UNL     1       7.148   4.807  22.180  0.00  0.00    +0.011 C 
ATOM     10  C   UNL     1       8.035   3.614  24.207  0.00  0.00    +0.011 C 
ATOM     11  C   UNL     1       6.674   2.312  22.416  0.00  0.00    +0.020 C 
ENDBRANCH   5   7
ENDBRANCH   2   3
BRANCH   2  12
ATOM     12  C   UNL     1       9.993  -1.869  23.005  0.00  0.00    +0.351 C 
ATOM     13  O   UNL     1      10.359  -2.886  23.583  0.00  0.00    -0.244 OA
BRANCH  12  14
ATOM     14  OXT UNL     1      10.225  -1.703  21.691  0.00  0.00    -0.476 OA
ATOM     15  HXT UNL     1       9.929  -2.478  21.160  0.00  0.00    +0.295 HD
ENDBRANCH  12  14
ENDBRANCH   2  12
BRANCH   1  16
ATOM     16  C   UNL     1       8.393  -0.053  25.997  0.00  0.00    +0.029 C 
BRANCH  16  17
ATOM     17  C   UNL     1       6.902  -0.320  26.271  0.00  0.00    +0.005 C 
BRANCH  17  18
ATOM     18  C   UNL     1       6.782  -1.786  26.710  0.00  0.00    +0.011 C 
BRANCH  18  19
ATOM     19  C   UNL     1       5.441  -2.443  26.410  0.00  0.00    +0.069 C 
BRANCH  19  20
ATOM     20  SG  UNL     1       5.564  -3.158  24.729  0.00  0.00    -0.159 S 
BRANCH  20  21
ATOM     21  CB  UNL     1       6.472  -4.693  25.120  0.00  0.00    +0.099 C 
BRANCH  21  22
ATOM     22  CA  UNL     1       7.945  -4.569  24.701  0.00  0.00    +0.170 C 
BRANCH  22  23
ATOM     23  N   UNL     1       8.303  -5.388  23.497  0.00  0.00    -0.318 NA
ATOM     24  H1  UNL     1       8.987  -6.095  23.786  0.00  0.00    +0.119 HD
ATOM     25  H2  UNL     1       7.469  -5.950  23.280  0.00  0.00    +0.119 HD
ENDBRANCH  22  23
BRANCH  22  26
ATOM     26  C   UNL     1       8.860  -4.996  25.855  0.00  0.00    +0.323 C 
ATOM     27  O   UNL     1       8.580  -4.946  27.039  0.00  0.00    -0.249 OA
BRANCH  26  28
ATOM     28  OXT UNL     1      10.063  -5.428  25.386  0.00  0.00    -0.480 OA
ATOM     29  HXT UNL     1       9.880  -6.239  24.849  0.00  0.00    +0.295 HD
ENDBRANCH  26  28
ENDBRANCH  22  26
ENDBRANCH  21  22
ENDBRANCH  20  21
ENDBRANCH  19  20
ENDBRANCH  18  19
ENDBRANCH  17  18
ENDBRANCH  16  17
ENDBRANCH   1  16
TORSDOF 14
ENDMDL
MODEL 7
REMARK VINA RESULT:      -5.8      1.880      2.067
REMARK  Name = 
REMARK  16 active torsions:
REMARK  status: ('A' for Active; 'I' for Inactive)
REMARK    1  A    between atoms: N_1  and  CA_2
REMARK    2  A    between atoms: CA_2  and  CB_4
REMARK    3  A    between atoms: CA_2  and  C_24
REMARK    4  A    between atoms: CB_4  and  SG_5
REMARK    5  A    between atoms: SG_5  and  C_6
REMARK    6  A    between atoms: C_6  and  C_7
REMARK    7  A    between atoms: C_7  and  C_8
REMARK    8  A    between atoms: C_8  and  C_9
REMARK    9  A    between atoms: C_9  and  C_10
REMARK   10  A    between atoms: CA_11  and  N_12
REMARK   11  A    between atoms: CA_11  and  C_21
REMARK   12  A    between atoms: C_13  and  C_15
REMARK   13  A    between atoms: C_18  and  C_19
REMARK   14  A    between atoms: C_18  and  C_20
REMARK   15  A    between atoms: C_21  and  OXT_23
REMARK   16  A    between atoms: C_24  and  OXT_26
REMARK                            x       y       z     vdW  Elec       q    Type
REMARK                         _______ _______ _______ _____ _____    ______ ____
ROOT
ATOM      1  C   UNL     1      11.450   3.542  23.317  0.00  0.00    +0.003 C 
ATOM      2  CA  UNL     1      11.303   4.882  23.443  0.00  0.00    +0.114 C 
ENDROOT
BRANCH   2   3
ATOM      3  N   UNL     1      10.065   5.489  23.231  0.00  0.00    -0.280 N 
ATOM      4  H   UNL     1       9.880   5.817  22.293  0.00  0.00    +0.155 HD
ATOM      5  C   UNL     1       9.022   5.623  24.118  0.00  0.00    +0.221 C 
ATOM      6  O   UNL     1       9.098   5.289  25.293  0.00  0.00    -0.275 OA
BRANCH   5   7
ATOM      7  C   UNL     1       7.745   6.208  23.583  0.00  0.00    +0.081 C 
ATOM      8  C   UNL     1       6.691   5.400  22.810  0.00  0.00    -0.023 C 
ATOM      9  C   UNL     1       5.245   5.836  22.830  0.00  0.00    +0.011 C 
ATOM     10  C   UNL     1       6.847   3.907  22.644  0.00  0.00    +0.011 C 
ATOM     11  C   UNL     1       7.631   6.317  22.070  0.00  0.00    +0.020 C 
ENDBRANCH   5   7
ENDBRANCH   2   3
BRANCH   2  12
ATOM     12  C   UNL     1      12.578   5.575  23.885  0.00  0.00    +0.351 C 
ATOM     13  O   UNL     1      12.592   6.414  24.778  0.00  0.00    -0.244 OA
BRANCH  12  14
ATOM     14  OXT UNL     1      13.724   5.117  23.353  0.00  0.00    -0.476 OA
ATOM     15  HXT UNL     1      13.566   4.451  22.645  0.00  0.00    +0.295 HD
ENDBRANCH  12  14
ENDBRANCH   2  12
BRANCH   1  16
ATOM     16  C   UNL     1      10.376   2.543  23.008  0.00  0.00    +0.029 C 
BRANCH  16  17
ATOM     17  C   UNL     1       9.854   1.711  24.193  0.00  0.00    +0.005 C 
BRANCH  17  18
ATOM     18  C   UNL     1      10.325   0.267  23.970  0.00  0.00    +0.011 C 
BRANCH  18  19
ATOM     19  C   UNL     1       9.345  -0.810  24.420  0.00  0.00    +0.069 C 
BRANCH  19  20
ATOM     20  SG  UNL     1       7.956  -0.795  23.227  0.00  0.00    -0.159 S 
BRANCH  20  21
ATOM     21  CB  UNL     1       8.293  -2.364  22.354  0.00  0.00    +0.099 C 
BRANCH  21  22
ATOM     22  CA  UNL     1       7.515  -3.519  23.003  0.00  0.00    +0.170 C 
BRANCH  22  23
ATOM     23  N   UNL     1       8.388  -4.526  23.689  0.00  0.00    -0.318 NA
ATOM     24  H1  UNL     1       8.025  -5.461  23.472  0.00  0.00    +0.119 HD
ATOM     25  H2  UNL     1       9.288  -4.507  23.190  0.00  0.00    +0.119 HD
ENDBRANCH  22  23
BRANCH  22  26
ATOM     26  C   UNL     1       6.682  -4.253  21.946  0.00  0.00    +0.323 C 
ATOM     27  O   UNL     1       6.918  -5.360  21.498  0.00  0.00    -0.249 OA
BRANCH  26  28
ATOM     28  OXT UNL     1       5.629  -3.489  21.542  0.00  0.00    -0.480 OA
ATOM     29  HXT UNL     1       5.547  -2.755  22.199  0.00  0.00    +0.295 HD
ENDBRANCH  26  28
ENDBRANCH  22  26
ENDBRANCH  21  22
ENDBRANCH  20  21
ENDBRANCH  19  20
ENDBRANCH  18  19
ENDBRANCH  17  18
ENDBRANCH  16  17
ENDBRANCH   1  16
TORSDOF 14
ENDMDL
MODEL 8
REMARK VINA RESULT:      -5.7      3.298      8.488
REMARK  Name = 
REMARK  16 active torsions:
REMARK  status: ('A' for Active; 'I' for Inactive)
REMARK    1  A    between atoms: N_1  and  CA_2
REMARK    2  A    between atoms: CA_2  and  CB_4
REMARK    3  A    between atoms: CA_2  and  C_24
REMARK    4  A    between atoms: CB_4  and  SG_5
REMARK    5  A    between atoms: SG_5  and  C_6
REMARK    6  A    between atoms: C_6  and  C_7
REMARK    7  A    between atoms: C_7  and  C_8
REMARK    8  A    between atoms: C_8  and  C_9
REMARK    9  A    between atoms: C_9  and  C_10
REMARK   10  A    between atoms: CA_11  and  N_12
REMARK   11  A    between atoms: CA_11  and  C_21
REMARK   12  A    between atoms: C_13  and  C_15
REMARK   13  A    between atoms: C_18  and  C_19
REMARK   14  A    between atoms: C_18  and  C_20
REMARK   15  A    between atoms: C_21  and  OXT_23
REMARK   16  A    between atoms: C_24  and  OXT_26
REMARK                            x       y       z     vdW  Elec       q    Type
REMARK                         _______ _______ _______ _____ _____    ______ ____
ROOT
ATOM      1  C   UNL     1       7.876  -0.643  23.372  0.00  0.00    +0.003 C 
ATOM      2  CA  UNL     1       8.592  -1.781  23.212  0.00  0.00    +0.114 C 
ENDROOT
BRANCH   2   3
ATOM      3  N   UNL     1       8.128  -2.995  23.717  0.00  0.00    -0.280 N 
ATOM      4  H   UNL     1       8.303  -3.171  24.697  0.00  0.00    +0.155 HD
ATOM      5  C   UNL     1       7.380  -3.953  23.072  0.00  0.00    +0.221 C 
ATOM      6  O   UNL     1       7.099  -3.890  21.883  0.00  0.00    -0.275 OA
BRANCH   5   7
ATOM      7  C   UNL     1       6.901  -5.113  23.898  0.00  0.00    +0.081 C 
ATOM      8  C   UNL     1       5.568  -5.129  24.661  0.00  0.00    -0.023 C 
ATOM      9  C   UNL     1       4.881  -6.443  24.948  0.00  0.00    +0.011 C 
ATOM     10  C   UNL     1       4.597  -3.981  24.521  0.00  0.00    +0.011 C 
ATOM     11  C   UNL     1       6.861  -4.902  25.404  0.00  0.00    +0.020 C 
ENDBRANCH   5   7
ENDBRANCH   2   3
BRANCH   2  12
ATOM     12  C   UNL     1       9.857  -1.572  22.400  0.00  0.00    +0.351 C 
ATOM     13  O   UNL     1      10.872  -2.232  22.587  0.00  0.00    -0.244 OA
BRANCH  12  14
ATOM     14  OXT UNL     1       9.766  -0.729  21.357  0.00  0.00    -0.476 OA
ATOM     15  HXT UNL     1       8.961  -0.165  21.403  0.00  0.00    +0.295 HD
ENDBRANCH  12  14
ENDBRANCH   2  12
BRANCH   1  16
ATOM     16  C   UNL     1       6.532  -0.508  24.019  0.00  0.00    +0.029 C 
BRANCH  16  17
ATOM     17  C   UNL     1       6.046   0.927  24.295  0.00  0.00    +0.005 C 
BRANCH  17  18
ATOM     18  C   UNL     1       6.531   1.798  23.128  0.00  0.00    +0.011 C 
BRANCH  18  19
ATOM     19  C   UNL     1       6.726   3.272  23.459  0.00  0.00    +0.069 C 
BRANCH  19  20
ATOM     20  SG  UNL     1       8.103   3.370  24.661  0.00  0.00    -0.159 S 
BRANCH  20  21
ATOM     21  CB  UNL     1       9.285   4.362  23.686  0.00  0.00    +0.099 C 
BRANCH  21  22
ATOM     22  CA  UNL     1      10.659   3.675  23.644  0.00  0.00    +0.170 C 
BRANCH  22  23
ATOM     23  N   UNL     1      11.677   4.406  22.821  0.00  0.00    -0.318 NA
ATOM     24  H1  UNL     1      11.418   5.399  22.806  0.00  0.00    +0.119 HD
ATOM     25  H2  UNL     1      12.543   4.403  23.376  0.00  0.00    +0.119 HD
ENDBRANCH  22  23
BRANCH  22  26
ATOM     26  C   UNL     1      10.522   2.256  23.081  0.00  0.00    +0.323 C 
ATOM     27  O   UNL     1      10.753   1.226  23.688  0.00  0.00    -0.249 OA
BRANCH  26  28
ATOM     28  OXT UNL     1      10.124   2.286  21.779  0.00  0.00    -0.480 OA
ATOM     29  HXT UNL     1      10.199   3.228  21.485  0.00  0.00    +0.295 HD
ENDBRANCH  26  28
ENDBRANCH  22  26
ENDBRANCH  21  22
ENDBRANCH  20  21
ENDBRANCH  19  20
ENDBRANCH  18  19
ENDBRANCH  17  18
ENDBRANCH  16  17
ENDBRANCH   1  16
TORSDOF 14
ENDMDL
MODEL 9
REMARK VINA RESULT:      -5.6      4.542      7.507
REMARK  Name = 
REMARK  16 active torsions:
REMARK  status: ('A' for Active; 'I' for Inactive)
REMARK    1  A    between atoms: N_1  and  CA_2
REMARK    2  A    between atoms: CA_2  and  CB_4
REMARK    3  A    between atoms: CA_2  and  C_24
REMARK    4  A    between atoms: CB_4  and  SG_5
REMARK    5  A    between atoms: SG_5  and  C_6
REMARK    6  A    between atoms: C_6  and  C_7
REMARK    7  A    between atoms: C_7  and  C_8
REMARK    8  A    between atoms: C_8  and  C_9
REMARK    9  A    between atoms: C_9  and  C_10
REMARK   10  A    between atoms: CA_11  and  N_12
REMARK   11  A    between atoms: CA_11  and  C_21
REMARK   12  A    between atoms: C_13  and  C_15
REMARK   13  A    between atoms: C_18  and  C_19
REMARK   14  A    between atoms: C_18  and  C_20
REMARK   15  A    between atoms: C_21  and  OXT_23
REMARK   16  A    between atoms: C_24  and  OXT_26
REMARK                            x       y       z     vdW  Elec       q    Type
REMARK                         _______ _______ _______ _____ _____    ______ ____
ROOT
ATOM      1  C   UNL     1       7.413  -3.970  24.431  0.00  0.00    +0.003 C 
ATOM      2  CA  UNL     1       8.743  -3.746  24.541  0.00  0.00    +0.114 C 
ENDROOT
BRANCH   2   3
ATOM      3  N   UNL     1       9.351  -2.695  23.854  0.00  0.00    -0.280 N 
ATOM      4  H   UNL     1       9.604  -2.873  22.892  0.00  0.00    +0.155 HD
ATOM      5  C   UNL     1       9.573  -1.410  24.293  0.00  0.00    +0.221 C 
ATOM      6  O   UNL     1       9.334  -1.045  25.436  0.00  0.00    -0.275 OA
BRANCH   5   7
ATOM      7  C   UNL     1      10.132  -0.437  23.294  0.00  0.00    +0.081 C 
ATOM      8  C   UNL     1       9.271   0.517  22.452  0.00  0.00    -0.023 C 
ATOM      9  C   UNL     1       9.855   1.817  21.954  0.00  0.00    +0.011 C 
ATOM     10  C   UNL     1       7.780   0.597  22.679  0.00  0.00    +0.011 C 
ATOM     11  C   UNL     1       9.846  -0.730  21.829  0.00  0.00    +0.020 C 
ENDBRANCH   5   7
ENDBRANCH   2   3
BRANCH   2  12
ATOM     12  C   UNL     1       9.423  -4.698  25.506  0.00  0.00    +0.351 C 
ATOM     13  O   UNL     1       9.222  -4.662  26.715  0.00  0.00    -0.244 OA
BRANCH  12  14
ATOM     14  OXT UNL     1      10.147  -5.690  24.959  0.00  0.00    -0.476 OA
ATOM     15  HXT UNL     1       9.915  -5.844  24.015  0.00  0.00    +0.295 HD
ENDBRANCH  12  14
ENDBRANCH   2  12
BRANCH   1  16
ATOM     16  C   UNL     1       6.422  -3.154  23.657  0.00  0.00    +0.029 C 
BRANCH  16  17
ATOM     17  C   UNL     1       5.507  -2.228  24.479  0.00  0.00    +0.005 C 
BRANCH  17  18
ATOM     18  C   UNL     1       4.277  -3.053  24.880  0.00  0.00    +0.011 C 
BRANCH  18  19
ATOM     19  C   UNL     1       4.287  -3.576  26.311  0.00  0.00    +0.069 C 
BRANCH  19  20
ATOM     20  SG  UNL     1       4.459  -5.396  26.209  0.00  0.00    -0.159 S 
BRANCH  20  21
ATOM     21  CB  UNL     1       2.788  -5.823  25.609  0.00  0.00    +0.099 C 
BRANCH  21  22
ATOM     22  CA  UNL     1       2.875  -6.740  24.380  0.00  0.00    +0.170 C 
BRANCH  22  23
ATOM     23  N   UNL     1       4.034  -7.689  24.413  0.00  0.00    -0.318 NA
ATOM     24  H1  UNL     1       4.004  -8.196  25.304  0.00  0.00    +0.119 HD
ATOM     25  H2  UNL     1       3.819  -8.422  23.723  0.00  0.00    +0.119 HD
ENDBRANCH  22  23
BRANCH  22  26
ATOM     26  C   UNL     1       2.983  -5.900  23.102  0.00  0.00    +0.323 C 
ATOM     27  O   UNL     1       4.017  -5.615  22.525  0.00  0.00    -0.249 OA
BRANCH  26  28
ATOM     28  OXT UNL     1       1.755  -5.480  22.691  0.00  0.00    -0.480 OA
ATOM     29  HXT UNL     1       1.607  -4.594  23.106  0.00  0.00    +0.295 HD
ENDBRANCH  26  28
ENDBRANCH  22  26
ENDBRANCH  21  22
ENDBRANCH  20  21
ENDBRANCH  19  20
ENDBRANCH  18  19
ENDBRANCH  17  18
ENDBRANCH  16  17
ENDBRANCH   1  16
TORSDOF 14
ENDMDL
