MODEL 1
REMARK VINA RESULT:      -7.2      0.000      0.000
REMARK  Name = 
REMARK  17 active torsions:
REMARK  status: ('A' for Active; 'I' for Inactive)
REMARK    1  A    between atoms: N_1  and  C_2
REMARK    2  A    between atoms: N_6  and  C_7
REMARK    3  A    between atoms: C_10  and  C_12
REMARK    4  A    between atoms: C_12  and  O_13
REMARK    5  A    between atoms: O_13  and  P_14
REMARK    6  A    between atoms: P_14  and  O_15
REMARK    7  A    between atoms: P_14  and  O_17
REMARK    8  A    between atoms: O_17  and  P_18
REMARK    9  A    between atoms: P_18  and  O_19
REMARK   10  A    between atoms: P_18  and  O_21
REMARK   11  A    between atoms: O_21  and  C_22
REMARK   12  A    between atoms: C_22  and  C_23
REMARK   13  A    between atoms: C_26  and  O_28
REMARK   14  A    between atoms: C_29  and  O_31
REMARK   15  A    between atoms: C_32  and  O_34
REMARK   16  A    between atoms: C_35  and  O_37
REMARK   17  A    between atoms: C_38  and  O_40
REMARK                            x       y       z     vdW  Elec       q    Type
REMARK                         _______ _______ _______ _____ _____    ______ ____
ROOT
ATOM      1  O   UNL     1       6.183  -2.900  26.865  0.00  0.00    -0.284 OA
ENDROOT
BRANCH   1   2
ATOM      2  P   UNL     1       6.777  -1.400  26.241  0.00  0.00    +0.483 P 
ATOM      3  O   UNL     1       8.186  -1.744  26.734  0.00  0.00    -0.227 OA
BRANCH   2   4
ATOM      4  O   UNL     1       6.052  -0.694  27.520  0.00  0.00    -0.302 OA
ATOM      5  H   UNL     1       5.952  -1.383  28.206  0.00  0.00    +0.222 HD
ENDBRANCH   2   4
BRANCH   2   6
ATOM      6  O   UNL     1       7.371   0.100  25.616  0.00  0.00    -0.186 OA
BRANCH   6   7
ATOM      7  P   UNL     1       6.284   1.136  25.044  0.00  0.00    +0.483 P 
ATOM      8  O   UNL     1       5.223   1.604  25.984  0.00  0.00    -0.227 OA
BRANCH   7   9
ATOM      9  O   UNL     1       5.688   0.362  23.774  0.00  0.00    -0.302 OA
ATOM     10  H   UNL     1       6.083   0.662  22.930  0.00  0.00    +0.222 HD
ENDBRANCH   7   9
BRANCH   7  11
ATOM     11  O   UNL     1       7.116   2.297  24.291  0.00  0.00    -0.284 OA
BRANCH  11  12
ATOM     12  C   UNL     1       8.458   2.567  24.680  0.00  0.00    +0.206 C 
BRANCH  12  13
ATOM     13  C   UNL     1       9.190   3.599  23.804  0.00  0.00    +0.179 C 
ATOM     14  C   UNL     1      10.570   3.126  23.338  0.00  0.00    +0.179 C 
ATOM     15  C   UNL     1      11.472   4.355  23.469  0.00  0.00    +0.201 C 
ATOM     16  C   UNL     1      10.552   5.455  24.012  0.00  0.00    +0.279 C 
ATOM     17  O   UNL     1       9.413   4.805  24.566  0.00  0.00    -0.341 OA
BRANCH  16  18
ATOM     18  O   UNL     1      10.158   6.316  22.953  0.00  0.00    -0.365 OA
ATOM     19  H   UNL     1      10.579   7.172  23.151  0.00  0.00    +0.213 HD
ENDBRANCH  16  18
BRANCH  15  20
ATOM     20  O   UNL     1      12.114   4.681  22.232  0.00  0.00    -0.384 OA
ATOM     21  H   UNL     1      12.541   3.853  21.927  0.00  0.00    +0.210 HD
ENDBRANCH  15  20
BRANCH  14  22
ATOM     22  O   UNL     1      10.533   2.603  22.007  0.00  0.00    -0.386 OA
ATOM     23  H   UNL     1      11.418   2.813  21.633  0.00  0.00    +0.210 HD
ENDBRANCH  14  22
ENDBRANCH  12  13
ENDBRANCH  11  12
ENDBRANCH   7  11
ENDBRANCH   6   7
ENDBRANCH   2   6
ENDBRANCH   1   2
BRANCH   1  24
ATOM     24  C   UNL     1       5.720  -3.736  25.806  0.00  0.00    +0.206 C 
BRANCH  24  28
ATOM     25  C   UNL     1       8.094  -5.009  24.067  0.00  0.00    +0.253 C 
ATOM     26  C   UNL     1       8.877  -5.124  25.379  0.00  0.00    +0.195 C 
ATOM     27  C   UNL     1       7.827  -4.916  26.472  0.00  0.00    +0.178 C 
ATOM     28  C   UNL     1       6.480  -5.065  25.761  0.00  0.00    +0.178 C 
ATOM     29  O   UNL     1       6.764  -5.460  24.399  0.00  0.00    -0.346 OA
BRANCH  25  35
ATOM     30  C   UNL     1       8.800  -0.493  22.419  0.00  0.00    +0.147 A 
ATOM     31  N   UNL     1      10.074  -0.379  22.854  0.00  0.00    -0.219 NA
ATOM     32  C   UNL     1      10.630  -1.435  23.494  0.00  0.00    +0.225 A 
ATOM     33  N   UNL     1      10.078  -2.628  23.752  0.00  0.00    -0.216 NA
ATOM     34  C   UNL     1       8.839  -2.717  23.254  0.00  0.00    +0.167 A 
ATOM     35  N   UNL     1       7.961  -3.757  23.364  0.00  0.00    -0.286 N 
ATOM     36  C   UNL     1       6.795  -3.363  22.748  0.00  0.00    +0.203 A 
ATOM     37  N   UNL     1       6.873  -2.144  22.265  0.00  0.00    -0.231 NA
ATOM     38  C   UNL     1       8.139  -1.717  22.599  0.00  0.00    +0.147 A 
BRANCH  30  39
ATOM     39  N   UNL     1       8.200   0.606  21.826  0.00  0.00    -0.341 N 
ATOM     40  H   UNL     1       8.176   0.568  20.817  0.00  0.00    +0.144 HD
ATOM     41  H   UNL     1       7.398   0.968  22.330  0.00  0.00    +0.144 HD
ENDBRANCH  30  39
ENDBRANCH  25  35
BRANCH  27  42
ATOM     42  O   UNL     1       7.944  -5.887  27.516  0.00  0.00    -0.386 OA
ATOM     43  H   UNL     1       8.602  -6.545  27.213  0.00  0.00    +0.210 HD
ENDBRANCH  27  42
BRANCH  26  44
ATOM     44  O   UNL     1       9.431  -6.456  25.532  0.00  0.00    -0.385 OA
ATOM     45  H   UNL     1      10.400  -6.378  25.625  0.00  0.00    +0.210 HD
ENDBRANCH  26  44
ENDBRANCH  24  28
ENDBRANCH   1  24
TORSDOF 17
ENDMDL
MODEL 2
REMARK VINA RESULT:      -7.0      2.762      4.540
REMARK  Name = 
REMARK  17 active torsions:
REMARK  status: ('A' for Active; 'I' for Inactive)
REMARK    1  A    between atoms: N_1  and  C_2
REMARK    2  A    between atoms: N_6  and  C_7
REMARK    3  A    between atoms: C_10  and  C_12
REMARK    4  A    between atoms: C_12  and  O_13
REMARK    5  A    between atoms: O_13  and  P_14
REMARK    6  A    between atoms: P_14  and  O_15
REMARK    7  A    between atoms: P_14  and  O_17
REMARK    8  A    between atoms: O_17  and  P_18
REMARK    9  A    between atoms: P_18  and  O_19
REMARK   10  A    between atoms: P_18  and  O_21
REMARK   11  A    between atoms: O_21  and  C_22
REMARK   12  A    between atoms: C_22  and  C_23
REMARK   13  A    between atoms: C_26  and  O_28
REMARK   14  A    between atoms: C_29  and  O_31
REMARK   15  A    between atoms: C_32  and  O_34
REMARK   16  A    between atoms: C_35  and  O_37
REMARK   17  A    between atoms: C_38  and  O_40
REMARK                            x       y       z     vdW  Elec       q    Type
REMARK                         _______ _______ _______ _____ _____    ______ ____
ROOT
ATOM      1  O   UNL     1       7.597  -5.647  26.609  0.00  0.00    -0.284 OA
ENDROOT
BRANCH   1   2
ATOM      2  P   UNL     1       8.363  -4.832  25.289  0.00  0.00    +0.483 P 
ATOM      3  O   UNL     1       9.433  -5.927  25.225  0.00  0.00    -0.227 OA
BRANCH   2   4
ATOM      4  O   UNL     1       8.921  -3.773  26.396  0.00  0.00    -0.302 OA
ATOM      5  H   UNL     1       9.111  -2.941  25.922  0.00  0.00    +0.222 HD
ENDBRANCH   2   4
BRANCH   2   6
ATOM      6  O   UNL     1       9.127  -4.019  23.968  0.00  0.00    -0.186 OA
BRANCH   6   7
ATOM      7  P   UNL     1       8.983  -2.419  23.911  0.00  0.00    +0.483 P 
ATOM      8  O   UNL     1      10.059  -1.612  24.558  0.00  0.00    -0.227 OA
BRANCH   7   9
ATOM      9  O   UNL     1       7.542  -2.168  24.566  0.00  0.00    -0.302 OA
ATOM     10  H   UNL     1       6.822  -2.609  24.071  0.00  0.00    +0.222 HD
ENDBRANCH   7   9
BRANCH   7  11
ATOM     11  O   UNL     1       8.654  -2.047  22.375  0.00  0.00    -0.284 OA
BRANCH  11  12
ATOM     12  C   UNL     1       9.391  -1.018  21.725  0.00  0.00    +0.206 C 
BRANCH  12  13
ATOM     13  C   UNL     1       8.733   0.372  21.762  0.00  0.00    +0.179 C 
ATOM     14  C   UNL     1       9.609   1.439  22.424  0.00  0.00    +0.179 C 
ATOM     15  C   UNL     1       8.645   2.264  23.279  0.00  0.00    +0.201 C 
ATOM     16  C   UNL     1       7.275   1.611  23.059  0.00  0.00    +0.279 C 
ATOM     17  O   UNL     1       7.518   0.308  22.539  0.00  0.00    -0.341 OA
BRANCH  16  18
ATOM     18  O   UNL     1       6.522   2.378  22.130  0.00  0.00    -0.365 OA
ATOM     19  H   UNL     1       7.121   2.522  21.375  0.00  0.00    +0.213 HD
ENDBRANCH  16  18
BRANCH  15  20
ATOM     20  O   UNL     1       8.694   3.656  22.947  0.00  0.00    -0.384 OA
ATOM     21  H   UNL     1       7.816   3.871  22.564  0.00  0.00    +0.210 HD
ENDBRANCH  15  20
BRANCH  14  22
ATOM     22  O   UNL     1      10.311   2.228  21.458  0.00  0.00    -0.386 OA
ATOM     23  H   UNL     1      10.332   1.668  20.649  0.00  0.00    +0.210 HD
ENDBRANCH  14  22
ENDBRANCH  12  13
ENDBRANCH  11  12
ENDBRANCH   7  11
ENDBRANCH   6   7
ENDBRANCH   2   6
ENDBRANCH   1   2
BRANCH   1  24
ATOM     24  C   UNL     1       6.917  -4.715  27.448  0.00  0.00    +0.206 C 
BRANCH  24  28
ATOM     25  C   UNL     1       3.771  -5.060  26.933  0.00  0.00    +0.253 C 
ATOM     26  C   UNL     1       4.023  -6.571  26.942  0.00  0.00    +0.195 C 
ATOM     27  C   UNL     1       5.422  -6.723  27.541  0.00  0.00    +0.178 C 
ATOM     28  C   UNL     1       5.733  -5.363  28.172  0.00  0.00    +0.178 C 
ATOM     29  O   UNL     1       4.538  -4.558  28.047  0.00  0.00    -0.346 OA
BRANCH  25  35
ATOM     30  C   UNL     1       5.310  -3.512  22.592  0.00  0.00    +0.147 A 
ATOM     31  N   UNL     1       5.431  -4.738  22.038  0.00  0.00    -0.219 NA
ATOM     32  C   UNL     1       5.106  -5.817  22.789  0.00  0.00    +0.225 A 
ATOM     33  N   UNL     1       4.647  -5.839  24.047  0.00  0.00    -0.216 NA
ATOM     34  C   UNL     1       4.487  -4.603  24.536  0.00  0.00    +0.167 A 
ATOM     35  N   UNL     1       4.087  -4.240  25.790  0.00  0.00    -0.286 N 
ATOM     36  C   UNL     1       4.134  -2.866  25.842  0.00  0.00    +0.203 A 
ATOM     37  N   UNL     1       4.545  -2.336  24.713  0.00  0.00    -0.231 NA
ATOM     38  C   UNL     1       4.796  -3.415  23.894  0.00  0.00    +0.147 A 
BRANCH  30  39
ATOM     39  N   UNL     1       5.707  -2.408  21.856  0.00  0.00    -0.341 N 
ATOM     40  H   UNL     1       6.434  -2.601  21.181  0.00  0.00    +0.144 HD
ATOM     41  H   UNL     1       4.953  -1.777  21.608  0.00  0.00    +0.144 HD
ENDBRANCH  30  39
ENDBRANCH  25  35
BRANCH  27  42
ATOM     42  O   UNL     1       5.469  -7.749  28.537  0.00  0.00    -0.386 OA
ATOM     43  H   UNL     1       5.875  -8.532  28.113  0.00  0.00    +0.210 HD
ENDBRANCH  27  42
BRANCH  26  44
ATOM     44  O   UNL     1       3.081  -7.244  27.817  0.00  0.00    -0.385 OA
ATOM     45  H   UNL     1       2.308  -6.662  27.942  0.00  0.00    +0.210 HD
ENDBRANCH  26  44
ENDBRANCH  24  28
ENDBRANCH   1  24
TORSDOF 17
ENDMDL
MODEL 3
REMARK VINA RESULT:      -7.0      1.985      2.793
REMARK  Name = 
REMARK  17 active torsions:
REMARK  status: ('A' for Active; 'I' for Inactive)
REMARK    1  A    between atoms: N_1  and  C_2
REMARK    2  A    between atoms: N_6  and  C_7
REMARK    3  A    between atoms: C_10  and  C_12
REMARK    4  A    between atoms: C_12  and  O_13
REMARK    5  A    between atoms: O_13  and  P_14
REMARK    6  A    between atoms: P_14  and  O_15
REMARK    7  A    between atoms: P_14  and  O_17
REMARK    8  A    between atoms: O_17  and  P_18
REMARK    9  A    between atoms: P_18  and  O_19
REMARK   10  A    between atoms: P_18  and  O_21
REMARK   11  A    between atoms: O_21  and  C_22
REMARK   12  A    between atoms: C_22  and  C_23
REMARK   13  A    between atoms: C_26  and  O_28
REMARK   14  A    between atoms: C_29  and  O_31
REMARK   15  A    between atoms: C_32  and  O_34
REMARK   16  A    between atoms: C_35  and  O_37
REMARK   17  A    between atoms: C_38  and  O_40
REMARK                            x       y       z     vdW  Elec       q    Type
REMARK                         _______ _______ _______ _____ _____    ______ ____
ROOT
ATOM      1  O   UNL     1       5.129  -3.165  25.573  0.00  0.00    -0.284 OA
ENDROOT
BRANCH   1   2
ATOM      2  P   UNL     1       5.761  -1.581  25.865  0.00  0.00    +0.483 P 
ATOM      3  O   UNL     1       4.502  -1.216  26.657  0.00  0.00    -0.227 OA
BRANCH   2   4
ATOM      4  O   UNL     1       5.383  -1.252  24.313  0.00  0.00    -0.302 OA
ATOM      5  H   UNL     1       4.427  -1.053  24.290  0.00  0.00    +0.222 HD
ENDBRANCH   2   4
BRANCH   2   6
ATOM      6  O   UNL     1       6.394   0.002  26.158  0.00  0.00    -0.186 OA
BRANCH   6   7
ATOM      7  P   UNL     1       7.918   0.274  25.725  0.00  0.00    +0.483 P 
ATOM      8  O   UNL     1       8.952  -0.677  26.229  0.00  0.00    -0.227 OA
BRANCH   7   9
ATOM      9  O   UNL     1       8.165   1.778  26.221  0.00  0.00    -0.302 OA
ATOM     10  H   UNL     1       7.374   2.171  26.642  0.00  0.00    +0.222 HD
ENDBRANCH   7   9
BRANCH   7  11
ATOM     11  O   UNL     1       7.901   0.510  24.129  0.00  0.00    -0.284 OA
BRANCH  11  12
ATOM     12  C   UNL     1       7.257   1.661  23.593  0.00  0.00    +0.206 C 
BRANCH  12  13
ATOM     13  C   UNL     1       8.206   2.782  23.138  0.00  0.00    +0.179 C 
ATOM     14  C   UNL     1       9.651   2.312  22.952  0.00  0.00    +0.179 C 
ATOM     15  C   UNL     1      10.509   3.439  23.533  0.00  0.00    +0.201 C 
ATOM     16  C   UNL     1       9.498   4.482  24.024  0.00  0.00    +0.279 C 
ATOM     17  O   UNL     1       8.245   3.818  24.144  0.00  0.00    -0.341 OA
BRANCH  16  18
ATOM     18  O   UNL     1       9.405   5.540  23.081  0.00  0.00    -0.365 OA
ATOM     19  H   UNL     1      10.255   6.011  23.142  0.00  0.00    +0.213 HD
ENDBRANCH  16  18
BRANCH  15  20
ATOM     20  O   UNL     1      11.453   3.937  22.580  0.00  0.00    -0.384 OA
ATOM     21  H   UNL     1      11.021   4.707  22.152  0.00  0.00    +0.210 HD
ENDBRANCH  15  20
BRANCH  14  22
ATOM     22  O   UNL     1       9.950   2.036  21.580  0.00  0.00    -0.386 OA
ATOM     23  H   UNL     1       9.071   1.974  21.142  0.00  0.00    +0.210 HD
ENDBRANCH  14  22
ENDBRANCH  12  13
ENDBRANCH  11  12
ENDBRANCH   7  11
ENDBRANCH   6   7
ENDBRANCH   2   6
ENDBRANCH   1   2
BRANCH   1  24
ATOM     24  C   UNL     1       3.971  -3.098  24.743  0.00  0.00    +0.206 C 
BRANCH  24  28
ATOM     25  C   UNL     1       5.191  -5.468  22.962  0.00  0.00    +0.253 C 
ATOM     26  C   UNL     1       5.087  -6.346  24.214  0.00  0.00    +0.195 C 
ATOM     27  C   UNL     1       4.176  -5.559  25.159  0.00  0.00    +0.178 C 
ATOM     28  C   UNL     1       3.525  -4.487  24.281  0.00  0.00    +0.178 C 
ATOM     29  O   UNL     1       3.942  -4.747  22.920  0.00  0.00    -0.346 OA
BRANCH  25  35
ATOM     30  C   UNL     1       9.219  -2.816  23.561  0.00  0.00    +0.147 A 
ATOM     31  N   UNL     1       9.792  -3.631  24.473  0.00  0.00    -0.219 NA
ATOM     32  C   UNL     1       9.131  -4.757  24.834  0.00  0.00    +0.225 A 
ATOM     33  N   UNL     1       7.951  -5.202  24.382  0.00  0.00    -0.216 NA
ATOM     34  C   UNL     1       7.448  -4.396  23.439  0.00  0.00    +0.167 A 
ATOM     35  N   UNL     1       6.250  -4.505  22.792  0.00  0.00    -0.286 N 
ATOM     36  C   UNL     1       6.145  -3.413  21.961  0.00  0.00    +0.203 A 
ATOM     37  N   UNL     1       7.187  -2.618  22.045  0.00  0.00    -0.231 NA
ATOM     38  C   UNL     1       7.998  -3.208  22.989  0.00  0.00    +0.147 A 
BRANCH  30  39
ATOM     39  N   UNL     1       9.854  -1.629  23.239  0.00  0.00    -0.341 N 
ATOM     40  H   UNL     1       9.572  -1.237  22.352  0.00  0.00    +0.144 HD
ATOM     41  H   UNL     1      10.011  -1.011  24.028  0.00  0.00    +0.144 HD
ENDBRANCH  30  39
ENDBRANCH  25  35
BRANCH  27  42
ATOM     42  O   UNL     1       3.172  -6.391  25.748  0.00  0.00    -0.386 OA
ATOM     43  H   UNL     1       3.045  -6.070  26.664  0.00  0.00    +0.210 HD
ENDBRANCH  27  42
BRANCH  26  44
ATOM     44  O   UNL     1       4.437  -7.606  23.905  0.00  0.00    -0.385 OA
ATOM     45  H   UNL     1       5.036  -8.131  23.341  0.00  0.00    +0.210 HD
ENDBRANCH  26  44
ENDBRANCH  24  28
ENDBRANCH   1  24
TORSDOF 17
ENDMDL
MODEL 4
REMARK VINA RESULT:      -6.9      1.981      3.138
REMARK  Name = 
REMARK  17 active torsions:
REMARK  status: ('A' for Active; 'I' for Inactive)
REMARK    1  A    between atoms: N_1  and  C_2
REMARK    2  A    between atoms: N_6  and  C_7
REMARK    3  A    between atoms: C_10  and  C_12
REMARK    4  A    between atoms: C_12  and  O_13
REMARK    5  A    between atoms: O_13  and  P_14
REMARK    6  A    between atoms: P_14  and  O_15
REMARK    7  A    between atoms: P_14  and  O_17
REMARK    8  A    between atoms: O_17  and  P_18
REMARK    9  A    between atoms: P_18  and  O_19
REMARK   10  A    between atoms: P_18  and  O_21
REMARK   11  A    between atoms: O_21  and  C_22
REMARK   12  A    between atoms: C_22  and  C_23
REMARK   13  A    between atoms: C_26  and  O_28
REMARK   14  A    between atoms: C_29  and  O_31
REMARK   15  A    between atoms: C_32  and  O_34
REMARK   16  A    between atoms: C_35  and  O_37
REMARK   17  A    between atoms: C_38  and  O_40
REMARK                            x       y       z     vdW  Elec       q    Type
REMARK                         _______ _______ _______ _____ _____    ______ ____
ROOT
ATOM      1  O   UNL     1       4.607  -3.095  26.286  0.00  0.00    -0.284 OA
ENDROOT
BRANCH   1   2
ATOM      2  P   UNL     1       6.243  -2.586  26.528  0.00  0.00    +0.483 P 
ATOM      3  O   UNL     1       6.502  -3.813  27.410  0.00  0.00    -0.227 OA
BRANCH   2   4
ATOM      4  O   UNL     1       5.639  -1.466  27.548  0.00  0.00    -0.302 OA
ATOM      5  H   UNL     1       5.227  -0.773  26.997  0.00  0.00    +0.222 HD
ENDBRANCH   2   4
BRANCH   2   6
ATOM      6  O   UNL     1       7.878  -2.078  26.770  0.00  0.00    -0.186 OA
BRANCH   6   7
ATOM      7  P   UNL     1       8.251  -0.577  26.333  0.00  0.00    +0.483 P 
ATOM      8  O   UNL     1       9.644  -0.328  25.858  0.00  0.00    -0.227 OA
BRANCH   7   9
ATOM      9  O   UNL     1       7.881   0.276  27.639  0.00  0.00    -0.302 OA
ATOM     10  H   UNL     1       7.556  -0.284  28.374  0.00  0.00    +0.222 HD
ENDBRANCH   7   9
BRANCH   7  11
ATOM     11  O   UNL     1       7.074  -0.087  25.344  0.00  0.00    -0.284 OA
BRANCH  11  12
ATOM     12  C   UNL     1       6.743   1.296  25.271  0.00  0.00    +0.206 C 
BRANCH  12  13
ATOM     13  C   UNL     1       7.543   2.100  24.232  0.00  0.00    +0.179 C 
ATOM     14  C   UNL     1       8.048   1.246  23.066  0.00  0.00    +0.179 C 
ATOM     15  C   UNL     1       9.471   1.745  22.802  0.00  0.00    +0.201 C 
ATOM     16  C   UNL     1       9.694   2.850  23.842  0.00  0.00    +0.279 C 
ATOM     17  O   UNL     1       8.716   2.663  24.858  0.00  0.00    -0.341 OA
BRANCH  16  18
ATOM     18  O   UNL     1       9.532   4.122  23.231  0.00  0.00    -0.365 OA
ATOM     19  H   UNL     1       9.410   4.745  23.970  0.00  0.00    +0.213 HD
ENDBRANCH  16  18
BRANCH  15  20
ATOM     20  O   UNL     1       9.645   2.168  21.446  0.00  0.00    -0.384 OA
ATOM     21  H   UNL     1      10.519   2.615  21.415  0.00  0.00    +0.210 HD
ENDBRANCH  15  20
BRANCH  14  22
ATOM     22  O   UNL     1       7.199   1.353  21.919  0.00  0.00    -0.386 OA
ATOM     23  H   UNL     1       7.148   2.319  21.738  0.00  0.00    +0.210 HD
ENDBRANCH  14  22
ENDBRANCH  12  13
ENDBRANCH  11  12
ENDBRANCH   7  11
ENDBRANCH   6   7
ENDBRANCH   2   6
ENDBRANCH   1   2
BRANCH   1  24
ATOM     24  C   UNL     1       4.241  -2.970  24.913  0.00  0.00    +0.206 C 
BRANCH  24  28
ATOM     25  C   UNL     1       5.163  -5.298  22.910  0.00  0.00    +0.253 C 
ATOM     26  C   UNL     1       5.013  -6.258  24.094  0.00  0.00    +0.195 C 
ATOM     27  C   UNL     1       4.216  -5.465  25.132  0.00  0.00    +0.178 C 
ATOM     28  C   UNL     1       3.645  -4.269  24.365  0.00  0.00    +0.178 C 
ATOM     29  O   UNL     1       3.990  -4.459  22.973  0.00  0.00    -0.346 OA
BRANCH  25  35
ATOM     30  C   UNL     1       9.383  -2.999  23.627  0.00  0.00    +0.147 A 
ATOM     31  N   UNL     1       9.856  -3.857  24.558  0.00  0.00    -0.219 NA
ATOM     32  C   UNL     1       9.091  -4.921  24.899  0.00  0.00    +0.225 A 
ATOM     33  N   UNL     1       7.891  -5.264  24.413  0.00  0.00    -0.216 NA
ATOM     34  C   UNL     1       7.487  -4.421  23.454  0.00  0.00    +0.167 A 
ATOM     35  N   UNL     1       6.305  -4.429  22.770  0.00  0.00    -0.286 N 
ATOM     36  C   UNL     1       6.319  -3.336  21.935  0.00  0.00    +0.203 A 
ATOM     37  N   UNL     1       7.423  -2.633  22.050  0.00  0.00    -0.231 NA
ATOM     38  C   UNL     1       8.152  -3.287  23.019  0.00  0.00    +0.147 A 
BRANCH  30  39
ATOM     39  N   UNL     1      10.128  -1.872  23.323  0.00  0.00    -0.341 N 
ATOM     40  H   UNL     1      10.092  -1.603  22.350  0.00  0.00    +0.144 HD
ATOM     41  H   UNL     1      10.110  -1.153  24.038  0.00  0.00    +0.144 HD
ENDBRANCH  30  39
ENDBRANCH  25  35
BRANCH  27  42
ATOM     42  O   UNL     1       3.155  -6.241  25.696  0.00  0.00    -0.386 OA
ATOM     43  H   UNL     1       2.557  -6.477  24.958  0.00  0.00    +0.210 HD
ENDBRANCH  27  42
BRANCH  26  44
ATOM     44  O   UNL     1       4.232  -7.421  23.717  0.00  0.00    -0.385 OA
ATOM     45  H   UNL     1       4.201  -7.467  22.743  0.00  0.00    +0.210 HD
ENDBRANCH  26  44
ENDBRANCH  24  28
ENDBRANCH   1  24
TORSDOF 17
ENDMDL
MODEL 5
REMARK VINA RESULT:      -6.8      2.373      4.343
REMARK  Name = 
REMARK  17 active torsions:
REMARK  status: ('A' for Active; 'I' for Inactive)
REMARK    1  A    between atoms: N_1  and  C_2
REMARK    2  A    between atoms: N_6  and  C_7
REMARK    3  A    between atoms: C_10  and  C_12
REMARK    4  A    between atoms: C_12  and  O_13
REMARK    5  A    between atoms: O_13  and  P_14
REMARK    6  A    between atoms: P_14  and  O_15
REMARK    7  A    between atoms: P_14  and  O_17
REMARK    8  A    between atoms: O_17  and  P_18
REMARK    9  A    between atoms: P_18  and  O_19
REMARK   10  A    between atoms: P_18  and  O_21
REMARK   11  A    between atoms: O_21  and  C_22
REMARK   12  A    between atoms: C_22  and  C_23
REMARK   13  A    between atoms: C_26  and  O_28
REMARK   14  A    between atoms: C_29  and  O_31
REMARK   15  A    between atoms: C_32  and  O_34
REMARK   16  A    between atoms: C_35  and  O_37
REMARK   17  A    between atoms: C_38  and  O_40
REMARK                            x       y       z     vdW  Elec       q    Type
REMARK                         _______ _______ _______ _____ _____    ______ ____
ROOT
ATOM      1  O   UNL     1       7.025   0.950  25.164  0.00  0.00    -0.284 OA
ENDROOT
BRANCH   1   2
ATOM      2  P   UNL     1       5.495   1.667  24.790  0.00  0.00    +0.483 P 
ATOM      3  O   UNL     1       4.776   0.535  25.530  0.00  0.00    -0.227 OA
BRANCH   2   4
ATOM      4  O   UNL     1       5.711   1.101  23.276  0.00  0.00    -0.302 OA
ATOM      5  H   UNL     1       5.007   0.444  23.116  0.00  0.00    +0.222 HD
ENDBRANCH   2   4
BRANCH   2   6
ATOM      6  O   UNL     1       3.966   2.385  24.419  0.00  0.00    -0.186 OA
BRANCH   6   7
ATOM      7  P   UNL     1       3.958   3.570  23.333  0.00  0.00    +0.483 P 
ATOM      8  O   UNL     1       3.231   4.822  23.693  0.00  0.00    -0.227 OA
BRANCH   7   9
ATOM      9  O   UNL     1       3.353   2.855  22.032  0.00  0.00    -0.302 OA
ATOM     10  H   UNL     1       3.676   3.255  21.199  0.00  0.00    +0.222 HD
ENDBRANCH   7   9
BRANCH   7  11
ATOM     11  O   UNL     1       5.488   3.759  22.856  0.00  0.00    -0.284 OA
BRANCH  11  12
ATOM     12  C   UNL     1       6.164   4.983  23.123  0.00  0.00    +0.206 C 
BRANCH  12  13
ATOM     13  C   UNL     1       7.679   4.957  22.859  0.00  0.00    +0.179 C 
ATOM     14  C   UNL     1       8.285   3.554  22.952  0.00  0.00    +0.179 C 
ATOM     15  C   UNL     1       9.614   3.748  23.688  0.00  0.00    +0.201 C 
ATOM     16  C   UNL     1       9.680   5.253  23.977  0.00  0.00    +0.279 C 
ATOM     17  O   UNL     1       8.355   5.756  23.855  0.00  0.00    -0.341 OA
BRANCH  16  18
ATOM     18  O   UNL     1      10.535   5.885  23.035  0.00  0.00    -0.365 OA
ATOM     19  H   UNL     1      11.390   5.427  23.121  0.00  0.00    +0.213 HD
ENDBRANCH  16  18
BRANCH  15  20
ATOM     20  O   UNL     1      10.720   3.244  22.933  0.00  0.00    -0.384 OA
ATOM     21  H   UNL     1      11.522   3.636  23.341  0.00  0.00    +0.210 HD
ENDBRANCH  15  20
BRANCH  14  22
ATOM     22  O   UNL     1       8.446   2.956  21.662  0.00  0.00    -0.386 OA
ATOM     23  H   UNL     1       7.547   2.982  21.263  0.00  0.00    +0.210 HD
ENDBRANCH  14  22
ENDBRANCH  12  13
ENDBRANCH  11  12
ENDBRANCH   7  11
ENDBRANCH   6   7
ENDBRANCH   2   6
ENDBRANCH   1   2
BRANCH   1  24
ATOM     24  C   UNL     1       7.272  -0.173  24.319  0.00  0.00    +0.206 C 
BRANCH  24  28
ATOM     25  C   UNL     1       9.295  -2.551  23.590  0.00  0.00    +0.253 C 
ATOM     26  C   UNL     1       9.508  -1.842  22.248  0.00  0.00    +0.195 C 
ATOM     27  C   UNL     1       8.926  -0.443  22.457  0.00  0.00    +0.178 C 
ATOM     28  C   UNL     1       8.758  -0.305  23.973  0.00  0.00    +0.178 C 
ATOM     29  O   UNL     1       9.332  -1.491  24.569  0.00  0.00    -0.346 OA
BRANCH  25  35
ATOM     30  C   UNL     1       6.132  -5.683  25.536  0.00  0.00    +0.147 A 
ATOM     31  N   UNL     1       6.787  -5.840  26.707  0.00  0.00    -0.219 NA
ATOM     32  C   UNL     1       7.933  -5.144  26.899  0.00  0.00    +0.225 A 
ATOM     33  N   UNL     1       8.521  -4.277  26.065  0.00  0.00    -0.216 NA
ATOM     34  C   UNL     1       7.809  -4.108  24.945  0.00  0.00    +0.167 A 
ATOM     35  N   UNL     1       8.121  -3.343  23.857  0.00  0.00    -0.286 N 
ATOM     36  C   UNL     1       7.120  -3.536  22.933  0.00  0.00    +0.203 A 
ATOM     37  N   UNL     1       6.204  -4.377  23.356  0.00  0.00    -0.231 NA
ATOM     38  C   UNL     1       6.638  -4.764  24.604  0.00  0.00    +0.147 A 
BRANCH  30  39
ATOM     39  N   UNL     1       4.998  -6.444  25.303  0.00  0.00    -0.341 N 
ATOM     40  H   UNL     1       4.898  -7.237  25.920  0.00  0.00    +0.144 HD
ATOM     41  H   UNL     1       4.177  -5.905  25.049  0.00  0.00    +0.144 HD
ENDBRANCH  30  39
ENDBRANCH  25  35
BRANCH  27  42
ATOM     42  O   UNL     1       9.797   0.578  21.963  0.00  0.00    -0.386 OA
ATOM     43  H   UNL     1      10.541   0.121  21.520  0.00  0.00    +0.210 HD
ENDBRANCH  27  42
BRANCH  26  44
ATOM     44  O   UNL     1      10.924  -1.703  21.960  0.00  0.00    -0.385 OA
ATOM     45  H   UNL     1      11.341  -1.217  22.696  0.00  0.00    +0.210 HD
ENDBRANCH  26  44
ENDBRANCH  24  28
ENDBRANCH   1  24
TORSDOF 17
ENDMDL
MODEL 6
REMARK VINA RESULT:      -6.7      2.803      4.059
REMARK  Name = 
REMARK  17 active torsions:
REMARK  status: ('A' for Active; 'I' for Inactive)
REMARK    1  A    between atoms: N_1  and  C_2
REMARK    2  A    between atoms: N_6  and  C_7
REMARK    3  A    between atoms: C_10  and  C_12
REMARK    4  A    between atoms: C_12  and  O_13
REMARK    5  A    between atoms: O_13  and  P_14
REMARK    6  A    between atoms: P_14  and  O_15
REMARK    7  A    between atoms: P_14  and  O_17
REMARK    8  A    between atoms: O_17  and  P_18
REMARK    9  A    between atoms: P_18  and  O_19
REMARK   10  A    between atoms: P_18  and  O_21
REMARK   11  A    between atoms: O_21  and  C_22
REMARK   12  A    between atoms: C_22  and  C_23
REMARK   13  A    between atoms: C_26  and  O_28
REMARK   14  A    between atoms: C_29  and  O_31
REMARK   15  A    between atoms: C_32  and  O_34
REMARK   16  A    between atoms: C_35  and  O_37
REMARK   17  A    between atoms: C_38  and  O_40
REMARK                            x       y       z     vdW  Elec       q    Type
REMARK                         _______ _______ _______ _____ _____    ______ ____
ROOT
ATOM      1  O   UNL     1       8.559  -4.443  26.654  0.00  0.00    -0.284 OA
ENDROOT
BRANCH   1   2
ATOM      2  P   UNL     1       9.268  -3.919  25.166  0.00  0.00    +0.483 P 
ATOM      3  O   UNL     1       8.064  -4.466  24.391  0.00  0.00    -0.227 OA
BRANCH   2   4
ATOM      4  O   UNL     1      10.277  -5.191  25.313  0.00  0.00    -0.302 OA
ATOM      5  H   UNL     1      10.337  -5.398  26.265  0.00  0.00    +0.222 HD
ENDBRANCH   2   4
BRANCH   2   6
ATOM      6  O   UNL     1       9.976  -3.393  23.678  0.00  0.00    -0.186 OA
BRANCH   6   7
ATOM      7  P   UNL     1       9.639  -1.898  23.194  0.00  0.00    +0.483 P 
ATOM      8  O   UNL     1       8.248  -1.629  22.724  0.00  0.00    -0.227 OA
BRANCH   7   9
ATOM      9  O   UNL     1      10.738  -1.636  22.057  0.00  0.00    -0.302 OA
ATOM     10  H   UNL     1      10.895  -0.683  21.898  0.00  0.00    +0.222 HD
ENDBRANCH   7   9
BRANCH   7  11
ATOM     11  O   UNL     1      10.194  -0.912  24.345  0.00  0.00    -0.284 OA
BRANCH  11  12
ATOM     12  C   UNL     1      10.649   0.391  23.998  0.00  0.00    +0.206 C 
BRANCH  12  13
ATOM     13  C   UNL     1       9.535   1.423  23.754  0.00  0.00    +0.179 C 
ATOM     14  C   UNL     1       9.959   2.562  22.823  0.00  0.00    +0.179 C 
ATOM     15  C   UNL     1       9.364   3.825  23.451  0.00  0.00    +0.201 C 
ATOM     16  C   UNL     1       8.641   3.328  24.709  0.00  0.00    +0.279 C 
ATOM     17  O   UNL     1       9.168   2.040  25.007  0.00  0.00    -0.341 OA
BRANCH  16  18
ATOM     18  O   UNL     1       7.246   3.242  24.458  0.00  0.00    -0.365 OA
ATOM     19  H   UNL     1       7.061   2.289  24.375  0.00  0.00    +0.213 HD
ENDBRANCH  16  18
BRANCH  15  20
ATOM     20  O   UNL     1       8.527   4.534  22.532  0.00  0.00    -0.384 OA
ATOM     21  H   UNL     1       8.235   5.342  23.006  0.00  0.00    +0.210 HD
ENDBRANCH  15  20
BRANCH  14  22
ATOM     22  O   UNL     1       9.517   2.347  21.480  0.00  0.00    -0.386 OA
ATOM     23  H   UNL     1       9.287   3.244  21.148  0.00  0.00    +0.210 HD
ENDBRANCH  14  22
ENDBRANCH  12  13
ENDBRANCH  11  12
ENDBRANCH   7  11
ENDBRANCH   6   7
ENDBRANCH   2   6
ENDBRANCH   1   2
BRANCH   1  24
ATOM     24  C   UNL     1       7.590  -5.463  26.417  0.00  0.00    +0.206 C 
BRANCH  24  28
ATOM     25  C   UNL     1       4.981  -3.976  27.538  0.00  0.00    +0.253 C 
ATOM     26  C   UNL     1       4.245  -5.305  27.343  0.00  0.00    +0.195 C 
ATOM     27  C   UNL     1       5.359  -6.335  27.148  0.00  0.00    +0.178 C 
ATOM     28  C   UNL     1       6.638  -5.627  27.604  0.00  0.00    +0.178 C 
ATOM     29  O   UNL     1       6.240  -4.343  28.139  0.00  0.00    -0.346 OA
BRANCH  25  35
ATOM     30  C   UNL     1       6.051  -0.073  24.848  0.00  0.00    +0.147 A 
ATOM     31  N   UNL     1       6.462   0.701  25.877  0.00  0.00    -0.219 NA
ATOM     32  C   UNL     1       6.446   0.173  27.124  0.00  0.00    +0.225 A 
ATOM     33  N   UNL     1       6.081  -1.062  27.493  0.00  0.00    -0.216 NA
ATOM     34  C   UNL     1       5.739  -1.811  26.438  0.00  0.00    +0.167 A 
ATOM     35  N   UNL     1       5.272  -3.095  26.434  0.00  0.00    -0.286 N 
ATOM     36  C   UNL     1       4.997  -3.416  25.125  0.00  0.00    +0.203 A 
ATOM     37  N   UNL     1       5.248  -2.423  24.303  0.00  0.00    -0.231 NA
ATOM     38  C   UNL     1       5.687  -1.402  25.116  0.00  0.00    +0.147 A 
BRANCH  30  39
ATOM     39  N   UNL     1       5.998   0.481  23.580  0.00  0.00    -0.341 N 
ATOM     40  H   UNL     1       6.140   1.481  23.560  0.00  0.00    +0.144 HD
ATOM     41  H   UNL     1       6.410  -0.095  22.854  0.00  0.00    +0.144 HD
ENDBRANCH  30  39
ENDBRANCH  25  35
BRANCH  27  42
ATOM     42  O   UNL     1       5.141  -7.512  27.932  0.00  0.00    -0.386 OA
ATOM     43  H   UNL     1       4.310  -7.368  28.427  0.00  0.00    +0.210 HD
ENDBRANCH  27  42
BRANCH  26  44
ATOM     44  O   UNL     1       3.503  -5.662  28.537  0.00  0.00    -0.385 OA
ATOM     45  H   UNL     1       2.953  -4.899  28.797  0.00  0.00    +0.210 HD
ENDBRANCH  26  44
ENDBRANCH  24  28
ENDBRANCH   1  24
TORSDOF 17
ENDMDL
MODEL 7
REMARK VINA RESULT:      -6.7      2.319      3.108
REMARK  Name = 
REMARK  17 active torsions:
REMARK  status: ('A' for Active; 'I' for Inactive)
REMARK    1  A    between atoms: N_1  and  C_2
REMARK    2  A    between atoms: N_6  and  C_7
REMARK    3  A    between atoms: C_10  and  C_12
REMARK    4  A    between atoms: C_12  and  O_13
REMARK    5  A    between atoms: O_13  and  P_14
REMARK    6  A    between atoms: P_14  and  O_15
REMARK    7  A    between atoms: P_14  and  O_17
REMARK    8  A    between atoms: O_17  and  P_18
REMARK    9  A    between atoms: P_18  and  O_19
REMARK   10  A    between atoms: P_18  and  O_21
REMARK   11  A    between atoms: O_21  and  C_22
REMARK   12  A    between atoms: C_22  and  C_23
REMARK   13  A    between atoms: C_26  and  O_28
REMARK   14  A    between atoms: C_29  and  O_31
REMARK   15  A    between atoms: C_32  and  O_34
REMARK   16  A    between atoms: C_35  and  O_37
REMARK   17  A    between atoms: C_38  and  O_40
REMARK                            x       y       z     vdW  Elec       q    Type
REMARK                         _______ _______ _______ _____ _____    ______ ____
ROOT
ATOM      1  O   UNL     1       5.118  -3.308  25.854  0.00  0.00    -0.284 OA
ENDROOT
BRANCH   1   2
ATOM      2  P   UNL     1       5.890  -1.802  26.214  0.00  0.00    +0.483 P 
ATOM      3  O   UNL     1       7.109  -2.549  26.765  0.00  0.00    -0.227 OA
BRANCH   2   4
ATOM      4  O   UNL     1       4.866  -1.693  27.478  0.00  0.00    -0.302 OA
ATOM      5  H   UNL     1       4.916  -2.541  27.958  0.00  0.00    +0.222 HD
ENDBRANCH   2   4
BRANCH   2   6
ATOM      6  O   UNL     1       6.661  -0.296  26.572  0.00  0.00    -0.186 OA
BRANCH   6   7
ATOM      7  P   UNL     1       5.733   1.016  26.594  0.00  0.00    +0.483 P 
ATOM      8  O   UNL     1       5.150   1.420  27.907  0.00  0.00    -0.227 OA
BRANCH   7   9
ATOM      9  O   UNL     1       4.613   0.677  25.497  0.00  0.00    -0.302 OA
ATOM     10  H   UNL     1       4.182   1.480  25.139  0.00  0.00    +0.222 HD
ENDBRANCH   7   9
BRANCH   7  11
ATOM     11  O   UNL     1       6.549   2.163  25.806  0.00  0.00    -0.284 OA
BRANCH  11  12
ATOM     12  C   UNL     1       6.663   2.101  24.388  0.00  0.00    +0.206 C 
BRANCH  12  13
ATOM     13  C   UNL     1       7.951   1.440  23.869  0.00  0.00    +0.179 C 
ATOM     14  C   UNL     1       9.130   1.569  24.838  0.00  0.00    +0.179 C 
ATOM     15  C   UNL     1      10.337   1.877  23.949  0.00  0.00    +0.201 C 
ATOM     16  C   UNL     1       9.770   1.912  22.524  0.00  0.00    +0.279 C 
ATOM     17  O   UNL     1       8.363   2.083  22.644  0.00  0.00    -0.341 OA
BRANCH  16  18
ATOM     18  O   UNL     1      10.062   0.689  21.863  0.00  0.00    -0.365 OA
ATOM     19  H   UNL     1       9.200   0.357  21.552  0.00  0.00    +0.213 HD
ENDBRANCH  16  18
BRANCH  15  20
ATOM     20  O   UNL     1      11.394   0.931  24.139  0.00  0.00    -0.384 OA
ATOM     21  H   UNL     1      12.159   1.279  23.632  0.00  0.00    +0.210 HD
ENDBRANCH  15  20
BRANCH  14  22
ATOM     22  O   UNL     1       9.305   0.388  25.626  0.00  0.00    -0.386 OA
ATOM     23  H   UNL     1       8.531   0.378  26.234  0.00  0.00    +0.210 HD
ENDBRANCH  14  22
ENDBRANCH  12  13
ENDBRANCH  11  12
ENDBRANCH   7  11
ENDBRANCH   6   7
ENDBRANCH   2   6
ENDBRANCH   1   2
BRANCH   1  24
ATOM     24  C   UNL     1       4.037  -3.114  24.944  0.00  0.00    +0.206 C 
BRANCH  24  28
ATOM     25  C   UNL     1       5.141  -5.382  22.966  0.00  0.00    +0.253 C 
ATOM     26  C   UNL     1       5.009  -6.353  24.144  0.00  0.00    +0.195 C 
ATOM     27  C   UNL     1       4.140  -5.608  25.159  0.00  0.00    +0.178 C 
ATOM     28  C   UNL     1       3.528  -4.442  24.377  0.00  0.00    +0.178 C 
ATOM     29  O   UNL     1       3.924  -4.609  22.996  0.00  0.00    -0.346 OA
BRANCH  25  35
ATOM     30  C   UNL     1       9.258  -2.925  23.758  0.00  0.00    +0.147 A 
ATOM     31  N   UNL     1       9.785  -3.809  24.632  0.00  0.00    -0.219 NA
ATOM     32  C   UNL     1       9.077  -4.926  24.923  0.00  0.00    +0.225 A 
ATOM     33  N   UNL     1       7.888  -5.300  24.433  0.00  0.00    -0.216 NA
ATOM     34  C   UNL     1       7.430  -4.426  23.528  0.00  0.00    +0.167 A 
ATOM     35  N   UNL     1       6.239  -4.453  22.861  0.00  0.00    -0.286 N 
ATOM     36  C   UNL     1       6.188  -3.316  22.088  0.00  0.00    +0.203 A 
ATOM     37  N   UNL     1       7.258  -2.568  22.229  0.00  0.00    -0.231 NA
ATOM     38  C   UNL     1       8.032  -3.238  23.150  0.00  0.00    +0.147 A 
BRANCH  30  39
ATOM     39  N   UNL     1       9.943  -1.748  23.508  0.00  0.00    -0.341 N 
ATOM     40  H   UNL     1       9.403  -1.053  23.012  0.00  0.00    +0.144 HD
ATOM     41  H   UNL     1      10.560  -1.456  24.258  0.00  0.00    +0.144 HD
ENDBRANCH  30  39
ENDBRANCH  25  35
BRANCH  27  42
ATOM     42  O   UNL     1       3.107  -6.441  25.691  0.00  0.00    -0.386 OA
ATOM     43  H   UNL     1       2.423  -5.842  26.054  0.00  0.00    +0.210 HD
ENDBRANCH  27  42
BRANCH  26  44
ATOM     44  O   UNL     1       4.304  -7.555  23.743  0.00  0.00    -0.385 OA
ATOM     45  H   UNL     1       3.987  -8.009  24.547  0.00  0.00    +0.210 HD
ENDBRANCH  26  44
ENDBRANCH  24  28
ENDBRANCH   1  24
TORSDOF 17
ENDMDL
MODEL 8
REMARK VINA RESULT:      -6.6      4.163      7.571
REMARK  Name = 
REMARK  17 active torsions:
REMARK  status: ('A' for Active; 'I' for Inactive)
REMARK    1  A    between atoms: N_1  and  C_2
REMARK    2  A    between atoms: N_6  and  C_7
REMARK    3  A    between atoms: C_10  and  C_12
REMARK    4  A    between atoms: C_12  and  O_13
REMARK    5  A    between atoms: O_13  and  P_14
REMARK    6  A    between atoms: P_14  and  O_15
REMARK    7  A    between atoms: P_14  and  O_17
REMARK    8  A    between atoms: O_17  and  P_18
REMARK    9  A    between atoms: P_18  and  O_19
REMARK   10  A    between atoms: P_18  and  O_21
REMARK   11  A    between atoms: O_21  and  C_22
REMARK   12  A    between atoms: C_22  and  C_23
REMARK   13  A    between atoms: C_26  and  O_28
REMARK   14  A    between atoms: C_29  and  O_31
REMARK   15  A    between atoms: C_32  and  O_34
REMARK   16  A    between atoms: C_35  and  O_37
REMARK   17  A    between atoms: C_38  and  O_40
REMARK                            x       y       z     vdW  Elec       q    Type
REMARK                         _______ _______ _______ _____ _____    ______ ____
ROOT
ATOM      1  O   UNL     1       8.554  -5.543  25.685  0.00  0.00    -0.284 OA
ENDROOT
BRANCH   1   2
ATOM      2  P   UNL     1       7.250  -5.144  26.749  0.00  0.00    +0.483 P 
ATOM      3  O   UNL     1       7.897  -3.787  27.045  0.00  0.00    -0.227 OA
BRANCH   2   4
ATOM      4  O   UNL     1       7.935  -6.169  27.815  0.00  0.00    -0.302 OA
ATOM      5  H   UNL     1       8.365  -5.622  28.500  0.00  0.00    +0.222 HD
ENDBRANCH   2   4
BRANCH   2   6
ATOM      6  O   UNL     1       5.945  -4.743  27.811  0.00  0.00    -0.186 OA
BRANCH   6   7
ATOM      7  P   UNL     1       5.347  -5.929  28.716  0.00  0.00    +0.483 P 
ATOM      8  O   UNL     1       5.988  -6.166  30.043  0.00  0.00    -0.227 OA
BRANCH   7   9
ATOM      9  O   UNL     1       5.445  -7.201  27.746  0.00  0.00    -0.302 OA
ATOM     10  H   UNL     1       6.331  -7.300  27.343  0.00  0.00    +0.222 HD
ENDBRANCH   7   9
BRANCH   7  11
ATOM     11  O   UNL     1       3.747  -5.722  28.737  0.00  0.00    -0.284 OA
BRANCH  11  12
ATOM     12  C   UNL     1       2.952  -6.260  27.685  0.00  0.00    +0.206 C 
BRANCH  12  13
ATOM     13  C   UNL     1       3.615  -6.238  26.297  0.00  0.00    +0.179 C 
ATOM     14  C   UNL     1       3.161  -5.060  25.430  0.00  0.00    +0.179 C 
ATOM     15  C   UNL     1       2.982  -5.650  24.029  0.00  0.00    +0.201 C 
ATOM     16  C   UNL     1       3.338  -7.134  24.184  0.00  0.00    +0.279 C 
ATOM     17  O   UNL     1       3.255  -7.434  25.573  0.00  0.00    -0.341 OA
BRANCH  16  18
ATOM     18  O   UNL     1       4.656  -7.363  23.710  0.00  0.00    -0.365 OA
ATOM     19  H   UNL     1       5.187  -7.538  24.507  0.00  0.00    +0.213 HD
ENDBRANCH  16  18
BRANCH  15  20
ATOM     20  O   UNL     1       3.766  -4.956  23.053  0.00  0.00    -0.384 OA
ATOM     21  H   UNL     1       3.716  -5.497  22.236  0.00  0.00    +0.210 HD
ENDBRANCH  15  20
BRANCH  14  22
ATOM     22  O   UNL     1       4.099  -3.980  25.463  0.00  0.00    -0.386 OA
ATOM     23  H   UNL     1       3.813  -3.427  26.225  0.00  0.00    +0.210 HD
ENDBRANCH  14  22
ENDBRANCH  12  13
ENDBRANCH  11  12
ENDBRANCH   7  11
ENDBRANCH   6   7
ENDBRANCH   2   6
ENDBRANCH   1   2
BRANCH   1  24
ATOM     24  C   UNL     1       8.527  -4.716  24.524  0.00  0.00    +0.206 C 
BRANCH  24  28
ATOM     25  C   UNL     1       6.798  -2.758  22.665  0.00  0.00    +0.253 C 
ATOM     26  C   UNL     1       6.864  -3.854  21.597  0.00  0.00    +0.195 C 
ATOM     27  C   UNL     1       7.339  -5.097  22.352  0.00  0.00    +0.178 C 
ATOM     28  C   UNL     1       7.161  -4.753  23.833  0.00  0.00    +0.178 C 
ATOM     29  O   UNL     1       6.509  -3.463  23.890  0.00  0.00    -0.346 OA
BRANCH  25  35
ATOM     30  C   UNL     1       9.566   0.909  24.246  0.00  0.00    +0.147 A 
ATOM     31  N   UNL     1       8.693   1.357  25.175  0.00  0.00    -0.219 NA
ATOM     32  C   UNL     1       7.519   0.698  25.324  0.00  0.00    +0.225 A 
ATOM     33  N   UNL     1       7.094  -0.388  24.665  0.00  0.00    -0.216 NA
ATOM     34  C   UNL     1       8.012  -0.832  23.798  0.00  0.00    +0.167 A 
ATOM     35  N   UNL     1       7.910  -1.878  22.927  0.00  0.00    -0.286 N 
ATOM     36  C   UNL     1       9.078  -1.909  22.200  0.00  0.00    +0.203 A 
ATOM     37  N   UNL     1       9.906  -0.950  22.545  0.00  0.00    -0.231 NA
ATOM     38  C   UNL     1       9.239  -0.250  23.526  0.00  0.00    +0.147 A 
BRANCH  30  39
ATOM     39  N   UNL     1      10.737   1.619  24.038  0.00  0.00    -0.341 N 
ATOM     40  H   UNL     1      10.811   2.033  23.120  0.00  0.00    +0.144 HD
ATOM     41  H   UNL     1      11.060   2.139  24.847  0.00  0.00    +0.144 HD
ENDBRANCH  30  39
ENDBRANCH  25  35
BRANCH  27  42
ATOM     42  O   UNL     1       6.565  -6.253  22.018  0.00  0.00    -0.386 OA
ATOM     43  H   UNL     1       6.670  -6.392  21.055  0.00  0.00    +0.210 HD
ENDBRANCH  27  42
BRANCH  26  44
ATOM     44  O   UNL     1       5.545  -4.128  21.059  0.00  0.00    -0.385 OA
ATOM     45  H   UNL     1       4.894  -3.600  21.558  0.00  0.00    +0.210 HD
ENDBRANCH  26  44
ENDBRANCH  24  28
ENDBRANCH   1  24
TORSDOF 17
ENDMDL
MODEL 9
REMARK VINA RESULT:      -6.6      2.460      3.869
REMARK  Name = 
REMARK  17 active torsions:
REMARK  status: ('A' for Active; 'I' for Inactive)
REMARK    1  A    between atoms: N_1  and  C_2
REMARK    2  A    between atoms: N_6  and  C_7
REMARK    3  A    between atoms: C_10  and  C_12
REMARK    4  A    between atoms: C_12  and  O_13
REMARK    5  A    between atoms: O_13  and  P_14
REMARK    6  A    between atoms: P_14  and  O_15
REMARK    7  A    between atoms: P_14  and  O_17
REMARK    8  A    between atoms: O_17  and  P_18
REMARK    9  A    between atoms: P_18  and  O_19
REMARK   10  A    between atoms: P_18  and  O_21
REMARK   11  A    between atoms: O_21  and  C_22
REMARK   12  A    between atoms: C_22  and  C_23
REMARK   13  A    between atoms: C_26  and  O_28
REMARK   14  A    between atoms: C_29  and  O_31
REMARK   15  A    between atoms: C_32  and  O_34
REMARK   16  A    between atoms: C_35  and  O_37
REMARK   17  A    between atoms: C_38  and  O_40
REMARK                            x       y       z     vdW  Elec       q    Type
REMARK                         _______ _______ _______ _____ _____    ______ ____
ROOT
ATOM      1  O   UNL     1       4.229  -3.524  26.204  0.00  0.00    -0.284 OA
ENDROOT
BRANCH   1   2
ATOM      2  P   UNL     1       4.936  -2.095  26.875  0.00  0.00    +0.483 P 
ATOM      3  O   UNL     1       3.656  -1.309  26.569  0.00  0.00    -0.227 OA
BRANCH   2   4
ATOM      4  O   UNL     1       5.814  -2.005  25.504  0.00  0.00    -0.302 OA
ATOM      5  H   UNL     1       5.582  -1.160  25.073  0.00  0.00    +0.222 HD
ENDBRANCH   2   4
BRANCH   2   6
ATOM      6  O   UNL     1       5.642  -0.666  27.547  0.00  0.00    -0.186 OA
BRANCH   6   7
ATOM      7  P   UNL     1       7.090  -0.238  27.000  0.00  0.00    +0.483 P 
ATOM      8  O   UNL     1       8.115  -1.314  26.860  0.00  0.00    -0.227 OA
BRANCH   7   9
ATOM      9  O   UNL     1       7.534   0.909  28.028  0.00  0.00    -0.302 OA
ATOM     10  H   UNL     1       6.785   1.250  28.558  0.00  0.00    +0.222 HD
ENDBRANCH   7   9
BRANCH   7  11
ATOM     11  O   UNL     1       6.832   0.659  25.684  0.00  0.00    -0.284 OA
BRANCH  11  12
ATOM     12  C   UNL     1       7.796   1.630  25.291  0.00  0.00    +0.206 C 
BRANCH  12  13
ATOM     13  C   UNL     1       8.297   1.496  23.843  0.00  0.00    +0.179 C 
ATOM     14  C   UNL     1       8.652   0.058  23.456  0.00  0.00    +0.179 C 
ATOM     15  C   UNL     1       9.940   0.177  22.639  0.00  0.00    +0.201 C 
ATOM     16  C   UNL     1      10.247   1.679  22.616  0.00  0.00    +0.279 C 
ATOM     17  O   UNL     1       9.506   2.268  23.679  0.00  0.00    -0.341 OA
BRANCH  16  18
ATOM     18  O   UNL     1       9.845   2.231  21.371  0.00  0.00    -0.365 OA
ATOM     19  H   UNL     1      10.617   2.130  20.786  0.00  0.00    +0.213 HD
ENDBRANCH  16  18
BRANCH  15  20
ATOM     20  O   UNL     1       9.808  -0.417  21.344  0.00  0.00    -0.384 OA
ATOM     21  H   UNL     1      10.633  -0.928  21.198  0.00  0.00    +0.210 HD
ENDBRANCH  15  20
BRANCH  14  22
ATOM     22  O   UNL     1       7.592  -0.578  22.735  0.00  0.00    -0.386 OA
ATOM     23  H   UNL     1       7.316  -1.328  23.309  0.00  0.00    +0.210 HD
ENDBRANCH  14  22
ENDBRANCH  12  13
ENDBRANCH  11  12
ENDBRANCH   7  11
ENDBRANCH   6   7
ENDBRANCH   2   6
ENDBRANCH   1   2
BRANCH   1  24
ATOM     24  C   UNL     1       3.896  -3.323  24.832  0.00  0.00    +0.206 C 
BRANCH  24  28
ATOM     25  C   UNL     1       4.755  -5.876  23.093  0.00  0.00    +0.253 C 
ATOM     26  C   UNL     1       4.263  -6.732  24.265  0.00  0.00    +0.195 C 
ATOM     27  C   UNL     1       3.441  -5.769  25.124  0.00  0.00    +0.178 C 
ATOM     28  C   UNL     1       3.200  -4.548  24.232  0.00  0.00    +0.178 C 
ATOM     29  O   UNL     1       3.735  -4.868  22.927  0.00  0.00    -0.346 OA
BRANCH  25  35
ATOM     30  C   UNL     1       8.932  -3.871  24.555  0.00  0.00    +0.147 A 
ATOM     31  N   UNL     1       8.951  -4.452  25.774  0.00  0.00    -0.219 NA
ATOM     32  C   UNL     1       7.938  -5.290  26.101  0.00  0.00    +0.225 A 
ATOM     33  N   UNL     1       6.889  -5.650  25.350  0.00  0.00    -0.216 NA
ATOM     34  C   UNL     1       6.942  -5.097  24.132  0.00  0.00    +0.167 A 
ATOM     35  N   UNL     1       6.027  -5.198  23.123  0.00  0.00    -0.286 N 
ATOM     36  C   UNL     1       6.482  -4.409  22.091  0.00  0.00    +0.203 A 
ATOM     37  N   UNL     1       7.614  -3.810  22.382  0.00  0.00    -0.231 NA
ATOM     38  C   UNL     1       7.899  -4.210  23.668  0.00  0.00    +0.147 A 
BRANCH  30  39
ATOM     39  N   UNL     1       9.925  -2.959  24.239  0.00  0.00    -0.341 N 
ATOM     40  H   UNL     1      10.818  -3.379  24.020  0.00  0.00    +0.144 HD
ATOM     41  H   UNL     1       9.606  -2.162  23.700  0.00  0.00    +0.144 HD
ENDBRANCH  30  39
ENDBRANCH  25  35
BRANCH  27  42
ATOM     42  O   UNL     1       2.193  -6.342  25.523  0.00  0.00    -0.386 OA
ATOM     43  H   UNL     1       1.970  -5.950  26.392  0.00  0.00    +0.210 HD
ENDBRANCH  27  42
BRANCH  26  44
ATOM     44  O   UNL     1       3.381  -7.785  23.797  0.00  0.00    -0.385 OA
ATOM     45  H   UNL     1       3.556  -8.588  24.324  0.00  0.00    +0.210 HD
ENDBRANCH  26  44
ENDBRANCH  24  28
ENDBRANCH   1  24
TORSDOF 17
ENDMDL
