MODEL 1
REMARK VINA RESULT:      -4.1      0.000      0.000
REMARK  Name = 
REMARK  4 active torsions:
REMARK  status: ('A' for Active; 'I' for Inactive)
REMARK    1  A    between atoms: O_1  and  C_2
REMARK    2  A    between atoms: C_2  and  C_3
REMARK    3  A    between atoms: C_8  and  O_10
REMARK    4  A    between atoms: C_11  and  O_13
REMARK                            x       y       z     vdW  Elec       q    Type
REMARK                         _______ _______ _______ _____ _____    ______ ____
ROOT
ATOM      1  C   UNL     1       8.865   0.118  21.907  0.00  0.00    +0.198 C 
ATOM      2  C   UNL     1      10.064   1.052  22.162  0.00  0.00    +0.177 C 
ATOM      3  C   UNL     1      10.255   1.300  23.663  0.00  0.00    +0.162 C 
ATOM      4  C   UNL     1       8.916   1.678  24.311  0.00  0.00    +0.145 C 
ATOM      5  N   UNL     1       7.911   0.635  24.090  0.00  0.00    -0.198 NA
ATOM      6  H   UNL     1       8.252  -0.283  24.359  0.00  0.00    +0.154 HD
ATOM      7  O   UNL     1       7.695   0.542  22.646  0.00  0.00    -0.291 OA
ENDROOT
BRANCH   2   8
ATOM      8  O   UNL     1       9.836   2.311  21.499  0.00  0.00    -0.386 OA
ATOM      9  H   UNL     1       9.474   2.927  22.159  0.00  0.00    +0.210 HD
ENDBRANCH   2   8
BRANCH   3  10
ATOM     10  O   UNL     1      10.799   0.128  24.279  0.00  0.00    -0.388 OA
ATOM     11  H   UNL     1      11.545   0.399  24.841  0.00  0.00    +0.210 HD
ENDBRANCH   3  10
BRANCH   1  12
ATOM     12  C   UNL     1       9.153  -1.373  22.141  0.00  0.00    +0.192 C 
BRANCH  12  13
ATOM     13  O   UNL     1      10.515  -1.689  21.860  0.00  0.00    -0.392 OA
ATOM     14  H   UNL     1      11.036  -1.386  22.624  0.00  0.00    +0.210 HD
ENDBRANCH  12  13
ENDBRANCH   1  12
TORSDOF 4
ENDMDL
MODEL 2
REMARK VINA RESULT:      -4.1      1.308      2.979
REMARK  Name = 
REMARK  4 active torsions:
REMARK  status: ('A' for Active; 'I' for Inactive)
REMARK    1  A    between atoms: O_1  and  C_2
REMARK    2  A    between atoms: C_2  and  C_3
REMARK    3  A    between atoms: C_8  and  O_10
REMARK    4  A    between atoms: C_11  and  O_13
REMARK                            x       y       z     vdW  Elec       q    Type
REMARK                         _______ _______ _______ _____ _____    ______ ____
ROOT
ATOM      1  C   UNL     1       8.957   0.637  23.107  0.00  0.00    +0.198 C 
ATOM      2  C   UNL     1      10.217  -0.180  23.451  0.00  0.00    +0.177 C 
ATOM      3  C   UNL     1      10.125  -1.598  22.873  0.00  0.00    +0.162 C 
ATOM      4  C   UNL     1       8.765  -2.221  23.217  0.00  0.00    +0.145 C 
ATOM      5  N   UNL     1       7.665  -1.393  22.717  0.00  0.00    -0.198 NA
ATOM      6  H   UNL     1       7.776  -1.170  21.732  0.00  0.00    +0.154 HD
ATOM      7  O   UNL     1       7.748  -0.103  23.401  0.00  0.00    -0.291 OA
ENDROOT
BRANCH   2   8
ATOM      8  O   UNL     1      10.358  -0.259  24.883  0.00  0.00    -0.386 OA
ATOM      9  H   UNL     1      11.227   0.114  25.111  0.00  0.00    +0.210 HD
ENDBRANCH   2   8
BRANCH   3  10
ATOM     10  O   UNL     1      10.314  -1.554  21.455  0.00  0.00    -0.388 OA
ATOM     11  H   UNL     1      11.188  -1.166  21.277  0.00  0.00    +0.210 HD
ENDBRANCH   3  10
BRANCH   1  12
ATOM     12  C   UNL     1       8.925   1.196  21.676  0.00  0.00    +0.192 C 
BRANCH  12  13
ATOM     13  O   UNL     1       9.979   2.132  21.461  0.00  0.00    -0.392 OA
ATOM     14  H   UNL     1       9.669   2.751  20.777  0.00  0.00    +0.210 HD
ENDBRANCH  12  13
ENDBRANCH   1  12
TORSDOF 4
ENDMDL
MODEL 3
REMARK VINA RESULT:      -4.1      1.390      2.181
REMARK  Name = 
REMARK  4 active torsions:
REMARK  status: ('A' for Active; 'I' for Inactive)
REMARK    1  A    between atoms: O_1  and  C_2
REMARK    2  A    between atoms: C_2  and  C_3
REMARK    3  A    between atoms: C_8  and  O_10
REMARK    4  A    between atoms: C_11  and  O_13
REMARK                            x       y       z     vdW  Elec       q    Type
REMARK                         _______ _______ _______ _____ _____    ______ ____
ROOT
ATOM      1  C   UNL     1       8.710  -0.176  22.752  0.00  0.00    +0.198 C 
ATOM      2  C   UNL     1       8.252   1.292  22.659  0.00  0.00    +0.177 C 
ATOM      3  C   UNL     1       9.444   2.247  22.800  0.00  0.00    +0.162 C 
ATOM      4  C   UNL     1      10.298   1.849  24.012  0.00  0.00    +0.145 C 
ATOM      5  N   UNL     1      10.763   0.465  23.897  0.00  0.00    -0.198 NA
ATOM      6  H   UNL     1      11.213   0.289  23.003  0.00  0.00    +0.154 HD
ATOM      7  O   UNL     1       9.578  -0.391  23.889  0.00  0.00    -0.291 OA
ENDROOT
BRANCH   2   8
ATOM      8  O   UNL     1       7.301   1.562  23.707  0.00  0.00    -0.386 OA
ATOM      9  H   UNL     1       7.521   2.431  24.083  0.00  0.00    +0.210 HD
ENDBRANCH   2   8
BRANCH   3  10
ATOM     10  O   UNL     1      10.226   2.221  21.603  0.00  0.00    -0.388 OA
ATOM     11  H   UNL     1      10.727   3.053  21.548  0.00  0.00    +0.210 HD
ENDBRANCH   3  10
BRANCH   1  12
ATOM     12  C   UNL     1       9.340  -0.734  21.465  0.00  0.00    +0.192 C 
BRANCH  12  13
ATOM     13  O   UNL     1      10.407  -1.633  21.757  0.00  0.00    -0.392 OA
ATOM     14  H   UNL     1      10.881  -1.787  20.921  0.00  0.00    +0.210 HD
ENDBRANCH  12  13
ENDBRANCH   1  12
TORSDOF 4
ENDMDL
MODEL 4
REMARK VINA RESULT:      -4.1      1.777      2.635
REMARK  Name = 
REMARK  4 active torsions:
REMARK  status: ('A' for Active; 'I' for Inactive)
REMARK    1  A    between atoms: O_1  and  C_2
REMARK    2  A    between atoms: C_2  and  C_3
REMARK    3  A    between atoms: C_8  and  O_10
REMARK    4  A    between atoms: C_11  and  O_13
REMARK                            x       y       z     vdW  Elec       q    Type
REMARK                         _______ _______ _______ _____ _____    ______ ____
ROOT
ATOM      1  C   UNL     1       9.805   0.261  23.051  0.00  0.00    +0.198 C 
ATOM      2  C   UNL     1       8.690   0.861  23.928  0.00  0.00    +0.177 C 
ATOM      3  C   UNL     1       7.466   1.231  23.082  0.00  0.00    +0.162 C 
ATOM      4  C   UNL     1       7.901   2.032  21.847  0.00  0.00    +0.145 C 
ATOM      5  N   UNL     1       8.868   1.281  21.045  0.00  0.00    -0.198 NA
ATOM      6  H   UNL     1       8.537   0.345  20.830  0.00  0.00    +0.154 HD
ATOM      7  O   UNL     1      10.052   1.072  21.878  0.00  0.00    -0.291 OA
ENDROOT
BRANCH   2   8
ATOM      8  O   UNL     1       9.186   2.042  24.587  0.00  0.00    -0.386 OA
ATOM      9  H   UNL     1       8.441   2.661  24.676  0.00  0.00    +0.210 HD
ENDBRANCH   2   8
BRANCH   3  10
ATOM     10  O   UNL     1       6.773   0.041  22.691  0.00  0.00    -0.388 OA
ATOM     11  H   UNL     1       7.061  -0.684  23.272  0.00  0.00    +0.210 HD
ENDBRANCH   3  10
BRANCH   1  12
ATOM     12  C   UNL     1       9.595  -1.213  22.667  0.00  0.00    +0.192 C 
BRANCH  12  13
ATOM     13  O   UNL     1      10.057  -1.476  21.344  0.00  0.00    -0.392 OA
ATOM     14  H   UNL     1       9.446  -1.021  20.737  0.00  0.00    +0.210 HD
ENDBRANCH  12  13
ENDBRANCH   1  12
TORSDOF 4
ENDMDL
MODEL 5
REMARK VINA RESULT:      -4.1      1.368      2.726
REMARK  Name = 
REMARK  4 active torsions:
REMARK  status: ('A' for Active; 'I' for Inactive)
REMARK    1  A    between atoms: O_1  and  C_2
REMARK    2  A    between atoms: C_2  and  C_3
REMARK    3  A    between atoms: C_8  and  O_10
REMARK    4  A    between atoms: C_11  and  O_13
REMARK                            x       y       z     vdW  Elec       q    Type
REMARK                         _______ _______ _______ _____ _____    ______ ____
ROOT
ATOM      1  C   UNL     1       9.854  -0.369  23.367  0.00  0.00    +0.198 C 
ATOM      2  C   UNL     1       9.934  -0.158  21.843  0.00  0.00    +0.177 C 
ATOM      3  C   UNL     1       9.234   1.143  21.432  0.00  0.00    +0.162 C 
ATOM      4  C   UNL     1       7.847   1.224  22.083  0.00  0.00    +0.145 C 
ATOM      5  N   UNL     1       7.943   1.135  23.542  0.00  0.00    -0.198 NA
ATOM      6  H   UNL     1       8.612   1.800  23.919  0.00  0.00    +0.154 HD
ATOM      7  O   UNL     1       8.506  -0.177  23.859  0.00  0.00    -0.291 OA
ENDROOT
BRANCH   2   8
ATOM      8  O   UNL     1       9.303  -1.268  21.174  0.00  0.00    -0.386 OA
ATOM      9  H   UNL     1       9.433  -2.055  21.732  0.00  0.00    +0.210 HD
ENDBRANCH   2   8
BRANCH   3  10
ATOM     10  O   UNL     1      10.037   2.264  21.816  0.00  0.00    -0.388 OA
ATOM     11  H   UNL     1       9.861   2.457  22.753  0.00  0.00    +0.210 HD
ENDBRANCH   3  10
BRANCH   1  12
ATOM     12  C   UNL     1      10.860   0.458  24.183  0.00  0.00    +0.192 C 
BRANCH  12  13
ATOM     13  O   UNL     1      10.390   0.689  25.508  0.00  0.00    -0.392 OA
ATOM     14  H   UNL     1      11.017   0.250  26.109  0.00  0.00    +0.210 HD
ENDBRANCH  12  13
ENDBRANCH   1  12
TORSDOF 4
ENDMDL
MODEL 6
REMARK VINA RESULT:      -4.0      2.049      3.167
REMARK  Name = 
REMARK  4 active torsions:
REMARK  status: ('A' for Active; 'I' for Inactive)
REMARK    1  A    between atoms: O_1  and  C_2
REMARK    2  A    between atoms: C_2  and  C_3
REMARK    3  A    between atoms: C_8  and  O_10
REMARK    4  A    between atoms: C_11  and  O_13
REMARK                            x       y       z     vdW  Elec       q    Type
REMARK                         _______ _______ _______ _____ _____    ______ ____
ROOT
ATOM      1  C   UNL     1       9.891  -1.978  23.748  0.00  0.00    +0.198 C 
ATOM      2  C   UNL     1       9.519  -0.541  24.163  0.00  0.00    +0.177 C 
ATOM      3  C   UNL     1       8.883   0.220  22.994  0.00  0.00    +0.162 C 
ATOM      4  C   UNL     1       9.733   0.049  21.728  0.00  0.00    +0.145 C 
ATOM      5  N   UNL     1       9.895  -1.367  21.389  0.00  0.00    -0.198 NA
ATOM      6  H   UNL     1       9.003  -1.852  21.351  0.00  0.00    +0.154 HD
ATOM      7  O   UNL     1      10.614  -1.998  22.495  0.00  0.00    -0.291 OA
ENDROOT
BRANCH   2   8
ATOM      8  O   UNL     1      10.707   0.153  24.591  0.00  0.00    -0.386 OA
ATOM      9  H   UNL     1      11.455  -0.461  24.491  0.00  0.00    +0.210 HD
ENDBRANCH   2   8
BRANCH   3  10
ATOM     10  O   UNL     1       7.552  -0.259  22.775  0.00  0.00    -0.388 OA
ATOM     11  H   UNL     1       7.561  -0.832  21.988  0.00  0.00    +0.210 HD
ENDBRANCH   3  10
BRANCH   1  12
ATOM     12  C   UNL     1       8.710  -2.962  23.719  0.00  0.00    +0.192 C 
BRANCH  12  13
ATOM     13  O   UNL     1       8.163  -3.077  22.408  0.00  0.00    -0.392 OA
ATOM     14  H   UNL     1       7.583  -2.306  22.277  0.00  0.00    +0.210 HD
ENDBRANCH  12  13
ENDBRANCH   1  12
TORSDOF 4
ENDMDL
MODEL 7
REMARK VINA RESULT:      -4.0      1.104      3.140
REMARK  Name = 
REMARK  4 active torsions:
REMARK  status: ('A' for Active; 'I' for Inactive)
REMARK    1  A    between atoms: O_1  and  C_2
REMARK    2  A    between atoms: C_2  and  C_3
REMARK    3  A    between atoms: C_8  and  O_10
REMARK    4  A    between atoms: C_11  and  O_13
REMARK                            x       y       z     vdW  Elec       q    Type
REMARK                         _______ _______ _______ _____ _____    ______ ____
ROOT
ATOM      1  C   UNL     1      10.282   0.535  22.622  0.00  0.00    +0.198 C 
ATOM      2  C   UNL     1       9.400  -0.442  21.820  0.00  0.00    +0.177 C 
ATOM      3  C   UNL     1       8.172  -0.866  22.634  0.00  0.00    +0.162 C 
ATOM      4  C   UNL     1       8.597  -1.295  24.045  0.00  0.00    +0.145 C 
ATOM      5  N   UNL     1       9.316  -0.218  24.729  0.00  0.00    -0.198 NA
ATOM      6  H   UNL     1       8.801   0.657  24.705  0.00  0.00    +0.154 HD
ATOM      7  O   UNL     1      10.532   0.047  23.961  0.00  0.00    -0.291 OA
ENDROOT
BRANCH   2   8
ATOM      8  O   UNL     1      10.172  -1.611  21.480  0.00  0.00    -0.386 OA
ATOM      9  H   UNL     1       9.988  -2.287  22.155  0.00  0.00    +0.210 HD
ENDBRANCH   2   8
BRANCH   3  10
ATOM     10  O   UNL     1       7.239   0.217  22.697  0.00  0.00    -0.388 OA
ATOM     11  H   UNL     1       7.380   0.786  21.921  0.00  0.00    +0.210 HD
ENDBRANCH   3  10
BRANCH   1  12
ATOM     12  C   UNL     1       9.770   1.984  22.650  0.00  0.00    +0.192 C 
BRANCH  12  13
ATOM     13  O   UNL     1       9.084   2.317  21.446  0.00  0.00    -0.392 OA
ATOM     14  H   UNL     1       9.417   3.187  21.164  0.00  0.00    +0.210 HD
ENDBRANCH  12  13
ENDBRANCH   1  12
TORSDOF 4
ENDMDL
MODEL 8
REMARK VINA RESULT:      -3.9      1.418      3.100
REMARK  Name = 
REMARK  4 active torsions:
REMARK  status: ('A' for Active; 'I' for Inactive)
REMARK    1  A    between atoms: O_1  and  C_2
REMARK    2  A    between atoms: C_2  and  C_3
REMARK    3  A    between atoms: C_8  and  O_10
REMARK    4  A    between atoms: C_11  and  O_13
REMARK                            x       y       z     vdW  Elec       q    Type
REMARK                         _______ _______ _______ _____ _____    ______ ____
ROOT
ATOM      1  C   UNL     1      10.043   1.497  23.813  0.00  0.00    +0.198 C 
ATOM      2  C   UNL     1       9.395   1.869  22.465  0.00  0.00    +0.177 C 
ATOM      3  C   UNL     1       8.773   0.636  21.798  0.00  0.00    +0.162 C 
ATOM      4  C   UNL     1       9.772  -0.528  21.803  0.00  0.00    +0.145 C 
ATOM      5  N   UNL     1      10.203  -0.847  23.166  0.00  0.00    -0.198 NA
ATOM      6  H   UNL     1       9.413  -0.983  23.791  0.00  0.00    +0.154 HD
ATOM      7  O   UNL     1      10.891   0.331  23.690  0.00  0.00    -0.291 OA
ENDROOT
BRANCH   2   8
ATOM      8  O   UNL     1      10.398   2.426  21.592  0.00  0.00    -0.386 OA
ATOM      9  H   UNL     1      10.336   1.958  20.742  0.00  0.00    +0.210 HD
ENDBRANCH   2   8
BRANCH   3  10
ATOM     10  O   UNL     1       7.572   0.271  22.486  0.00  0.00    -0.388 OA
ATOM     11  H   UNL     1       7.616   0.633  23.388  0.00  0.00    +0.210 HD
ENDBRANCH   3  10
BRANCH   1  12
ATOM     12  C   UNL     1       9.052   1.337  24.978  0.00  0.00    +0.192 C 
BRANCH  12  13
ATOM     13  O   UNL     1       9.442   0.278  25.848  0.00  0.00    -0.392 OA
ATOM     14  H   UNL     1       9.722  -0.462  25.282  0.00  0.00    +0.210 HD
ENDBRANCH  12  13
ENDBRANCH   1  12
TORSDOF 4
ENDMDL
MODEL 9
REMARK VINA RESULT:      -3.9      1.606      2.643
REMARK  Name = 
REMARK  4 active torsions:
REMARK  status: ('A' for Active; 'I' for Inactive)
REMARK    1  A    between atoms: O_1  and  C_2
REMARK    2  A    between atoms: C_2  and  C_3
REMARK    3  A    between atoms: C_8  and  O_10
REMARK    4  A    between atoms: C_11  and  O_13
REMARK                            x       y       z     vdW  Elec       q    Type
REMARK                         _______ _______ _______ _____ _____    ______ ____
ROOT
ATOM      1  C   UNL     1       8.477   2.077  23.308  0.00  0.00    +0.198 C 
ATOM      2  C   UNL     1       9.268   1.334  22.214  0.00  0.00    +0.177 C 
ATOM      3  C   UNL     1      10.010   0.127  22.800  0.00  0.00    +0.162 C 
ATOM      4  C   UNL     1      10.773   0.539  24.065  0.00  0.00    +0.145 C 
ATOM      5  N   UNL     1       9.868   1.115  25.062  0.00  0.00    -0.198 NA
ATOM      6  H   UNL     1       9.070   0.512  25.243  0.00  0.00    +0.154 HD
ATOM      7  O   UNL     1       9.293   2.325  24.477  0.00  0.00    -0.291 OA
ENDROOT
BRANCH   2   8
ATOM      8  O   UNL     1      10.223   2.236  21.621  0.00  0.00    -0.386 OA
ATOM      9  H   UNL     1      10.882   1.696  21.152  0.00  0.00    +0.210 HD
ENDBRANCH   2   8
BRANCH   3  10
ATOM     10  O   UNL     1       9.076  -0.917  23.093  0.00  0.00    -0.388 OA
ATOM     11  H   UNL     1       8.269  -0.510  23.454  0.00  0.00    +0.210 HD
ENDBRANCH   3  10
BRANCH   1  12
ATOM     12  C   UNL     1       7.144   1.416  23.696  0.00  0.00    +0.192 C 
BRANCH  12  13
ATOM     13  O   UNL     1       6.547   0.758  22.581  0.00  0.00    -0.392 OA
ATOM     14  H   UNL     1       6.672   1.341  21.811  0.00  0.00    +0.210 HD
ENDBRANCH  12  13
ENDBRANCH   1  12
TORSDOF 4
ENDMDL
