MODEL 1
REMARK VINA RESULT:      89.3      0.000      0.000
REMARK  Name = 
REMARK  23 active torsions:
REMARK  status: ('A' for Active; 'I' for Inactive)
REMARK    1  A    between atoms: C_1  and  O_2
REMARK    2  A    between atoms: O_2  and  C_3
REMARK    3  A    between atoms: C_8  and  C_9
REMARK    4  A    between atoms: C_17  and  O_18
REMARK    5  A    between atoms: C_19  and  N_20
REMARK    6  A    between atoms: C_30  and  C_31
REMARK    7  A    between atoms: C_35  and  C_37
REMARK    8  A    between atoms: C_38  and  O_40
REMARK    9  A    between atoms: C_41  and  C_43
REMARK   10  A    between atoms: C_44  and  O_46
REMARK   11  A    between atoms: C_47  and  C_49
REMARK   12  A    between atoms: C_50  and  O_52
REMARK   13  A    between atoms: O_52  and  C_53
REMARK   14  A    between atoms: C_53  and  C_55
REMARK   15  A    between atoms: C_55  and  O_56
REMARK   16  A    between atoms: O_56  and  C_57
REMARK   17  A    between atoms: C_57  and  C_59
REMARK   18  A    between atoms: C_59  and  C_60
REMARK   19  A    between atoms: N_62  and  C_63
REMARK   20  A    between atoms: C_67  and  C_69
REMARK   21  A    between atoms: C_70  and  O_71
REMARK   22  A    between atoms: C_74  and  O_75
REMARK   23  A    between atoms: C_76  and  C_77
REMARK                            x       y       z     vdW  Elec       q    Type
REMARK                         _______ _______ _______ _____ _____    ______ ____
ROOT
ATOM      1  C   UNL     1      19.033  -0.183  24.565  0.00  0.00    +0.150 C 
ATOM      2  C   UNL     1      20.403   0.072  25.174  0.00  0.00    +0.060 C 
ATOM      3  C   UNL     1      20.692  -0.983  26.231  0.00  0.00    +0.014 C 
ATOM      4  C   UNL     1       1.176  -6.616  28.304  0.00  0.00    +0.187 C 
ATOM      5  C   UNL     1       1.435  -5.202  27.809  0.00  0.00    +0.056 C 
ATOM      6  C   UNL     1       0.921  -4.205  28.835  0.00  0.00    +0.014 C 
ATOM      7  C   UNL     1       2.927  -5.000  27.608  0.00  0.00    +0.126 C 
ATOM      8  C   UNL     1       3.185  -3.586  27.112  0.00  0.00    +0.044 C 
ATOM      9  C   UNL     1       2.462  -3.373  25.793  0.00  0.00    +0.013 C 
ATOM     10  C   UNL     1       4.678  -3.384  26.911  0.00  0.00    +0.126 C 
ATOM     11  C   UNL     1       4.935  -1.971  26.416  0.00  0.00    +0.037 C 
ATOM     12  C   UNL     1       4.213  -1.757  25.096  0.00  0.00    +0.014 C 
ATOM     13  C   UNL     1       6.429  -1.768  26.215  0.00  0.00    -0.021 C 
ATOM     14  C   UNL     1       6.900  -0.570  25.774  0.00  0.00    -0.003 C 
ATOM     15  C   UNL     1       8.393  -0.368  25.572  0.00  0.00    +0.008 C 
ATOM     16  C   UNL     1       8.863   0.829  25.130  0.00  0.00    +0.012 C 
ATOM     17  C   UNL     1      10.356   1.031  24.929  0.00  0.00    +0.049 C 
ATOM     18  C   UNL     1      10.356   1.031  24.929  0.00  0.00    +0.244 C 
ATOM     19  O   UNL     1      11.165   0.082  25.174  0.00  0.00    -0.270 OA
ATOM     20  N   UNL     1      10.864   2.325  24.452  0.00  0.00    -0.278 N 
ATOM     21  H   UNL     1      10.239   3.060  24.262  0.00  0.00    +0.155 HD
ATOM     22  C   UNL     1      12.308   2.521  24.257  0.00  0.00    +0.097 C 
ATOM     23  C   UNL     1      13.011   4.556  21.762  0.00  0.00    +0.128 C 
ATOM     24  C   UNL     1      13.995   5.692  21.983  0.00  0.00    +0.136 C 
ATOM     25  C   UNL     1      14.571   5.895  20.854  0.00  0.00    +0.112 C 
ATOM     26  C   UNL     1      15.864   5.800  20.699  0.00  0.00    +0.030 C 
ATOM     27  C   UNL     1      16.481   6.039  19.332  0.00  0.00    +0.051 C 
ATOM     28  C   UNL     1      16.688   5.476  21.791  0.00  0.00    +0.139 C 
ATOM     29  C   UNL     1      16.100   5.262  23.002  0.00  0.00    +0.056 C 
ATOM     30  C   UNL     1      17.148   4.930  24.038  0.00  0.00    +0.247 C 
ATOM     31  O   UNL     1      17.021   4.960  25.302  0.00  0.00    -0.284 OA
ATOM     32  C   UNL     1      18.406   4.546  23.227  0.00  0.00    +0.314 C 
ATOM     33  C   UNL     1      19.667   4.851  24.019  0.00  0.00    +0.114 C 
ATOM     34  O   UNL     1      18.441   3.173  22.867  0.00  0.00    -0.453 OA
ATOM     35  C   UNL     1      18.711   2.187  23.854  0.00  0.00    +0.190 C 
ATOM     36  O   UNL     1      18.184   5.308  21.903  0.00  0.00    -0.444 OA
ATOM     37  C   UNL     1      14.567   5.588  23.520  0.00  0.00    +0.111 C 
ATOM     38  C   UNL     1      14.162   4.054  23.613  0.00  0.00    +0.126 C 
ATOM     39  C   UNL     1      12.835   3.859  23.763  0.00  0.00    +0.093 C 
ATOM     40  C   UNL     1      18.745   0.872  23.510  0.00  0.00    +0.042 C 
ENDROOT
BRANCH  39  41
ATOM     41  N   UNL     1      11.899   4.956  23.480  0.00  0.00    -0.321 N 
ATOM     42  C   UNL     1      12.138   6.308  24.162  0.00  0.00    +0.133 C 
ATOM     43  C   UNL     1      10.866   6.723  24.906  0.00  0.00    +0.178 C 
ATOM     44  O   UNL     1       9.698   6.770  23.918  0.00  0.00    -0.377 OA
ATOM     45  C   UNL     1       9.549   5.491  23.297  0.00  0.00    +0.178 C 
ATOM     46  C   UNL     1      10.692   5.072  22.547  0.00  0.00    +0.133 C 
ENDBRANCH  39  41
BRANCH   1  48
ATOM     47  C   UNL     1      20.337  -1.984  23.909  0.00  0.00    +0.194 C 
ATOM     48  O   UNL     1      19.015  -1.470  23.966  0.00  0.00    -0.375 OA
ENDBRANCH   1  48
BRANCH   7  49
ATOM     49  O   UNL     1       3.603  -5.201  28.841  0.00  0.00    -0.391 OA
ATOM     50  H   UNL     1       4.102  -6.031  28.805  0.00  0.00    +0.210 HD
ENDBRANCH   7  49
BRANCH  10  51
ATOM     51  O   UNL     1       5.353  -3.584  28.144  0.00  0.00    -0.391 OA
ATOM     52  H   UNL     1       5.788  -4.451  28.138  0.00  0.00    +0.210 HD
ENDBRANCH  10  51
BRANCH  25  53
ATOM     53  O   UNL     1      13.772   6.235  19.731  0.00  0.00    -0.510 OA
ATOM     54  H   UNL     1      13.950   5.849  18.896  0.00  0.00    +0.292 HD
ENDBRANCH  25  53
BRANCH  38  55
ATOM     55  O   UNL     1      14.801   5.065  22.660  0.00  0.00    -0.508 OA
ATOM     56  H   UNL     1      15.717   4.987  22.635  0.00  0.00    +0.292 HD
ENDBRANCH  38  55
BRANCH  23  57
ATOM     57  O   UNL     1      12.117   4.595  20.660  0.00  0.00    -0.508 OA
ATOM     58  H   UNL     1      12.211   3.980  19.958  0.00  0.00    +0.292 HD
ENDBRANCH  23  57
BRANCH   4  59
ATOM     59  O   UNL     1       1.852  -6.816  29.537  0.00  0.00    -0.458 OA
BRANCH  59  60
ATOM     60  C   UNL     1       2.954  -7.710  29.596  0.00  0.00    +0.346 C 
ATOM     61  O   UNL     1       2.982  -8.628  30.475  0.00  0.00    -0.247 OA
BRANCH  60  62
ATOM     62  C   UNL     1       4.101  -7.567  28.609  0.00  0.00    +0.352 C 
BRANCH  62  63
ATOM     63  O   UNL     1       3.590  -7.575  27.285  0.00  0.00    -0.453 OA
BRANCH  63  64
ATOM     64  C   UNL     1       4.388  -7.099  26.212  0.00  0.00    +0.312 C 
ATOM     65  O   UNL     1       5.604  -6.786  26.415  0.00  0.00    -0.250 OA
BRANCH  64  66
ATOM     66  C   UNL     1       3.790  -6.962  24.821  0.00  0.00    +0.153 C 
BRANCH  66  67
ATOM     67  C   UNL     1       4.808  -6.321  23.892  0.00  0.00    -0.041 C 
ATOM     68  C   UNL     1       6.013  -7.110  23.469  0.00  0.00    +0.061 C 
ATOM     69  C   UNL     1       6.681  -6.475  22.284  0.00  0.00    -0.007 C 
ATOM     70  C   UNL     1       6.422  -5.239  21.922  0.00  0.00    +0.070 C 
ATOM     71  N   UNL     1       5.511  -4.464  22.627  0.00  0.00    -0.316 N 
ATOM     72  C   UNL     1       5.516  -3.002  22.472  0.00  0.00    +0.134 C 
ATOM     73  C   UNL     1       4.612  -5.058  23.466  0.00  0.00    +0.074 C 
ENDBRANCH  66  67
ENDBRANCH  64  66
ENDBRANCH  63  64
ENDBRANCH  62  63
ENDBRANCH  60  62
ENDBRANCH  59  60
ENDBRANCH   4  59
TORSDOF 14
ENDMDL
MODEL 2
REMARK VINA RESULT:      91.7      0.801      1.242
REMARK  Name = 
REMARK  23 active torsions:
REMARK  status: ('A' for Active; 'I' for Inactive)
REMARK    1  A    between atoms: C_1  and  O_2
REMARK    2  A    between atoms: O_2  and  C_3
REMARK    3  A    between atoms: C_8  and  C_9
REMARK    4  A    between atoms: C_17  and  O_18
REMARK    5  A    between atoms: C_19  and  N_20
REMARK    6  A    between atoms: C_30  and  C_31
REMARK    7  A    between atoms: C_35  and  C_37
REMARK    8  A    between atoms: C_38  and  O_40
REMARK    9  A    between atoms: C_41  and  C_43
REMARK   10  A    between atoms: C_44  and  O_46
REMARK   11  A    between atoms: C_47  and  C_49
REMARK   12  A    between atoms: C_50  and  O_52
REMARK   13  A    between atoms: O_52  and  C_53
REMARK   14  A    between atoms: C_53  and  C_55
REMARK   15  A    between atoms: C_55  and  O_56
REMARK   16  A    between atoms: O_56  and  C_57
REMARK   17  A    between atoms: C_57  and  C_59
REMARK   18  A    between atoms: C_59  and  C_60
REMARK   19  A    between atoms: N_62  and  C_63
REMARK   20  A    between atoms: C_67  and  C_69
REMARK   21  A    between atoms: C_70  and  O_71
REMARK   22  A    between atoms: C_74  and  O_75
REMARK   23  A    between atoms: C_76  and  C_77
REMARK                            x       y       z     vdW  Elec       q    Type
REMARK                         _______ _______ _______ _____ _____    ______ ____
ROOT
ATOM      1  C   UNL     1      19.015  -0.346  24.460  0.00  0.00    +0.150 C 
ATOM      2  C   UNL     1      20.403  -0.123  25.039  0.00  0.00    +0.060 C 
ATOM      3  C   UNL     1      20.693  -1.188  26.085  0.00  0.00    +0.014 C 
ATOM      4  C   UNL     1       1.108  -6.387  28.591  0.00  0.00    +0.187 C 
ATOM      5  C   UNL     1       1.386  -4.978  28.094  0.00  0.00    +0.056 C 
ATOM      6  C   UNL     1       0.919  -3.973  29.134  0.00  0.00    +0.014 C 
ATOM      7  C   UNL     1       2.878  -4.809  27.859  0.00  0.00    +0.126 C 
ATOM      8  C   UNL     1       3.156  -3.399  27.362  0.00  0.00    +0.044 C 
ATOM      9  C   UNL     1       2.409  -3.165  26.060  0.00  0.00    +0.013 C 
ATOM     10  C   UNL     1       4.649  -3.231  27.127  0.00  0.00    +0.126 C 
ATOM     11  C   UNL     1       4.926  -1.822  26.630  0.00  0.00    +0.037 C 
ATOM     12  C   UNL     1       4.178  -1.587  25.328  0.00  0.00    +0.014 C 
ATOM     13  C   UNL     1       6.419  -1.652  26.395  0.00  0.00    -0.021 C 
ATOM     14  C   UNL     1       6.907  -0.464  25.947  0.00  0.00    -0.003 C 
ATOM     15  C   UNL     1       8.399  -0.295  25.712  0.00  0.00    +0.008 C 
ATOM     16  C   UNL     1       8.886   0.894  25.262  0.00  0.00    +0.012 C 
ATOM     17  C   UNL     1      10.378   1.063  25.027  0.00  0.00    +0.049 C 
ATOM     18  C   UNL     1      10.378   1.063  25.027  0.00  0.00    +0.244 C 
ATOM     19  O   UNL     1      11.171   0.094  25.251  0.00  0.00    -0.270 OA
ATOM     20  N   UNL     1      10.904   2.346  24.542  0.00  0.00    -0.278 N 
ATOM     21  H   UNL     1      10.291   3.096  24.369  0.00  0.00    +0.155 HD
ATOM     22  C   UNL     1      12.348   2.510  24.315  0.00  0.00    +0.097 C 
ATOM     23  C   UNL     1      13.038   4.537  21.810  0.00  0.00    +0.128 C 
ATOM     24  C   UNL     1      14.053   5.650  22.011  0.00  0.00    +0.136 C 
ATOM     25  C   UNL     1      14.607   5.843  20.870  0.00  0.00    +0.112 C 
ATOM     26  C   UNL     1      15.894   5.719  20.685  0.00  0.00    +0.030 C 
ATOM     27  C   UNL     1      16.484   5.949  19.304  0.00  0.00    +0.051 C 
ATOM     28  C   UNL     1      16.735   5.374  21.756  0.00  0.00    +0.139 C 
ATOM     29  C   UNL     1      16.170   5.169  22.981  0.00  0.00    +0.056 C 
ATOM     30  C   UNL     1      17.234   4.810  23.991  0.00  0.00    +0.247 C 
ATOM     31  O   UNL     1      17.137   4.839  25.258  0.00  0.00    -0.284 OA
ATOM     32  C   UNL     1      18.464   4.401  23.150  0.00  0.00    +0.314 C 
ATOM     33  C   UNL     1      19.749   4.674  23.914  0.00  0.00    +0.114 C 
ATOM     34  O   UNL     1      18.460   3.029  22.786  0.00  0.00    -0.453 OA
ATOM     35  C   UNL     1      18.731   2.034  23.764  0.00  0.00    +0.190 C 
ATOM     36  O   UNL     1      18.230   5.172  21.833  0.00  0.00    -0.444 OA
ATOM     37  C   UNL     1      14.658   5.527  23.534  0.00  0.00    +0.111 C 
ATOM     38  C   UNL     1      14.220   4.003  23.633  0.00  0.00    +0.126 C 
ATOM     39  C   UNL     1      12.893   3.837  23.812  0.00  0.00    +0.093 C 
ATOM     40  C   UNL     1      18.726   0.719  23.415  0.00  0.00    +0.042 C 
ENDROOT
BRANCH  39  41
ATOM     41  N   UNL     1      11.976   4.957  23.554  0.00  0.00    -0.321 N 
ATOM     42  C   UNL     1      12.091   6.207  24.432  0.00  0.00    +0.133 C 
ATOM     43  C   UNL     1      10.723   6.512  25.049  0.00  0.00    +0.178 C 
ATOM     44  O   UNL     1       9.693   6.681  23.930  0.00  0.00    -0.377 OA
ATOM     45  C   UNL     1       9.658   5.496  23.133  0.00  0.00    +0.178 C 
ATOM     46  C   UNL     1      10.898   5.187  22.493  0.00  0.00    +0.133 C 
ENDBRANCH  39  41
BRANCH   1  48
ATOM     47  C   UNL     1      19.943  -2.469  24.433  0.00  0.00    +0.194 C 
ATOM     48  O   UNL     1      18.953  -1.630  23.858  0.00  0.00    -0.375 OA
ENDBRANCH   1  48
BRANCH   7  49
ATOM     49  O   UNL     1       3.577  -5.028  29.076  0.00  0.00    -0.391 OA
ATOM     50  H   UNL     1       2.940  -5.173  29.793  0.00  0.00    +0.210 HD
ENDBRANCH   7  49
BRANCH  10  51
ATOM     51  O   UNL     1       5.347  -3.449  28.344  0.00  0.00    -0.391 OA
ATOM     52  H   UNL     1       4.765  -3.904  28.973  0.00  0.00    +0.210 HD
ENDBRANCH  10  51
BRANCH  25  53
ATOM     53  O   UNL     1      13.790   6.205  19.766  0.00  0.00    -0.510 OA
ATOM     54  H   UNL     1      14.062   6.890  19.187  0.00  0.00    +0.292 HD
ENDBRANCH  25  53
BRANCH  38  55
ATOM     55  O   UNL     1      14.860   5.002  22.668  0.00  0.00    -0.508 OA
ATOM     56  H   UNL     1      14.757   4.751  21.789  0.00  0.00    +0.292 HD
ENDBRANCH  38  55
BRANCH  23  57
ATOM     57  O   UNL     1      12.121   4.599  20.729  0.00  0.00    -0.508 OA
ATOM     58  H   UNL     1      11.215   4.781  20.891  0.00  0.00    +0.292 HD
ENDBRANCH  23  57
BRANCH   4  59
ATOM     59  O   UNL     1       1.806  -6.606  29.808  0.00  0.00    -0.458 OA
BRANCH  59  60
ATOM     60  C   UNL     1       2.410  -7.868  30.053  0.00  0.00    +0.346 C 
ATOM     61  O   UNL     1       1.708  -8.836  30.484  0.00  0.00    -0.247 OA
BRANCH  60  62
ATOM     62  C   UNL     1       3.896  -8.061  29.799  0.00  0.00    +0.352 C 
BRANCH  62  63
ATOM     63  O   UNL     1       4.380  -6.999  28.991  0.00  0.00    -0.453 OA
BRANCH  63  64
ATOM     64  C   UNL     1       4.765  -7.247  27.647  0.00  0.00    +0.312 C 
ATOM     65  O   UNL     1       5.867  -6.791  27.207  0.00  0.00    -0.250 OA
BRANCH  64  66
ATOM     66  C   UNL     1       3.860  -8.058  26.733  0.00  0.00    +0.153 C 
BRANCH  66  67
ATOM     67  C   UNL     1       3.409  -7.191  25.568  0.00  0.00    -0.041 C 
ATOM     68  C   UNL     1       2.038  -7.391  24.993  0.00  0.00    +0.061 C 
ATOM     69  C   UNL     1       1.639  -6.223  24.138  0.00  0.00    -0.007 C 
ATOM     70  C   UNL     1       2.518  -5.347  23.707  0.00  0.00    +0.070 C 
ATOM     71  N   UNL     1       3.863  -5.466  24.031  0.00  0.00    -0.316 N 
ATOM     72  C   UNL     1       4.874  -4.740  23.249  0.00  0.00    +0.134 C 
ATOM     73  C   UNL     1       4.249  -6.260  25.073  0.00  0.00    +0.074 C 
ENDBRANCH  66  67
ENDBRANCH  64  66
ENDBRANCH  63  64
ENDBRANCH  62  63
ENDBRANCH  60  62
ENDBRANCH  59  60
ENDBRANCH   4  59
TORSDOF 14
ENDMDL
