MODEL 1
REMARK VINA RESULT:      -8.3      0.000      0.000
REMARK  Name = 
REMARK  5 active torsions:
REMARK  status: ('A' for Active; 'I' for Inactive)
REMARK    1  A    between atoms: C_2  and  C_19
REMARK    2  A    between atoms: C_11  and  C_12
REMARK    3  A    between atoms: N_21  and  C_22
REMARK    4  A    between atoms: C_22  and  C_23
REMARK    5  A    between atoms: C_23  and  C_24
REMARK                            x       y       z     vdW  Elec       q    Type
REMARK                         _______ _______ _______ _____ _____    ______ ____
ROOT
ATOM      1  C   UNL     1       8.035  -2.651  25.585  0.00  0.00    +0.161 C 
ATOM      2  N   UNL     1       6.636  -2.775  25.130  0.00  0.00    -0.303 N 
ATOM      3  C   UNL     1       6.161  -3.916  24.508  0.00  0.00    +0.127 A 
ATOM      4  C   UNL     1       6.594  -4.207  23.226  0.00  0.00    +0.067 A 
ATOM      5  C   UNL     1       6.003  -5.257  22.556  0.00  0.00    +0.045 A 
ATOM      6  C   UNL     1       6.367  -5.533  21.130  0.00  0.00    +0.066 C 
ATOM      7  N   UNL     1       5.060  -6.023  23.122  0.00  0.00    -0.217 NA
ATOM      8  C   UNL     1       4.691  -5.694  24.375  0.00  0.00    +0.238 A 
ATOM      9  N   UNL     1       3.682  -6.497  24.970  0.00  0.00    -0.274 N 
ATOM     10  C   UNL     1       3.152  -6.359  26.230  0.00  0.00    +0.206 A 
ATOM     11  N   UNL     1       2.237  -7.270  26.490  0.00  0.00    -0.244 NA
ATOM     12  C   UNL     1       2.157  -8.031  25.353  0.00  0.00    +0.130 A 
ATOM     13  C   UNL     1       3.036  -7.574  24.401  0.00  0.00    +0.115 A 
ATOM     14  N   UNL     1       5.199  -4.660  25.089  0.00  0.00    -0.197 NA
ATOM     15  C   UNL     1       5.752  -2.064  26.055  0.00  0.00    +0.107 C 
ATOM     16  C   UNL     1       6.685  -1.192  26.903  0.00  0.00    +0.021 C 
ATOM     17  C   UNL     1       8.027  -1.244  26.188  0.00  0.00    +0.033 C 
ENDROOT
BRANCH   1  18
ATOM     18  C   UNL     1       9.113  -2.732  24.490  0.00  0.00    +0.234 C 
ATOM     19  N   UNL     1       9.189  -1.616  23.673  0.00  0.00    -0.313 N 
ATOM     20  H   UNL     1       8.427  -0.947  23.685  0.00  0.00    +0.149 HD
ATOM     21  O   UNL     1       9.844  -3.706  24.326  0.00  0.00    -0.274 OA
BRANCH  19  22
ATOM     22  C   UNL     1      10.127  -1.584  22.561  0.00  0.00    +0.109 C 
BRANCH  22  23
ATOM     23  C   UNL     1       9.717  -0.597  21.467  0.00  0.00    +0.054 C 
BRANCH  23  24
ATOM     24  C   UNL     1       9.401   0.767  22.032  0.00  0.00    -0.042 A 
ATOM     25  C   UNL     1      10.301   1.393  22.925  0.00  0.00    +0.007 A 
ATOM     26  C   UNL     1      10.039   2.670  23.436  0.00  0.00    +0.050 A 
ATOM     27  C   UNL     1       8.880   3.297  23.032  0.00  0.00    +0.166 A 
ATOM     28  O   UNL     1       8.470   4.534  23.417  0.00  0.00    -0.453 OA
ATOM     29  C   UNL     1       7.237   4.652  22.679  0.00  0.00    +0.466 C 
ATOM     30  O   UNL     1       6.925   3.485  21.891  0.00  0.00    -0.453 OA
ATOM     31  C   UNL     1       8.001   2.698  22.162  0.00  0.00    +0.166 A 
ATOM     32  C   UNL     1       8.230   1.440  21.646  0.00  0.00    +0.053 A 
ENDBRANCH  23  24
ENDBRANCH  22  23
ENDBRANCH  19  22
ENDBRANCH   1  18
TORSDOF 4
ENDMDL
MODEL 2
REMARK VINA RESULT:      -8.0      3.257      9.292
REMARK  Name = 
REMARK  5 active torsions:
REMARK  status: ('A' for Active; 'I' for Inactive)
REMARK    1  A    between atoms: C_2  and  C_19
REMARK    2  A    between atoms: C_11  and  C_12
REMARK    3  A    between atoms: N_21  and  C_22
REMARK    4  A    between atoms: C_22  and  C_23
REMARK    5  A    between atoms: C_23  and  C_24
REMARK                            x       y       z     vdW  Elec       q    Type
REMARK                         _______ _______ _______ _____ _____    ______ ____
ROOT
ATOM      1  C   UNL     1       8.551  -0.728  23.548  0.00  0.00    +0.161 C 
ATOM      2  N   UNL     1       8.644   0.546  22.807  0.00  0.00    -0.303 N 
ATOM      3  C   UNL     1       8.667   1.772  23.448  0.00  0.00    +0.127 A 
ATOM      4  C   UNL     1       7.514   2.226  24.064  0.00  0.00    +0.067 A 
ATOM      5  C   UNL     1       7.498   3.509  24.566  0.00  0.00    +0.045 A 
ATOM      6  C   UNL     1       6.235   4.073  25.140  0.00  0.00    +0.066 C 
ATOM      7  N   UNL     1       8.574   4.308  24.513  0.00  0.00    -0.217 NA
ATOM      8  C   UNL     1       9.668   3.802  23.910  0.00  0.00    +0.238 A 
ATOM      9  N   UNL     1      10.803   4.653  23.841  0.00  0.00    -0.274 N 
ATOM     10  C   UNL     1      12.024   4.358  23.286  0.00  0.00    +0.206 A 
ATOM     11  N   UNL     1      12.876   5.359  23.391  0.00  0.00    -0.244 NA
ATOM     12  C   UNL     1      12.184   6.351  24.034  0.00  0.00    +0.130 A 
ATOM     13  C   UNL     1      10.904   5.943  24.321  0.00  0.00    +0.115 A 
ATOM     14  N   UNL     1       9.754   2.565  23.365  0.00  0.00    -0.197 NA
ATOM     15  C   UNL     1       9.476   0.363  21.617  0.00  0.00    +0.107 C 
ATOM     16  C   UNL     1       9.603  -1.156  21.451  0.00  0.00    +0.021 C 
ATOM     17  C   UNL     1       8.568  -1.740  22.400  0.00  0.00    +0.033 C 
ENDROOT
BRANCH   1  18
ATOM     18  C   UNL     1       7.278  -0.930  24.389  0.00  0.00    +0.234 C 
ATOM     19  N   UNL     1       7.494  -1.497  25.633  0.00  0.00    -0.313 N 
ATOM     20  H   UNL     1       8.386  -1.939  25.823  0.00  0.00    +0.149 HD
ATOM     21  O   UNL     1       6.151  -0.635  23.997  0.00  0.00    -0.274 OA
BRANCH  19  22
ATOM     22  C   UNL     1       6.369  -1.796  26.508  0.00  0.00    +0.109 C 
BRANCH  22  23
ATOM     23  C   UNL     1       6.031  -3.287  26.553  0.00  0.00    +0.054 C 
BRANCH  23  24
ATOM     24  C   UNL     1       6.438  -3.993  25.282  0.00  0.00    -0.042 A 
ATOM     25  C   UNL     1       7.725  -4.566  25.168  0.00  0.00    +0.007 A 
ATOM     26  C   UNL     1       8.110  -5.251  24.009  0.00  0.00    +0.050 A 
ATOM     27  C   UNL     1       7.189  -5.352  22.989  0.00  0.00    +0.166 A 
ATOM     28  O   UNL     1       7.385  -5.983  21.801  0.00  0.00    -0.453 OA
ATOM     29  C   UNL     1       6.103  -5.778  21.171  0.00  0.00    +0.466 C 
ATOM     30  O   UNL     1       5.182  -5.015  21.978  0.00  0.00    -0.453 OA
ATOM     31  C   UNL     1       5.935  -4.800  23.091  0.00  0.00    +0.166 A 
ATOM     32  C   UNL     1       5.529  -4.118  24.219  0.00  0.00    +0.053 A 
ENDBRANCH  23  24
ENDBRANCH  22  23
ENDBRANCH  19  22
ENDBRANCH   1  18
TORSDOF 4
ENDMDL
MODEL 3
REMARK VINA RESULT:      -7.9      3.404      8.131
REMARK  Name = 
REMARK  5 active torsions:
REMARK  status: ('A' for Active; 'I' for Inactive)
REMARK    1  A    between atoms: C_2  and  C_19
REMARK    2  A    between atoms: C_11  and  C_12
REMARK    3  A    between atoms: N_21  and  C_22
REMARK    4  A    between atoms: C_22  and  C_23
REMARK    5  A    between atoms: C_23  and  C_24
REMARK                            x       y       z     vdW  Elec       q    Type
REMARK                         _______ _______ _______ _____ _____    ______ ____
ROOT
ATOM      1  C   UNL     1       9.297  -0.459  22.968  0.00  0.00    +0.161 C 
ATOM      2  N   UNL     1       8.080   0.291  23.336  0.00  0.00    -0.303 N 
ATOM      3  C   UNL     1       7.583   0.305  24.627  0.00  0.00    +0.127 A 
ATOM      4  C   UNL     1       7.015  -0.849  25.137  0.00  0.00    +0.067 A 
ATOM      5  C   UNL     1       6.387  -0.787  26.362  0.00  0.00    +0.045 A 
ATOM      6  C   UNL     1       5.666  -1.987  26.895  0.00  0.00    +0.066 C 
ATOM      7  N   UNL     1       6.349   0.340  27.087  0.00  0.00    -0.217 NA
ATOM      8  C   UNL     1       6.931   1.425  26.539  0.00  0.00    +0.238 A 
ATOM      9  N   UNL     1       6.879   2.624  27.300  0.00  0.00    -0.274 N 
ATOM     10  C   UNL     1       7.403   3.845  26.955  0.00  0.00    +0.206 A 
ATOM     11  N   UNL     1       7.198   4.758  27.883  0.00  0.00    -0.244 NA
ATOM     12  C   UNL     1       6.504   4.111  28.873  0.00  0.00    +0.130 A 
ATOM     13  C   UNL     1       6.293   2.796  28.538  0.00  0.00    +0.115 A 
ATOM     14  N   UNL     1       7.539   1.455  25.329  0.00  0.00    -0.197 NA
ATOM     15  C   UNL     1       7.999   1.518  22.543  0.00  0.00    +0.107 C 
ATOM     16  C   UNL     1       9.020   1.330  21.415  0.00  0.00    +0.021 C 
ATOM     17  C   UNL     1       9.401  -0.142  21.474  0.00  0.00    +0.033 C 
ENDROOT
BRANCH   1  18
ATOM     18  C   UNL     1       9.238  -1.984  23.164  0.00  0.00    +0.234 C 
ATOM     19  N   UNL     1       8.142  -2.597  22.583  0.00  0.00    -0.313 N 
ATOM     20  H   UNL     1       7.362  -2.024  22.282  0.00  0.00    +0.149 HD
ATOM     21  O   UNL     1      10.078  -2.621  23.797  0.00  0.00    -0.274 OA
BRANCH  19  22
ATOM     22  C   UNL     1       7.933  -4.029  22.741  0.00  0.00    +0.109 C 
BRANCH  22  23
ATOM     23  C   UNL     1       6.567  -4.368  23.338  0.00  0.00    +0.054 C 
BRANCH  23  24
ATOM     24  C   UNL     1       6.684  -4.868  24.758  0.00  0.00    -0.042 A 
ATOM     25  C   UNL     1       7.867  -4.639  25.497  0.00  0.00    +0.007 A 
ATOM     26  C   UNL     1       7.982  -5.068  26.824  0.00  0.00    +0.050 A 
ATOM     27  C   UNL     1       6.902  -5.714  27.386  0.00  0.00    +0.166 A 
ATOM     28  O   UNL     1       6.834  -6.190  28.657  0.00  0.00    -0.453 OA
ATOM     29  C   UNL     1       5.496  -6.729  28.672  0.00  0.00    +0.466 C 
ATOM     30  O   UNL     1       4.805  -6.587  27.414  0.00  0.00    -0.453 OA
ATOM     31  C   UNL     1       5.747  -5.939  26.676  0.00  0.00    +0.166 A 
ATOM     32  C   UNL     1       5.606  -5.531  25.367  0.00  0.00    +0.053 A 
ENDBRANCH  23  24
ENDBRANCH  22  23
ENDBRANCH  19  22
ENDBRANCH   1  18
TORSDOF 4
ENDMDL
MODEL 4
REMARK VINA RESULT:      -7.7      2.643      3.806
REMARK  Name = 
REMARK  5 active torsions:
REMARK  status: ('A' for Active; 'I' for Inactive)
REMARK    1  A    between atoms: C_2  and  C_19
REMARK    2  A    between atoms: C_11  and  C_12
REMARK    3  A    between atoms: N_21  and  C_22
REMARK    4  A    between atoms: C_22  and  C_23
REMARK    5  A    between atoms: C_23  and  C_24
REMARK                            x       y       z     vdW  Elec       q    Type
REMARK                         _______ _______ _______ _____ _____    ______ ____
ROOT
ATOM      1  C   UNL     1       7.835  -3.925  24.383  0.00  0.00    +0.161 C 
ATOM      2  N   UNL     1       7.402  -3.271  25.634  0.00  0.00    -0.303 N 
ATOM      3  C   UNL     1       6.392  -2.325  25.660  0.00  0.00    +0.127 A 
ATOM      4  C   UNL     1       6.628  -1.081  25.103  0.00  0.00    +0.067 A 
ATOM      5  C   UNL     1       5.678  -0.096  25.267  0.00  0.00    +0.045 A 
ATOM      6  C   UNL     1       5.946   1.292  24.773  0.00  0.00    +0.066 C 
ATOM      7  N   UNL     1       4.523  -0.321  25.910  0.00  0.00    -0.217 NA
ATOM      8  C   UNL     1       4.350  -1.556  26.419  0.00  0.00    +0.238 A 
ATOM      9  N   UNL     1       3.133  -1.791  27.113  0.00  0.00    -0.274 N 
ATOM     10  C   UNL     1       2.733  -2.962  27.707  0.00  0.00    +0.206 A 
ATOM     11  N   UNL     1       1.541  -2.861  28.261  0.00  0.00    -0.244 NA
ATOM     12  C   UNL     1       1.148  -1.569  28.028  0.00  0.00    +0.130 A 
ATOM     13  C   UNL     1       2.111  -0.887  27.323  0.00  0.00    +0.115 A 
ATOM     14  N   UNL     1       5.247  -2.567  26.329  0.00  0.00    -0.197 NA
ATOM     15  C   UNL     1       7.501  -4.218  26.745  0.00  0.00    +0.107 C 
ATOM     16  C   UNL     1       8.351  -5.375  26.206  0.00  0.00    +0.021 C 
ATOM     17  C   UNL     1       8.935  -4.855  24.901  0.00  0.00    +0.033 C 
ENDROOT
BRANCH   1  18
ATOM     18  C   UNL     1       8.416  -2.999  23.301  0.00  0.00    +0.234 C 
ATOM     19  N   UNL     1       9.634  -2.427  23.625  0.00  0.00    -0.313 N 
ATOM     20  H   UNL     1       9.949  -2.457  24.589  0.00  0.00    +0.149 HD
ATOM     21  O   UNL     1       7.851  -2.760  22.236  0.00  0.00    -0.274 OA
BRANCH  19  22
ATOM     22  C   UNL     1      10.269  -1.486  22.715  0.00  0.00    +0.109 C 
BRANCH  22  23
ATOM     23  C   UNL     1      10.643  -0.166  23.391  0.00  0.00    +0.054 C 
BRANCH  23  24
ATOM     24  C   UNL     1       9.724   0.958  22.973  0.00  0.00    -0.042 A 
ATOM     25  C   UNL     1       8.839   0.785  21.885  0.00  0.00    +0.007 A 
ATOM     26  C   UNL     1       7.959   1.804  21.502  0.00  0.00    +0.050 A 
ATOM     27  C   UNL     1       7.981   2.976  22.227  0.00  0.00    +0.166 A 
ATOM     28  O   UNL     1       7.197   4.064  22.004  0.00  0.00    -0.453 OA
ATOM     29  C   UNL     1       7.646   4.942  23.057  0.00  0.00    +0.466 C 
ATOM     30  O   UNL     1       8.698   4.376  23.867  0.00  0.00    -0.453 OA
ATOM     31  C   UNL     1       8.837   3.153  23.288  0.00  0.00    +0.166 A 
ATOM     32  C   UNL     1       9.717   2.168  23.685  0.00  0.00    +0.053 A 
ENDBRANCH  23  24
ENDBRANCH  22  23
ENDBRANCH  19  22
ENDBRANCH   1  18
TORSDOF 4
ENDMDL
MODEL 5
REMARK VINA RESULT:      -7.7      1.772      2.381
REMARK  Name = 
REMARK  5 active torsions:
REMARK  status: ('A' for Active; 'I' for Inactive)
REMARK    1  A    between atoms: C_2  and  C_19
REMARK    2  A    between atoms: C_11  and  C_12
REMARK    3  A    between atoms: N_21  and  C_22
REMARK    4  A    between atoms: C_22  and  C_23
REMARK    5  A    between atoms: C_23  and  C_24
REMARK                            x       y       z     vdW  Elec       q    Type
REMARK                         _______ _______ _______ _____ _____    ______ ____
ROOT
ATOM      1  C   UNL     1       8.768  -1.740  25.691  0.00  0.00    +0.161 C 
ATOM      2  N   UNL     1       7.328  -2.000  25.892  0.00  0.00    -0.303 N 
ATOM      3  C   UNL     1       6.797  -3.277  25.850  0.00  0.00    +0.127 A 
ATOM      4  C   UNL     1       6.736  -3.935  24.634  0.00  0.00    +0.067 A 
ATOM      5  C   UNL     1       6.069  -5.140  24.571  0.00  0.00    +0.045 A 
ATOM      6  C   UNL     1       5.889  -5.828  23.254  0.00  0.00    +0.066 C 
ATOM      7  N   UNL     1       5.519  -5.707  25.655  0.00  0.00    -0.217 NA
ATOM      8  C   UNL     1       5.622  -5.020  26.810  0.00  0.00    +0.238 A 
ATOM      9  N   UNL     1       5.027  -5.613  27.955  0.00  0.00    -0.274 N 
ATOM     10  C   UNL     1       5.010  -5.108  29.232  0.00  0.00    +0.206 A 
ATOM     11  N   UNL     1       4.386  -5.905  30.076  0.00  0.00    -0.244 NA
ATOM     12  C   UNL     1       3.971  -6.970  29.321  0.00  0.00    +0.130 A 
ATOM     13  C   UNL     1       4.352  -6.815  28.010  0.00  0.00    +0.115 A 
ATOM     14  N   UNL     1       6.233  -3.818  26.948  0.00  0.00    -0.197 NA
ATOM     15  C   UNL     1       6.787  -1.050  26.864  0.00  0.00    +0.107 C 
ATOM     16  C   UNL     1       7.857   0.040  26.992  0.00  0.00    +0.021 C 
ATOM     17  C   UNL     1       8.816  -0.217  25.839  0.00  0.00    +0.033 C 
ENDROOT
BRANCH   1  18
ATOM     18  C   UNL     1       9.343  -2.138  24.321  0.00  0.00    +0.234 C 
ATOM     19  N   UNL     1       9.058  -1.252  23.297  0.00  0.00    -0.313 N 
ATOM     20  H   UNL     1       8.336  -0.555  23.438  0.00  0.00    +0.149 HD
ATOM     21  O   UNL     1       9.990  -3.165  24.128  0.00  0.00    -0.274 OA
BRANCH  19  22
ATOM     22  C   UNL     1       9.494  -1.536  21.938  0.00  0.00    +0.109 C 
BRANCH  22  23
ATOM     23  C   UNL     1       9.271  -0.362  20.984  0.00  0.00    +0.054 C 
BRANCH  23  24
ATOM     24  C   UNL     1       9.036   0.930  21.730  0.00  0.00    -0.042 A 
ATOM     25  C   UNL     1       7.718   1.371  21.989  0.00  0.00    +0.007 A 
ATOM     26  C   UNL     1       7.480   2.550  22.705  0.00  0.00    +0.050 A 
ATOM     27  C   UNL     1       8.573   3.260  23.154  0.00  0.00    +0.166 A 
ATOM     28  O   UNL     1       8.532   4.415  23.868  0.00  0.00    -0.453 OA
ATOM     29  C   UNL     1       9.940   4.666  24.058  0.00  0.00    +0.466 C 
ATOM     30  O   UNL     1      10.789   3.676  23.440  0.00  0.00    -0.453 OA
ATOM     31  C   UNL     1       9.858   2.837  22.910  0.00  0.00    +0.166 A 
ATOM     32  C   UNL     1      10.123   1.682  22.204  0.00  0.00    +0.053 A 
ENDBRANCH  23  24
ENDBRANCH  22  23
ENDBRANCH  19  22
ENDBRANCH   1  18
TORSDOF 4
ENDMDL
MODEL 6
REMARK VINA RESULT:      -7.6      3.517      8.259
REMARK  Name = 
REMARK  5 active torsions:
REMARK  status: ('A' for Active; 'I' for Inactive)
REMARK    1  A    between atoms: C_2  and  C_19
REMARK    2  A    between atoms: C_11  and  C_12
REMARK    3  A    between atoms: N_21  and  C_22
REMARK    4  A    between atoms: C_22  and  C_23
REMARK    5  A    between atoms: C_23  and  C_24
REMARK                            x       y       z     vdW  Elec       q    Type
REMARK                         _______ _______ _______ _____ _____    ______ ____
ROOT
ATOM      1  C   UNL     1       9.533  -0.690  24.311  0.00  0.00    +0.161 C 
ATOM      2  N   UNL     1       8.458  -0.132  23.467  0.00  0.00    -0.303 N 
ATOM      3  C   UNL     1       7.599   0.852  23.921  0.00  0.00    +0.127 A 
ATOM      4  C   UNL     1       6.660   0.527  24.884  0.00  0.00    +0.067 A 
ATOM      5  C   UNL     1       5.710   1.467  25.221  0.00  0.00    +0.045 A 
ATOM      6  C   UNL     1       4.613   1.114  26.177  0.00  0.00    +0.066 C 
ATOM      7  N   UNL     1       5.697   2.693  24.677  0.00  0.00    -0.217 NA
ATOM      8  C   UNL     1       6.644   2.950  23.754  0.00  0.00    +0.238 A 
ATOM      9  N   UNL     1       6.622   4.243  23.166  0.00  0.00    -0.274 N 
ATOM     10  C   UNL     1       7.484   4.734  22.216  0.00  0.00    +0.206 A 
ATOM     11  N   UNL     1       7.204   5.978  21.883  0.00  0.00    -0.244 NA
ATOM     12  C   UNL     1       6.112   6.313  22.639  0.00  0.00    +0.130 A 
ATOM     13  C   UNL     1       5.732   5.262  23.437  0.00  0.00    +0.115 A 
ATOM     14  N   UNL     1       7.591   2.071  23.345  0.00  0.00    -0.197 NA
ATOM     15  C   UNL     1       8.902  -0.083  22.073  0.00  0.00    +0.107 C 
ATOM     16  C   UNL     1      10.157  -0.963  22.025  0.00  0.00    +0.021 C 
ATOM     17  C   UNL     1      10.166  -1.703  23.354  0.00  0.00    +0.033 C 
ENDROOT
BRANCH   1  18
ATOM     18  C   UNL     1       9.081  -1.411  25.593  0.00  0.00    +0.234 C 
ATOM     19  N   UNL     1       8.852  -2.768  25.441  0.00  0.00    -0.313 N 
ATOM     20  H   UNL     1       8.769  -3.149  24.505  0.00  0.00    +0.149 HD
ATOM     21  O   UNL     1       8.915  -0.842  26.670  0.00  0.00    -0.274 OA
BRANCH  19  22
ATOM     22  C   UNL     1       8.366  -3.560  26.561  0.00  0.00    +0.109 C 
BRANCH  22  23
ATOM     23  C   UNL     1       6.906  -3.985  26.399  0.00  0.00    +0.054 C 
BRANCH  23  24
ATOM     24  C   UNL     1       6.516  -4.107  24.945  0.00  0.00    -0.042 A 
ATOM     25  C   UNL     1       5.823  -3.055  24.304  0.00  0.00    +0.007 A 
ATOM     26  C   UNL     1       5.479  -3.138  22.949  0.00  0.00    +0.050 A 
ATOM     27  C   UNL     1       5.846  -4.275  22.263  0.00  0.00    +0.166 A 
ATOM     28  O   UNL     1       5.605  -4.523  20.949  0.00  0.00    -0.453 OA
ATOM     29  C   UNL     1       6.219  -5.820  20.801  0.00  0.00    +0.466 C 
ATOM     30  O   UNL     1       6.791  -6.328  22.024  0.00  0.00    -0.453 OA
ATOM     31  C   UNL     1       6.523  -5.302  22.877  0.00  0.00    +0.166 A 
ATOM     32  C   UNL     1       6.871  -5.250  24.210  0.00  0.00    +0.053 A 
ENDBRANCH  23  24
ENDBRANCH  22  23
ENDBRANCH  19  22
ENDBRANCH   1  18
TORSDOF 4
ENDMDL
MODEL 7
REMARK VINA RESULT:      -7.6      3.439      9.797
REMARK  Name = 
REMARK  5 active torsions:
REMARK  status: ('A' for Active; 'I' for Inactive)
REMARK    1  A    between atoms: C_2  and  C_19
REMARK    2  A    between atoms: C_11  and  C_12
REMARK    3  A    between atoms: N_21  and  C_22
REMARK    4  A    between atoms: C_22  and  C_23
REMARK    5  A    between atoms: C_23  and  C_24
REMARK                            x       y       z     vdW  Elec       q    Type
REMARK                         _______ _______ _______ _____ _____    ______ ____
ROOT
ATOM      1  C   UNL     1       9.030  -1.114  23.990  0.00  0.00    +0.161 C 
ATOM      2  N   UNL     1       8.931   0.133  23.205  0.00  0.00    -0.303 N 
ATOM      3  C   UNL     1       8.890   1.379  23.804  0.00  0.00    +0.127 A 
ATOM      4  C   UNL     1       7.757   1.745  24.510  0.00  0.00    +0.067 A 
ATOM      5  C   UNL     1       7.659   3.040  24.972  0.00  0.00    +0.045 A 
ATOM      6  C   UNL     1       6.403   3.502  25.644  0.00  0.00    +0.066 C 
ATOM      7  N   UNL     1       8.642   3.935  24.795  0.00  0.00    -0.217 NA
ATOM      8  C   UNL     1       9.722   3.513  24.109  0.00  0.00    +0.238 A 
ATOM      9  N   UNL     1      10.757   4.465  23.909  0.00  0.00    -0.274 N 
ATOM     10  C   UNL     1      11.947   4.267  23.251  0.00  0.00    +0.206 A 
ATOM     11  N   UNL     1      12.701   5.347  23.246  0.00  0.00    -0.244 NA
ATOM     12  C   UNL     1      11.974   6.294  23.920  0.00  0.00    +0.130 A 
ATOM     13  C   UNL     1      10.772   5.777  24.338  0.00  0.00    +0.115 A 
ATOM     14  N   UNL     1       9.881   2.269  23.596  0.00  0.00    -0.197 NA
ATOM     15  C   UNL     1       9.666  -0.016  21.949  0.00  0.00    +0.107 C 
ATOM     16  C   UNL     1       9.927  -1.521  21.818  0.00  0.00    +0.021 C 
ATOM     17  C   UNL     1       9.044  -2.164  22.877  0.00  0.00    +0.033 C 
ENDROOT
BRANCH   1  18
ATOM     18  C   UNL     1       7.864  -1.404  24.951  0.00  0.00    +0.234 C 
ATOM     19  N   UNL     1       6.659  -1.679  24.328  0.00  0.00    -0.313 N 
ATOM     20  H   UNL     1       6.554  -1.459  23.344  0.00  0.00    +0.149 HD
ATOM     21  O   UNL     1       7.971  -1.380  26.175  0.00  0.00    -0.274 OA
BRANCH  19  22
ATOM     22  C   UNL     1       5.461  -1.915  25.120  0.00  0.00    +0.109 C 
BRANCH  22  23
ATOM     23  C   UNL     1       4.692  -3.161  24.677  0.00  0.00    +0.054 C 
BRANCH  23  24
ATOM     24  C   UNL     1       4.893  -4.313  25.632  0.00  0.00    -0.042 A 
ATOM     25  C   UNL     1       4.495  -5.619  25.265  0.00  0.00    +0.007 A 
ATOM     26  C   UNL     1       4.700  -6.704  26.125  0.00  0.00    +0.050 A 
ATOM     27  C   UNL     1       5.309  -6.457  27.336  0.00  0.00    +0.166 A 
ATOM     28  O   UNL     1       5.594  -7.385  28.287  0.00  0.00    -0.453 OA
ATOM     29  C   UNL     1       6.225  -6.561  29.289  0.00  0.00    +0.466 C 
ATOM     30  O   UNL     1       6.284  -5.165  28.930  0.00  0.00    -0.453 OA
ATOM     31  C   UNL     1       5.702  -5.191  27.701  0.00  0.00    +0.166 A 
ATOM     32  C   UNL     1       5.509  -4.103  26.876  0.00  0.00    +0.053 A 
ENDBRANCH  23  24
ENDBRANCH  22  23
ENDBRANCH  19  22
ENDBRANCH   1  18
TORSDOF 4
ENDMDL
MODEL 8
REMARK VINA RESULT:      -7.5      3.539      9.565
REMARK  Name = 
REMARK  5 active torsions:
REMARK  status: ('A' for Active; 'I' for Inactive)
REMARK    1  A    between atoms: C_2  and  C_19
REMARK    2  A    between atoms: C_11  and  C_12
REMARK    3  A    between atoms: N_21  and  C_22
REMARK    4  A    between atoms: C_22  and  C_23
REMARK    5  A    between atoms: C_23  and  C_24
REMARK                            x       y       z     vdW  Elec       q    Type
REMARK                         _______ _______ _______ _____ _____    ______ ____
ROOT
ATOM      1  C   UNL     1       9.527  -1.306  24.457  0.00  0.00    +0.161 C 
ATOM      2  N   UNL     1       8.944  -0.146  23.754  0.00  0.00    -0.303 N 
ATOM      3  C   UNL     1       8.566   1.006  24.421  0.00  0.00    +0.127 A 
ATOM      4  C   UNL     1       7.459   0.965  25.250  0.00  0.00    +0.067 A 
ATOM      5  C   UNL     1       6.998   2.147  25.790  0.00  0.00    +0.045 A 
ATOM      6  C   UNL     1       5.740   2.157  26.602  0.00  0.00    +0.066 C 
ATOM      7  N   UNL     1       7.612   3.318  25.569  0.00  0.00    -0.217 NA
ATOM      8  C   UNL     1       8.690   3.288  24.762  0.00  0.00    +0.238 A 
ATOM      9  N   UNL     1       9.333   4.531  24.517  0.00  0.00    -0.274 N 
ATOM     10  C   UNL     1      10.444   4.747  23.740  0.00  0.00    +0.206 A 
ATOM     11  N   UNL     1      10.803   6.015  23.722  0.00  0.00    -0.244 NA
ATOM     12  C   UNL     1       9.886   6.657  24.513  0.00  0.00    +0.130 A 
ATOM     13  C   UNL     1       8.968   5.765  25.014  0.00  0.00    +0.115 A 
ATOM     14  N   UNL     1       9.187   2.176  24.169  0.00  0.00    -0.197 NA
ATOM     15  C   UNL     1       9.549  -0.019  22.428  0.00  0.00    +0.107 C 
ATOM     16  C   UNL     1      10.268  -1.352  22.190  0.00  0.00    +0.021 C 
ATOM     17  C   UNL     1       9.761  -2.271  23.291  0.00  0.00    +0.033 C 
ENDROOT
BRANCH   1  18
ATOM     18  C   UNL     1       8.628  -1.983  25.507  0.00  0.00    +0.234 C 
ATOM     19  N   UNL     1       7.713  -2.883  24.988  0.00  0.00    -0.313 N 
ATOM     20  H   UNL     1       7.531  -2.878  23.991  0.00  0.00    +0.149 HD
ATOM     21  O   UNL     1       8.690  -1.742  26.710  0.00  0.00    -0.274 OA
BRANCH  19  22
ATOM     22  C   UNL     1       6.764  -3.551  25.866  0.00  0.00    +0.109 C 
BRANCH  22  23
ATOM     23  C   UNL     1       6.703  -5.062  25.635  0.00  0.00    +0.054 C 
BRANCH  23  24
ATOM     24  C   UNL     1       5.423  -5.474  24.948  0.00  0.00    -0.042 A 
ATOM     25  C   UNL     1       4.796  -4.600  24.030  0.00  0.00    +0.007 A 
ATOM     26  C   UNL     1       3.626  -4.976  23.361  0.00  0.00    +0.050 A 
ATOM     27  C   UNL     1       3.112  -6.228  23.621  0.00  0.00    +0.166 A 
ATOM     28  O   UNL     1       1.995  -6.761  23.060  0.00  0.00    -0.453 OA
ATOM     29  C   UNL     1       1.971  -8.060  23.687  0.00  0.00    +0.466 C 
ATOM     30  O   UNL     1       3.053  -8.269  24.619  0.00  0.00    -0.453 OA
ATOM     31  C   UNL     1       3.716  -7.086  24.509  0.00  0.00    +0.166 A 
ATOM     32  C   UNL     1       4.867  -6.741  25.186  0.00  0.00    +0.053 A 
ENDBRANCH  23  24
ENDBRANCH  22  23
ENDBRANCH  19  22
ENDBRANCH   1  18
TORSDOF 4
ENDMDL
MODEL 9
REMARK VINA RESULT:      -7.4      3.382      8.458
REMARK  Name = 
REMARK  5 active torsions:
REMARK  status: ('A' for Active; 'I' for Inactive)
REMARK    1  A    between atoms: C_2  and  C_19
REMARK    2  A    between atoms: C_11  and  C_12
REMARK    3  A    between atoms: N_21  and  C_22
REMARK    4  A    between atoms: C_22  and  C_23
REMARK    5  A    between atoms: C_23  and  C_24
REMARK                            x       y       z     vdW  Elec       q    Type
REMARK                         _______ _______ _______ _____ _____    ______ ____
ROOT
ATOM      1  C   UNL     1       9.347  -1.505  23.290  0.00  0.00    +0.161 C 
ATOM      2  N   UNL     1       8.179  -0.618  23.455  0.00  0.00    -0.303 N 
ATOM      3  C   UNL     1       7.617  -0.359  24.693  0.00  0.00    +0.127 A 
ATOM      4  C   UNL     1       6.928  -1.371  25.338  0.00  0.00    +0.067 A 
ATOM      5  C   UNL     1       6.243  -1.065  26.495  0.00  0.00    +0.045 A 
ATOM      6  C   UNL     1       5.398  -2.106  27.161  0.00  0.00    +0.066 C 
ATOM      7  N   UNL     1       6.262   0.164  27.030  0.00  0.00    -0.217 NA
ATOM      8  C   UNL     1       6.960   1.101  26.358  0.00  0.00    +0.238 A 
ATOM      9  N   UNL     1       6.968   2.407  26.917  0.00  0.00    -0.274 N 
ATOM     10  C   UNL     1       7.610   3.514  26.419  0.00  0.00    +0.206 A 
ATOM     11  N   UNL     1       7.432   4.578  27.177  0.00  0.00    -0.244 NA
ATOM     12  C   UNL     1       6.636   4.153  28.208  0.00  0.00    +0.130 A 
ATOM     13  C   UNL     1       6.334   2.819  28.071  0.00  0.00    +0.115 A 
ATOM     14  N   UNL     1       7.632   0.889  25.201  0.00  0.00    -0.197 NA
ATOM     15  C   UNL     1       8.243   0.468  22.476  0.00  0.00    +0.107 C 
ATOM     16  C   UNL     1       9.303   0.024  21.461  0.00  0.00    +0.021 C 
ATOM     17  C   UNL     1       9.556  -1.442  21.775  0.00  0.00    +0.033 C 
ENDROOT
BRANCH   1  18
ATOM     18  C   UNL     1       9.151  -2.970  23.719  0.00  0.00    +0.234 C 
ATOM     19  N   UNL     1       8.001  -3.564  23.228  0.00  0.00    -0.313 N 
ATOM     20  H   UNL     1       7.275  -2.976  22.834  0.00  0.00    +0.149 HD
ATOM     21  O   UNL     1       9.932  -3.574  24.451  0.00  0.00    -0.274 OA
BRANCH  19  22
ATOM     22  C   UNL     1       7.664  -4.930  23.602  0.00  0.00    +0.109 C 
BRANCH  22  23
ATOM     23  C   UNL     1       6.739  -5.002  24.819  0.00  0.00    +0.054 C 
BRANCH  23  24
ATOM     24  C   UNL     1       5.347  -5.449  24.439  0.00  0.00    -0.042 A 
ATOM     25  C   UNL     1       4.488  -4.575  23.735  0.00  0.00    +0.007 A 
ATOM     26  C   UNL     1       3.205  -4.983  23.349  0.00  0.00    +0.050 A 
ATOM     27  C   UNL     1       2.814  -6.264  23.672  0.00  0.00    +0.166 A 
ATOM     28  O   UNL     1       1.615  -6.829  23.372  0.00  0.00    -0.453 OA
ATOM     29  C   UNL     1       1.790  -8.147  23.932  0.00  0.00    +0.466 C 
ATOM     30  O   UNL     1       3.070  -8.336  24.570  0.00  0.00    -0.453 OA
ATOM     31  C   UNL     1       3.645  -7.121  24.354  0.00  0.00    +0.166 A 
ATOM     32  C   UNL     1       4.911  -6.747  24.751  0.00  0.00    +0.053 A 
ENDBRANCH  23  24
ENDBRANCH  22  23
ENDBRANCH  19  22
ENDBRANCH   1  18
TORSDOF 4
ENDMDL
