MODEL 1
REMARK VINA RESULT:      -4.7      0.000      0.000
REMARK  Name = 
REMARK  5 active torsions:
REMARK  status: ('A' for Active; 'I' for Inactive)
REMARK    1  A    between atoms: C_1  and  C_2
REMARK    2  A    between atoms: C_5  and  O_7
REMARK    3  A    between atoms: C_8  and  O_10
REMARK    4  A    between atoms: C_11  and  O_13
REMARK    5  A    between atoms: C_14  and  O_16
REMARK                            x       y       z     vdW  Elec       q    Type
REMARK                         _______ _______ _______ _____ _____    ______ ____
ROOT
ATOM      1  C   UNL     1       9.410   2.177  24.424  0.00  0.00    +0.041 C 
ATOM      2  C   UNL     1      10.382   1.352  23.576  0.00  0.00    +0.149 C 
ATOM      3  C   UNL     1       9.971   1.127  22.104  0.00  0.00    +0.174 C 
ATOM      4  C   UNL     1       8.962  -0.017  21.944  0.00  0.00    +0.179 C 
ATOM      5  C   UNL     1       9.498  -1.277  22.627  0.00  0.00    +0.201 C 
ATOM      6  C   UNL     1       9.831  -0.956  24.102  0.00  0.00    +0.279 C 
ATOM      7  O   UNL     1      10.741   0.136  24.239  0.00  0.00    -0.343 OA
ENDROOT
BRANCH   3   8
ATOM      8  O   UNL     1       9.471   2.310  21.474  0.00  0.00    -0.387 OA
ATOM      9  H   UNL     1       9.206   2.082  20.566  0.00  0.00    +0.210 HD
ENDBRANCH   3   8
BRANCH   4  10
ATOM     10  O   UNL     1       7.694   0.344  22.520  0.00  0.00    -0.386 OA
ATOM     11  H   UNL     1       7.766   1.287  22.760  0.00  0.00    +0.210 HD
ENDBRANCH   4  10
BRANCH   5  12
ATOM     12  O   UNL     1      10.644  -1.744  21.904  0.00  0.00    -0.384 OA
ATOM     13  H   UNL     1      11.421  -1.255  22.227  0.00  0.00    +0.210 HD
ENDBRANCH   5  12
BRANCH   6  14
ATOM     14  O   UNL     1       8.664  -0.770  24.888  0.00  0.00    -0.365 OA
ATOM     15  H   UNL     1       8.541  -1.590  25.406  0.00  0.00    +0.213 HD
ENDBRANCH   6  14
TORSDOF 4
ENDMDL
MODEL 2
REMARK VINA RESULT:      -4.4      1.574      3.124
REMARK  Name = 
REMARK  5 active torsions:
REMARK  status: ('A' for Active; 'I' for Inactive)
REMARK    1  A    between atoms: C_1  and  C_2
REMARK    2  A    between atoms: C_5  and  O_7
REMARK    3  A    between atoms: C_8  and  O_10
REMARK    4  A    between atoms: C_11  and  O_13
REMARK    5  A    between atoms: C_14  and  O_16
REMARK                            x       y       z     vdW  Elec       q    Type
REMARK                         _______ _______ _______ _____ _____    ______ ____
ROOT
ATOM      1  C   UNL     1      10.784   0.379  24.041  0.00  0.00    +0.041 C 
ATOM      2  C   UNL     1       9.330   0.016  23.726  0.00  0.00    +0.149 C 
ATOM      3  C   UNL     1       8.970  -0.093  22.228  0.00  0.00    +0.174 C 
ATOM      4  C   UNL     1       8.700   1.276  21.588  0.00  0.00    +0.179 C 
ATOM      5  C   UNL     1       7.657   2.034  22.412  0.00  0.00    +0.201 C 
ATOM      6  C   UNL     1       8.136   2.128  23.879  0.00  0.00    +0.279 C 
ATOM      7  O   UNL     1       8.421   0.851  24.451  0.00  0.00    -0.343 OA
ENDROOT
BRANCH   3   8
ATOM      8  O   UNL     1       9.950  -0.803  21.465  0.00  0.00    -0.387 OA
ATOM      9  H   UNL     1       9.671  -1.733  21.403  0.00  0.00    +0.210 HD
ENDBRANCH   3   8
BRANCH   4  10
ATOM     10  O   UNL     1       9.912   2.046  21.513  0.00  0.00    -0.386 OA
ATOM     11  H   UNL     1       9.636   2.968  21.349  0.00  0.00    +0.210 HD
ENDBRANCH   4  10
BRANCH   5  12
ATOM     12  O   UNL     1       6.397   1.361  22.297  0.00  0.00    -0.384 OA
ATOM     13  H   UNL     1       6.565   0.403  22.337  0.00  0.00    +0.210 HD
ENDBRANCH   5  12
BRANCH   6  14
ATOM     14  O   UNL     1       9.223   3.027  24.034  0.00  0.00    -0.365 OA
ATOM     15  H   UNL     1       9.465   3.014  24.982  0.00  0.00    +0.213 HD
ENDBRANCH   6  14
TORSDOF 4
ENDMDL
MODEL 3
REMARK VINA RESULT:      -4.4      1.384      3.168
REMARK  Name = 
REMARK  5 active torsions:
REMARK  status: ('A' for Active; 'I' for Inactive)
REMARK    1  A    between atoms: C_1  and  C_2
REMARK    2  A    between atoms: C_5  and  O_7
REMARK    3  A    between atoms: C_8  and  O_10
REMARK    4  A    between atoms: C_11  and  O_13
REMARK    5  A    between atoms: C_14  and  O_16
REMARK                            x       y       z     vdW  Elec       q    Type
REMARK                         _______ _______ _______ _____ _____    ______ ____
ROOT
ATOM      1  C   UNL     1       9.038  -1.761  24.779  0.00  0.00    +0.041 C 
ATOM      2  C   UNL     1       8.261  -0.831  23.843  0.00  0.00    +0.149 C 
ATOM      3  C   UNL     1       8.188  -1.267  22.363  0.00  0.00    +0.174 C 
ATOM      4  C   UNL     1       9.453  -0.896  21.578  0.00  0.00    +0.179 C 
ATOM      5  C   UNL     1       9.754   0.593  21.760  0.00  0.00    +0.201 C 
ATOM      6  C   UNL     1       9.855   0.913  23.269  0.00  0.00    +0.279 C 
ATOM      7  O   UNL     1       8.687   0.527  23.995  0.00  0.00    -0.343 OA
ENDROOT
BRANCH   3   8
ATOM      8  O   UNL     1       7.906  -2.660  22.203  0.00  0.00    -0.387 OA
ATOM      9  H   UNL     1       7.047  -2.747  21.753  0.00  0.00    +0.210 HD
ENDBRANCH   3   8
BRANCH   4  10
ATOM     10  O   UNL     1      10.574  -1.676  22.028  0.00  0.00    -0.386 OA
ATOM     11  H   UNL     1      10.781  -2.295  21.302  0.00  0.00    +0.210 HD
ENDBRANCH   4  10
BRANCH   5  12
ATOM     12  O   UNL     1       8.727   1.357  21.113  0.00  0.00    -0.384 OA
ATOM     13  H   UNL     1       7.951   0.779  21.001  0.00  0.00    +0.210 HD
ENDBRANCH   5  12
BRANCH   6  14
ATOM     14  O   UNL     1      11.035   0.385  23.853  0.00  0.00    -0.365 OA
ATOM     15  H   UNL     1      11.199  -0.479  23.424  0.00  0.00    +0.213 HD
ENDBRANCH   6  14
TORSDOF 4
ENDMDL
MODEL 4
REMARK VINA RESULT:      -4.4      1.352      2.704
REMARK  Name = 
REMARK  5 active torsions:
REMARK  status: ('A' for Active; 'I' for Inactive)
REMARK    1  A    between atoms: C_1  and  C_2
REMARK    2  A    between atoms: C_5  and  O_7
REMARK    3  A    between atoms: C_8  and  O_10
REMARK    4  A    between atoms: C_11  and  O_13
REMARK    5  A    between atoms: C_14  and  O_16
REMARK                            x       y       z     vdW  Elec       q    Type
REMARK                         _______ _______ _______ _____ _____    ______ ____
ROOT
ATOM      1  C   UNL     1       9.255  -1.156  24.890  0.00  0.00    +0.041 C 
ATOM      2  C   UNL     1      10.082  -0.001  24.319  0.00  0.00    +0.149 C 
ATOM      3  C   UNL     1       9.388   1.379  24.291  0.00  0.00    +0.174 C 
ATOM      4  C   UNL     1       8.450   1.540  23.088  0.00  0.00    +0.179 C 
ATOM      5  C   UNL     1       9.205   1.211  21.798  0.00  0.00    +0.201 C 
ATOM      6  C   UNL     1       9.817  -0.204  21.911  0.00  0.00    +0.279 C 
ATOM      7  O   UNL     1      10.657  -0.353  23.056  0.00  0.00    -0.343 OA
ENDROOT
BRANCH   3   8
ATOM      8  O   UNL     1       8.685   1.677  25.501  0.00  0.00    -0.387 OA
ATOM      9  H   UNL     1       8.719   2.639  25.642  0.00  0.00    +0.210 HD
ENDBRANCH   3   8
BRANCH   4  10
ATOM     10  O   UNL     1       7.310   0.673  23.216  0.00  0.00    -0.386 OA
ATOM     11  H   UNL     1       7.593  -0.061  23.795  0.00  0.00    +0.210 HD
ENDBRANCH   4  10
BRANCH   5  12
ATOM     12  O   UNL     1      10.203   2.216  21.576  0.00  0.00    -0.384 OA
ATOM     13  H   UNL     1      10.283   2.350  20.615  0.00  0.00    +0.210 HD
ENDBRANCH   5  12
BRANCH   6  14
ATOM     14  O   UNL     1       8.832  -1.223  21.846  0.00  0.00    -0.365 OA
ATOM     15  H   UNL     1       9.058  -1.877  22.538  0.00  0.00    +0.213 HD
ENDBRANCH   6  14
TORSDOF 4
ENDMDL
MODEL 5
REMARK VINA RESULT:      -4.3      1.244      1.603
REMARK  Name = 
REMARK  5 active torsions:
REMARK  status: ('A' for Active; 'I' for Inactive)
REMARK    1  A    between atoms: C_1  and  C_2
REMARK    2  A    between atoms: C_5  and  O_7
REMARK    3  A    between atoms: C_8  and  O_10
REMARK    4  A    between atoms: C_11  and  O_13
REMARK    5  A    between atoms: C_14  and  O_16
REMARK                            x       y       z     vdW  Elec       q    Type
REMARK                         _______ _______ _______ _____ _____    ______ ____
ROOT
ATOM      1  C   UNL     1       8.193   2.154  24.182  0.00  0.00    +0.041 C 
ATOM      2  C   UNL     1       9.300   1.120  23.958  0.00  0.00    +0.149 C 
ATOM      3  C   UNL     1      10.148   1.302  22.679  0.00  0.00    +0.174 C 
ATOM      4  C   UNL     1       9.456   0.739  21.431  0.00  0.00    +0.179 C 
ATOM      5  C   UNL     1       9.038  -0.711  21.683  0.00  0.00    +0.201 C 
ATOM      6  C   UNL     1       8.157  -0.775  22.952  0.00  0.00    +0.279 C 
ATOM      7  O   UNL     1       8.796  -0.213  24.098  0.00  0.00    -0.343 OA
ENDROOT
BRANCH   3   8
ATOM      8  O   UNL     1      10.533   2.661  22.452  0.00  0.00    -0.387 OA
ATOM      9  H   UNL     1      10.623   2.794  21.492  0.00  0.00    +0.210 HD
ENDBRANCH   3   8
BRANCH   4  10
ATOM     10  O   UNL     1       8.299   1.525  21.095  0.00  0.00    -0.386 OA
ATOM     11  H   UNL     1       7.677   0.916  20.655  0.00  0.00    +0.210 HD
ENDBRANCH   4  10
BRANCH   5  12
ATOM     12  O   UNL     1      10.216  -1.519  21.801  0.00  0.00    -0.384 OA
ATOM     13  H   UNL     1      10.072  -2.152  22.528  0.00  0.00    +0.210 HD
ENDBRANCH   5  12
BRANCH   6  14
ATOM     14  O   UNL     1       6.869  -0.218  22.741  0.00  0.00    -0.365 OA
ATOM     15  H   UNL     1       6.991   0.559  22.160  0.00  0.00    +0.213 HD
ENDBRANCH   6  14
TORSDOF 4
ENDMDL
MODEL 6
REMARK VINA RESULT:      -4.3      1.173      3.049
REMARK  Name = 
REMARK  5 active torsions:
REMARK  status: ('A' for Active; 'I' for Inactive)
REMARK    1  A    between atoms: C_1  and  C_2
REMARK    2  A    between atoms: C_5  and  O_7
REMARK    3  A    between atoms: C_8  and  O_10
REMARK    4  A    between atoms: C_11  and  O_13
REMARK    5  A    between atoms: C_14  and  O_16
REMARK                            x       y       z     vdW  Elec       q    Type
REMARK                         _______ _______ _______ _____ _____    ______ ____
ROOT
ATOM      1  C   UNL     1       8.718   2.741  24.324  0.00  0.00    +0.041 C 
ATOM      2  C   UNL     1       8.210   1.374  23.857  0.00  0.00    +0.149 C 
ATOM      3  C   UNL     1       8.935   0.145  24.448  0.00  0.00    +0.174 C 
ATOM      4  C   UNL     1      10.250  -0.167  23.722  0.00  0.00    +0.179 C 
ATOM      5  C   UNL     1       9.994  -0.276  22.217  0.00  0.00    +0.201 C 
ATOM      6  C   UNL     1       9.313   1.020  21.720  0.00  0.00    +0.279 C 
ATOM      7  O   UNL     1       8.111   1.321  22.430  0.00  0.00    -0.343 OA
ENDROOT
BRANCH   3   8
ATOM      8  O   UNL     1       9.170   0.255  25.855  0.00  0.00    -0.387 OA
ATOM      9  H   UNL     1      10.109   0.470  25.990  0.00  0.00    +0.210 HD
ENDBRANCH   3   8
BRANCH   4  10
ATOM     10  O   UNL     1      11.224   0.861  23.975  0.00  0.00    -0.386 OA
ATOM     11  H   UNL     1      10.875   1.671  23.557  0.00  0.00    +0.210 HD
ENDBRANCH   4  10
BRANCH   5  12
ATOM     12  O   UNL     1       9.193  -1.438  21.965  0.00  0.00    -0.384 OA
ATOM     13  H   UNL     1       9.467  -2.130  22.593  0.00  0.00    +0.210 HD
ENDBRANCH   5  12
BRANCH   6  14
ATOM     14  O   UNL     1      10.204   2.124  21.704  0.00  0.00    -0.365 OA
ATOM     15  H   UNL     1      11.107   1.758  21.794  0.00  0.00    +0.213 HD
ENDBRANCH   6  14
TORSDOF 4
ENDMDL
MODEL 7
REMARK VINA RESULT:      -4.2      4.747      6.433
REMARK  Name = 
REMARK  5 active torsions:
REMARK  status: ('A' for Active; 'I' for Inactive)
REMARK    1  A    between atoms: C_1  and  C_2
REMARK    2  A    between atoms: C_5  and  O_7
REMARK    3  A    between atoms: C_8  and  O_10
REMARK    4  A    between atoms: C_11  and  O_13
REMARK    5  A    between atoms: C_14  and  O_16
REMARK                            x       y       z     vdW  Elec       q    Type
REMARK                         _______ _______ _______ _____ _____    ______ ____
ROOT
ATOM      1  C   UNL     1       5.551  -4.332  25.591  0.00  0.00    +0.041 C 
ATOM      2  C   UNL     1       6.705  -5.331  25.470  0.00  0.00    +0.149 C 
ATOM      3  C   UNL     1       7.743  -5.307  26.614  0.00  0.00    +0.174 C 
ATOM      4  C   UNL     1       8.779  -4.188  26.444  0.00  0.00    +0.179 C 
ATOM      5  C   UNL     1       9.408  -4.275  25.052  0.00  0.00    +0.201 C 
ATOM      6  C   UNL     1       8.291  -4.242  23.984  0.00  0.00    +0.279 C 
ATOM      7  O   UNL     1       7.312  -5.264  24.175  0.00  0.00    -0.343 OA
ENDROOT
BRANCH   3   8
ATOM      8  O   UNL     1       7.146  -5.226  27.911  0.00  0.00    -0.387 OA
ATOM      9  H   UNL     1       7.061  -6.129  28.264  0.00  0.00    +0.210 HD
ENDBRANCH   3   8
BRANCH   4  10
ATOM     10  O   UNL     1       8.163  -2.899  26.618  0.00  0.00    -0.386 OA
ATOM     11  H   UNL     1       7.913  -2.845  27.560  0.00  0.00    +0.210 HD
ENDBRANCH   4  10
BRANCH   5  12
ATOM     12  O   UNL     1      10.196  -5.470  24.973  0.00  0.00    -0.384 OA
ATOM     13  H   UNL     1      11.070  -5.227  24.619  0.00  0.00    +0.210 HD
ENDBRANCH   5  12
BRANCH   6  14
ATOM     14  O   UNL     1       7.695  -2.960  23.867  0.00  0.00    -0.365 OA
ATOM     15  H   UNL     1       6.803  -3.027  24.264  0.00  0.00    +0.213 HD
ENDBRANCH   6  14
TORSDOF 4
ENDMDL
MODEL 8
REMARK VINA RESULT:      -4.2      1.947      3.180
REMARK  Name = 
REMARK  5 active torsions:
REMARK  status: ('A' for Active; 'I' for Inactive)
REMARK    1  A    between atoms: C_1  and  C_2
REMARK    2  A    between atoms: C_5  and  O_7
REMARK    3  A    between atoms: C_8  and  O_10
REMARK    4  A    between atoms: C_11  and  O_13
REMARK    5  A    between atoms: C_14  and  O_16
REMARK                            x       y       z     vdW  Elec       q    Type
REMARK                         _______ _______ _______ _____ _____    ______ ____
ROOT
ATOM      1  C   UNL     1       7.513   3.789  22.386  0.00  0.00    +0.041 C 
ATOM      2  C   UNL     1       8.172   3.391  23.710  0.00  0.00    +0.149 C 
ATOM      3  C   UNL     1       9.709   3.537  23.771  0.00  0.00    +0.174 C 
ATOM      4  C   UNL     1      10.437   2.351  23.124  0.00  0.00    +0.179 C 
ATOM      5  C   UNL     1       9.925   1.041  23.726  0.00  0.00    +0.201 C 
ATOM      6  C   UNL     1       8.388   0.973  23.570  0.00  0.00    +0.279 C 
ATOM      7  O   UNL     1       7.724   2.101  24.141  0.00  0.00    -0.343 OA
ENDROOT
BRANCH   3   8
ATOM      8  O   UNL     1      10.178   4.764  23.206  0.00  0.00    -0.387 OA
ATOM      9  H   UNL     1       9.417   5.361  23.102  0.00  0.00    +0.210 HD
ENDBRANCH   3   8
BRANCH   4  10
ATOM     10  O   UNL     1      10.229   2.344  21.701  0.00  0.00    -0.386 OA
ATOM     11  H   UNL     1       9.556   3.029  21.524  0.00  0.00    +0.210 HD
ENDBRANCH   4  10
BRANCH   5  12
ATOM     12  O   UNL     1      10.332   0.971  25.099  0.00  0.00    -0.384 OA
ATOM     13  H   UNL     1       9.612   0.551  25.603  0.00  0.00    +0.210 HD
ENDBRANCH   5  12
BRANCH   6  14
ATOM     14  O   UNL     1       7.993   0.757  22.224  0.00  0.00    -0.365 OA
ATOM     15  H   UNL     1       7.720  -0.181  22.159  0.00  0.00    +0.213 HD
ENDBRANCH   6  14
TORSDOF 4
ENDMDL
MODEL 9
REMARK VINA RESULT:      -4.1      1.996      3.670
REMARK  Name = 
REMARK  5 active torsions:
REMARK  status: ('A' for Active; 'I' for Inactive)
REMARK    1  A    between atoms: C_1  and  C_2
REMARK    2  A    between atoms: C_5  and  O_7
REMARK    3  A    between atoms: C_8  and  O_10
REMARK    4  A    between atoms: C_11  and  O_13
REMARK    5  A    between atoms: C_14  and  O_16
REMARK                            x       y       z     vdW  Elec       q    Type
REMARK                         _______ _______ _______ _____ _____    ______ ____
ROOT
ATOM      1  C   UNL     1       7.136   2.570  21.871  0.00  0.00    +0.041 C 
ATOM      2  C   UNL     1       7.591   1.721  23.062  0.00  0.00    +0.149 C 
ATOM      3  C   UNL     1       7.979   2.498  24.338  0.00  0.00    +0.174 C 
ATOM      4  C   UNL     1       9.406   3.058  24.274  0.00  0.00    +0.179 C 
ATOM      5  C   UNL     1      10.385   1.935  23.923  0.00  0.00    +0.201 C 
ATOM      6  C   UNL     1       9.934   1.257  22.609  0.00  0.00    +0.279 C 
ATOM      7  O   UNL     1       8.591   0.775  22.668  0.00  0.00    -0.343 OA
ENDROOT
BRANCH   3   8
ATOM      8  O   UNL     1       7.059   3.546  24.658  0.00  0.00    -0.387 OA
ATOM      9  H   UNL     1       6.644   3.848  23.832  0.00  0.00    +0.210 HD
ENDBRANCH   3   8
BRANCH   4  10
ATOM     10  O   UNL     1       9.495   4.104  23.290  0.00  0.00    -0.386 OA
ATOM     11  H   UNL     1      10.448   4.244  23.131  0.00  0.00    +0.210 HD
ENDBRANCH   4  10
BRANCH   5  12
ATOM     12  O   UNL     1      10.441   1.011  25.017  0.00  0.00    -0.384 OA
ATOM     13  H   UNL     1      10.918   1.442  25.748  0.00  0.00    +0.210 HD
ENDBRANCH   5  12
BRANCH   6  14
ATOM     14  O   UNL     1      10.146   2.084  21.476  0.00  0.00    -0.365 OA
ATOM     15  H   UNL     1      11.052   2.444  21.556  0.00  0.00    +0.213 HD
ENDBRANCH   6  14
TORSDOF 4
ENDMDL
