MODEL 1
REMARK VINA RESULT:      -6.7      0.000      0.000
REMARK  Name = 
REMARK  5 active torsions:
REMARK  status: ('A' for Active; 'I' for Inactive)
REMARK    1  A    between atoms: C_1  and  N_2
REMARK    2  A    between atoms: C_6  and  S_7
REMARK    3  A    between atoms: S_7  and  C_8
REMARK    4  A    between atoms: C_10  and  C_11
REMARK    5  A    between atoms: C_19  and  N_20
REMARK                            x       y       z     vdW  Elec       q    Type
REMARK                         _______ _______ _______ _____ _____    ______ ____
ROOT
ATOM      1  C   UNL     1       7.840  -3.639  23.749  0.00  0.00    +0.052 A 
ATOM      2  C   UNL     1       8.883  -3.536  24.680  0.00  0.00    +0.139 A 
ATOM      3  F   UNL     1       9.895  -2.676  24.482  0.00  0.00    -0.204 F 
ATOM      4  C   UNL     1       8.905  -4.299  25.845  0.00  0.00    +0.063 A 
ATOM      5  C   UNL     1       7.827  -5.121  26.172  0.00  0.00    +0.040 A 
ATOM      6  C   UNL     1       6.713  -5.180  25.294  0.00  0.00    +0.059 A 
ATOM      7  C   UNL     1       6.735  -4.447  24.085  0.00  0.00    +0.033 A 
ENDROOT
BRANCH   6   8
ATOM      8  C   UNL     1       5.469  -5.861  25.797  0.00  0.00    +0.252 C 
ATOM      9  N   UNL     1       4.787  -6.703  24.946  0.00  0.00    -0.261 N 
ATOM     10  H   UNL     1       5.233  -7.074  24.119  0.00  0.00    +0.157 HD
ATOM     11  C   UNL     1       3.575  -7.291  25.246  0.00  0.00    +0.165 A 
ATOM     12  S   UNL     1       2.547  -6.697  26.486  0.00  0.00    -0.061 S 
ATOM     13  C   UNL     1       1.421  -7.938  26.155  0.00  0.00    +0.068 A 
ATOM     14  C   UNL     1       1.878  -8.694  25.099  0.00  0.00    +0.120 A 
ATOM     15  N   UNL     1       3.092  -8.300  24.557  0.00  0.00    -0.233 NA
ATOM     16  O   UNL     1       5.135  -5.620  26.959  0.00  0.00    -0.270 OA
ENDBRANCH   6   8
BRANCH   5  17
ATOM     17  N   UNL     1       7.984  -6.028  27.245  0.00  0.00    -0.357 N 
ATOM     18  H   UNL     1       7.312  -5.928  27.994  0.00  0.00    +0.142 HD
ATOM     19  H   UNL     1       8.017  -7.000  26.904  0.00  0.00    +0.142 HD
ENDBRANCH   5  17
BRANCH   1  20
ATOM     20  S   UNL     1       7.925  -2.625  22.262  0.00  0.00    -0.049 S 
BRANCH  20  23
ATOM     21  C   UNL     1       9.328   0.261  21.553  0.00  0.00    +0.151 C 
ATOM     22  N   UNL     1       8.241   0.096  22.491  0.00  0.00    -0.328 N 
ATOM     23  C   UNL     1       7.529  -1.031  22.830  0.00  0.00    +0.173 A 
ATOM     24  N   UNL     1       6.572  -0.739  23.691  0.00  0.00    -0.230 NA
ATOM     25  C   UNL     1       6.686   0.599  23.938  0.00  0.00    +0.131 A 
ATOM     26  C   UNL     1       7.729   1.136  23.231  0.00  0.00    +0.107 A 
ENDBRANCH  20  23
ENDBRANCH   1  20
TORSDOF 4
ENDMDL
MODEL 2
REMARK VINA RESULT:      -6.4      4.205      8.660
REMARK  Name = 
REMARK  5 active torsions:
REMARK  status: ('A' for Active; 'I' for Inactive)
REMARK    1  A    between atoms: C_1  and  N_2
REMARK    2  A    between atoms: C_6  and  S_7
REMARK    3  A    between atoms: S_7  and  C_8
REMARK    4  A    between atoms: C_10  and  C_11
REMARK    5  A    between atoms: C_19  and  N_20
REMARK                            x       y       z     vdW  Elec       q    Type
REMARK                         _______ _______ _______ _____ _____    ______ ____
ROOT
ATOM      1  C   UNL     1       9.306  -1.301  23.713  0.00  0.00    +0.052 A 
ATOM      2  C   UNL     1       9.268  -1.283  22.311  0.00  0.00    +0.139 A 
ATOM      3  F   UNL     1       9.006  -2.404  21.619  0.00  0.00    -0.204 F 
ATOM      4  C   UNL     1       9.481  -0.114  21.586  0.00  0.00    +0.063 A 
ATOM      5  C   UNL     1       9.636   1.106  22.242  0.00  0.00    +0.040 A 
ATOM      6  C   UNL     1       9.590   1.138  23.661  0.00  0.00    +0.059 A 
ATOM      7  C   UNL     1       9.436  -0.067  24.383  0.00  0.00    +0.033 A 
ENDROOT
BRANCH   6   8
ATOM      8  C   UNL     1       9.497   2.487  24.321  0.00  0.00    +0.252 C 
ATOM      9  N   UNL     1       8.457   2.725  25.193  0.00  0.00    -0.261 N 
ATOM     10  H   UNL     1       7.933   1.960  25.594  0.00  0.00    +0.157 HD
ATOM     11  C   UNL     1       8.194   3.952  25.769  0.00  0.00    +0.165 A 
ATOM     12  S   UNL     1       8.815   5.418  25.128  0.00  0.00    -0.061 S 
ATOM     13  C   UNL     1       8.050   6.296  26.379  0.00  0.00    +0.068 A 
ATOM     14  C   UNL     1       7.340   5.424  27.173  0.00  0.00    +0.120 A 
ATOM     15  N   UNL     1       7.394   4.089  26.801  0.00  0.00    -0.233 NA
ATOM     16  O   UNL     1      10.373   3.306  24.038  0.00  0.00    -0.270 OA
ENDBRANCH   6   8
BRANCH   5  17
ATOM     17  N   UNL     1      10.057   2.222  21.481  0.00  0.00    -0.357 N 
ATOM     18  H   UNL     1       9.594   2.332  20.589  0.00  0.00    +0.142 HD
ATOM     19  H   UNL     1      10.002   3.088  22.036  0.00  0.00    +0.142 HD
ENDBRANCH   5  17
BRANCH   1  20
ATOM     20  S   UNL     1       9.044  -2.874  24.550  0.00  0.00    -0.049 S 
BRANCH  20  23
ATOM     21  C   UNL     1       7.467  -5.272  22.949  0.00  0.00    +0.151 C 
ATOM     22  N   UNL     1       6.808  -4.177  23.623  0.00  0.00    -0.328 N 
ATOM     23  C   UNL     1       7.337  -3.154  24.374  0.00  0.00    +0.173 A 
ATOM     24  N   UNL     1       6.380  -2.388  24.865  0.00  0.00    -0.230 NA
ATOM     25  C   UNL     1       5.209  -2.909  24.397  0.00  0.00    +0.131 A 
ATOM     26  C   UNL     1       5.444  -4.000  23.602  0.00  0.00    +0.107 A 
ENDBRANCH  20  23
ENDBRANCH   1  20
TORSDOF 4
ENDMDL
MODEL 3
REMARK VINA RESULT:      -6.4      3.709      5.765
REMARK  Name = 
REMARK  5 active torsions:
REMARK  status: ('A' for Active; 'I' for Inactive)
REMARK    1  A    between atoms: C_1  and  N_2
REMARK    2  A    between atoms: C_6  and  S_7
REMARK    3  A    between atoms: S_7  and  C_8
REMARK    4  A    between atoms: C_10  and  C_11
REMARK    5  A    between atoms: C_19  and  N_20
REMARK                            x       y       z     vdW  Elec       q    Type
REMARK                         _______ _______ _______ _____ _____    ______ ____
ROOT
ATOM      1  C   UNL     1       8.703   1.928  23.821  0.00  0.00    +0.052 A 
ATOM      2  C   UNL     1       9.800   2.006  22.951  0.00  0.00    +0.139 A 
ATOM      3  F   UNL     1      10.562   3.110  22.908  0.00  0.00    -0.204 F 
ATOM      4  C   UNL     1      10.153   0.947  22.118  0.00  0.00    +0.063 A 
ATOM      5  C   UNL     1       9.480  -0.271  22.201  0.00  0.00    +0.040 A 
ATOM      6  C   UNL     1       8.421  -0.413  23.135  0.00  0.00    +0.059 A 
ATOM      7  C   UNL     1       8.035   0.691  23.928  0.00  0.00    +0.033 A 
ENDROOT
BRANCH   6   8
ATOM      8  C   UNL     1       7.896  -1.802  23.383  0.00  0.00    +0.252 C 
ATOM      9  N   UNL     1       6.631  -2.118  22.940  0.00  0.00    -0.261 N 
ATOM     10  H   UNL     1       6.170  -1.551  22.241  0.00  0.00    +0.157 HD
ATOM     11  C   UNL     1       5.992  -3.312  23.208  0.00  0.00    +0.165 A 
ATOM     12  S   UNL     1       6.477  -4.345  24.490  0.00  0.00    -0.061 S 
ATOM     13  C   UNL     1       5.245  -5.452  24.072  0.00  0.00    +0.068 A 
ATOM     14  C   UNL     1       4.521  -4.946  23.016  0.00  0.00    +0.120 A 
ATOM     15  N   UNL     1       4.927  -3.705  22.547  0.00  0.00    -0.233 NA
ATOM     16  O   UNL     1       8.645  -2.582  23.973  0.00  0.00    -0.270 OA
ENDBRANCH   6   8
BRANCH   5  17
ATOM     17  N   UNL     1       9.730  -1.238  21.199  0.00  0.00    -0.357 N 
ATOM     18  H   UNL     1       8.966  -1.399  20.557  0.00  0.00    +0.142 HD
ATOM     19  H   UNL     1      10.601  -1.026  20.692  0.00  0.00    +0.142 HD
ENDBRANCH   5  17
BRANCH   1  20
ATOM     20  S   UNL     1       8.319   3.367  24.834  0.00  0.00    -0.049 S 
BRANCH  20  23
ATOM     21  C   UNL     1       9.922   6.144  24.116  0.00  0.00    +0.151 C 
ATOM     22  N   UNL     1       8.672   5.749  23.509  0.00  0.00    -0.328 N 
ATOM     23  C   UNL     1       7.935   4.599  23.669  0.00  0.00    +0.173 A 
ATOM     24  N   UNL     1       6.876   4.606  22.882  0.00  0.00    -0.230 NA
ATOM     25  C   UNL     1       6.911   5.799  22.220  0.00  0.00    +0.131 A 
ATOM     26  C   UNL     1       7.996   6.540  22.610  0.00  0.00    +0.107 A 
ENDBRANCH  20  23
ENDBRANCH   1  20
TORSDOF 4
ENDMDL
MODEL 4
REMARK VINA RESULT:      -6.3      3.678      5.949
REMARK  Name = 
REMARK  5 active torsions:
REMARK  status: ('A' for Active; 'I' for Inactive)
REMARK    1  A    between atoms: C_1  and  N_2
REMARK    2  A    between atoms: C_6  and  S_7
REMARK    3  A    between atoms: S_7  and  C_8
REMARK    4  A    between atoms: C_10  and  C_11
REMARK    5  A    between atoms: C_19  and  N_20
REMARK                            x       y       z     vdW  Elec       q    Type
REMARK                         _______ _______ _______ _____ _____    ______ ____
ROOT
ATOM      1  C   UNL     1       8.895   2.043  23.916  0.00  0.00    +0.052 A 
ATOM      2  C   UNL     1       9.971   1.949  23.021  0.00  0.00    +0.139 A 
ATOM      3  F   UNL     1      10.843   2.962  22.891  0.00  0.00    -0.204 F 
ATOM      4  C   UNL     1      10.188   0.809  22.251  0.00  0.00    +0.063 A 
ATOM      5  C   UNL     1       9.394  -0.323  22.426  0.00  0.00    +0.040 A 
ATOM      6  C   UNL     1       8.351  -0.293  23.389  0.00  0.00    +0.059 A 
ATOM      7  C   UNL     1       8.104   0.894  24.117  0.00  0.00    +0.033 A 
ENDROOT
BRANCH   6   8
ATOM      8  C   UNL     1       7.690  -1.599  23.737  0.00  0.00    +0.252 C 
ATOM      9  N   UNL     1       7.951  -2.164  24.966  0.00  0.00    -0.261 N 
ATOM     10  H   UNL     1       8.341  -1.612  25.717  0.00  0.00    +0.157 HD
ATOM     11  C   UNL     1       7.504  -3.411  25.357  0.00  0.00    +0.165 A 
ATOM     12  S   UNL     1       6.984  -4.594  24.227  0.00  0.00    -0.061 S 
ATOM     13  C   UNL     1       6.645  -5.674  25.507  0.00  0.00    +0.068 A 
ATOM     14  C   UNL     1       6.988  -5.082  26.702  0.00  0.00    +0.120 A 
ATOM     15  N   UNL     1       7.514  -3.802  26.610  0.00  0.00    -0.233 NA
ATOM     16  O   UNL     1       6.944  -2.088  22.887  0.00  0.00    -0.270 OA
ENDBRANCH   6   8
BRANCH   5  17
ATOM     17  N   UNL     1       9.513  -1.371  21.485  0.00  0.00    -0.357 N 
ATOM     18  H   UNL     1       9.723  -1.078  20.540  0.00  0.00    +0.142 HD
ATOM     19  H   UNL     1      10.185  -2.082  21.809  0.00  0.00    +0.142 HD
ENDBRANCH   5  17
BRANCH   1  20
ATOM     20  S   UNL     1       8.692   3.575  24.841  0.00  0.00    -0.049 S 
BRANCH  20  23
ATOM     21  C   UNL     1      10.051   6.358  23.741  0.00  0.00    +0.151 C 
ATOM     22  N   UNL     1       8.760   5.865  23.322  0.00  0.00    -0.328 N 
ATOM     23  C   UNL     1       8.108   4.699  23.651  0.00  0.00    +0.173 A 
ATOM     24  N   UNL     1       6.962   4.603  23.002  0.00  0.00    -0.230 NA
ATOM     25  C   UNL     1       6.856   5.744  22.261  0.00  0.00    +0.131 A 
ATOM     26  C   UNL     1       7.940   6.557  22.461  0.00  0.00    +0.107 A 
ENDBRANCH  20  23
ENDBRANCH   1  20
TORSDOF 4
ENDMDL
MODEL 5
REMARK VINA RESULT:      -6.2      4.329      8.550
REMARK  Name = 
REMARK  5 active torsions:
REMARK  status: ('A' for Active; 'I' for Inactive)
REMARK    1  A    between atoms: C_1  and  N_2
REMARK    2  A    between atoms: C_6  and  S_7
REMARK    3  A    between atoms: S_7  and  C_8
REMARK    4  A    between atoms: C_10  and  C_11
REMARK    5  A    between atoms: C_19  and  N_20
REMARK                            x       y       z     vdW  Elec       q    Type
REMARK                         _______ _______ _______ _____ _____    ______ ____
ROOT
ATOM      1  C   UNL     1       9.075  -0.716  24.369  0.00  0.00    +0.052 A 
ATOM      2  C   UNL     1       9.865  -1.000  23.247  0.00  0.00    +0.139 A 
ATOM      3  F   UNL     1      10.284  -2.252  23.003  0.00  0.00    -0.204 F 
ATOM      4  C   UNL     1      10.231  -0.011  22.337  0.00  0.00    +0.063 A 
ATOM      5  C   UNL     1       9.730   1.284  22.463  0.00  0.00    +0.040 A 
ATOM      6  C   UNL     1       8.855   1.584  23.539  0.00  0.00    +0.059 A 
ATOM      7  C   UNL     1       8.544   0.585  24.489  0.00  0.00    +0.033 A 
ENDROOT
BRANCH   6   8
ATOM      8  C   UNL     1       8.132   2.904  23.498  0.00  0.00    +0.252 C 
ATOM      9  N   UNL     1       6.798   2.915  23.154  0.00  0.00    -0.261 N 
ATOM     10  H   UNL     1       6.246   2.069  23.195  0.00  0.00    +0.157 HD
ATOM     11  C   UNL     1       6.056   4.063  22.965  0.00  0.00    +0.165 A 
ATOM     12  S   UNL     1       6.786   5.589  22.670  0.00  0.00    -0.061 S 
ATOM     13  C   UNL     1       5.242   6.318  22.588  0.00  0.00    +0.068 A 
ATOM     14  C   UNL     1       4.276   5.350  22.747  0.00  0.00    +0.120 A 
ATOM     15  N   UNL     1       4.743   4.056  22.925  0.00  0.00    -0.233 NA
ATOM     16  O   UNL     1       8.789   3.907  23.781  0.00  0.00    -0.270 OA
ENDBRANCH   6   8
BRANCH   5  17
ATOM     17  N   UNL     1      10.291   2.296  21.649  0.00  0.00    -0.357 N 
ATOM     18  H   UNL     1      11.087   2.009  21.095  0.00  0.00    +0.142 HD
ATOM     19  H   UNL     1       9.570   2.736  21.060  0.00  0.00    +0.142 HD
ENDBRANCH   5  17
BRANCH   1  20
ATOM     20  S   UNL     1       8.684  -2.066  25.496  0.00  0.00    -0.049 S 
BRANCH  20  23
ATOM     21  C   UNL     1       9.301  -5.275  25.147  0.00  0.00    +0.151 C 
ATOM     22  N   UNL     1       8.307  -4.553  24.387  0.00  0.00    -0.328 N 
ATOM     23  C   UNL     1       7.907  -3.240  24.476  0.00  0.00    +0.173 A 
ATOM     24  N   UNL     1       6.922  -2.992  23.634  0.00  0.00    -0.230 NA
ATOM     25  C   UNL     1       6.699  -4.160  22.964  0.00  0.00    +0.131 A 
ATOM     26  C   UNL     1       7.561  -5.137  23.390  0.00  0.00    +0.107 A 
ENDBRANCH  20  23
ENDBRANCH   1  20
TORSDOF 4
ENDMDL
MODEL 6
REMARK VINA RESULT:      -6.2      4.017      8.400
REMARK  Name = 
REMARK  5 active torsions:
REMARK  status: ('A' for Active; 'I' for Inactive)
REMARK    1  A    between atoms: C_1  and  N_2
REMARK    2  A    between atoms: C_6  and  S_7
REMARK    3  A    between atoms: S_7  and  C_8
REMARK    4  A    between atoms: C_10  and  C_11
REMARK    5  A    between atoms: C_19  and  N_20
REMARK                            x       y       z     vdW  Elec       q    Type
REMARK                         _______ _______ _______ _____ _____    ______ ____
ROOT
ATOM      1  C   UNL     1       8.892  -1.046  24.198  0.00  0.00    +0.052 A 
ATOM      2  C   UNL     1       9.904  -1.185  23.238  0.00  0.00    +0.139 A 
ATOM      3  F   UNL     1      10.582  -2.338  23.119  0.00  0.00    -0.204 F 
ATOM      4  C   UNL     1      10.233  -0.152  22.365  0.00  0.00    +0.063 A 
ATOM      5  C   UNL     1       9.488   1.027  22.351  0.00  0.00    +0.040 A 
ATOM      6  C   UNL     1       8.399   1.165  23.251  0.00  0.00    +0.059 A 
ATOM      7  C   UNL     1       8.118   0.132  24.173  0.00  0.00    +0.033 A 
ENDROOT
BRANCH   6   8
ATOM      8  C   UNL     1       7.463   2.323  23.034  0.00  0.00    +0.252 C 
ATOM      9  N   UNL     1       7.247   3.201  24.074  0.00  0.00    -0.261 N 
ATOM     10  H   UNL     1       7.884   3.242  24.857  0.00  0.00    +0.157 HD
ATOM     11  C   UNL     1       6.326   4.229  24.041  0.00  0.00    +0.165 A 
ATOM     12  S   UNL     1       5.027   4.262  22.920  0.00  0.00    -0.061 S 
ATOM     13  C   UNL     1       4.499   5.753  23.567  0.00  0.00    +0.068 A 
ATOM     14  C   UNL     1       5.317   6.105  24.617  0.00  0.00    +0.120 A 
ATOM     15  N   UNL     1       6.339   5.214  24.910  0.00  0.00    -0.233 NA
ATOM     16  O   UNL     1       6.944   2.417  21.920  0.00  0.00    -0.270 OA
ENDBRANCH   6   8
BRANCH   5  17
ATOM     17  N   UNL     1       9.985   2.119  21.604  0.00  0.00    -0.357 N 
ATOM     18  H   UNL     1       9.533   3.005  21.785  0.00  0.00    +0.142 HD
ATOM     19  H   UNL     1      11.008   2.198  21.703  0.00  0.00    +0.142 HD
ENDBRANCH   5  17
BRANCH   1  20
ATOM     20  S   UNL     1       8.566  -2.437  25.296  0.00  0.00    -0.049 S 
BRANCH  20  23
ATOM     21  C   UNL     1       5.482  -2.599  24.173  0.00  0.00    +0.151 C 
ATOM     22  N   UNL     1       6.496  -3.593  23.905  0.00  0.00    -0.328 N 
ATOM     23  C   UNL     1       7.826  -3.617  24.256  0.00  0.00    +0.173 A 
ATOM     24  N   UNL     1       8.423  -4.686  23.761  0.00  0.00    -0.230 NA
ATOM     25  C   UNL     1       7.452  -5.383  23.102  0.00  0.00    +0.131 A 
ATOM     26  C   UNL     1       6.243  -4.746  23.199  0.00  0.00    +0.107 A 
ENDBRANCH  20  23
ENDBRANCH   1  20
TORSDOF 4
ENDMDL
MODEL 7
REMARK VINA RESULT:      -6.1      2.076      2.185
REMARK  Name = 
REMARK  5 active torsions:
REMARK  status: ('A' for Active; 'I' for Inactive)
REMARK    1  A    between atoms: C_1  and  N_2
REMARK    2  A    between atoms: C_6  and  S_7
REMARK    3  A    between atoms: S_7  and  C_8
REMARK    4  A    between atoms: C_10  and  C_11
REMARK    5  A    between atoms: C_19  and  N_20
REMARK                            x       y       z     vdW  Elec       q    Type
REMARK                         _______ _______ _______ _____ _____    ______ ____
ROOT
ATOM      1  C   UNL     1       7.702  -3.738  24.244  0.00  0.00    +0.052 A 
ATOM      2  C   UNL     1       7.947  -3.743  25.625  0.00  0.00    +0.139 A 
ATOM      3  F   UNL     1       8.802  -2.864  26.172  0.00  0.00    -0.204 F 
ATOM      4  C   UNL     1       7.308  -4.638  26.480  0.00  0.00    +0.063 A 
ATOM      5  C   UNL     1       6.319  -5.493  25.997  0.00  0.00    +0.040 A 
ATOM      6  C   UNL     1       5.983  -5.451  24.618  0.00  0.00    +0.059 A 
ATOM      7  C   UNL     1       6.685  -4.582  23.753  0.00  0.00    +0.033 A 
ENDROOT
BRANCH   6   8
ATOM      8  C   UNL     1       4.746  -6.189  24.183  0.00  0.00    +0.252 C 
ATOM      9  N   UNL     1       3.682  -5.463  23.694  0.00  0.00    -0.261 N 
ATOM     10  H   UNL     1       3.808  -4.512  23.374  0.00  0.00    +0.157 HD
ATOM     11  C   UNL     1       2.454  -6.007  23.375  0.00  0.00    +0.165 A 
ATOM     12  S   UNL     1       1.941  -7.531  23.977  0.00  0.00    -0.061 S 
ATOM     13  C   UNL     1       0.469  -7.378  23.124  0.00  0.00    +0.068 A 
ATOM     14  C   UNL     1       0.446  -6.164  22.475  0.00  0.00    +0.120 A 
ATOM     15  N   UNL     1       1.567  -5.367  22.649  0.00  0.00    -0.233 NA
ATOM     16  O   UNL     1       4.763  -7.416  24.293  0.00  0.00    -0.270 OA
ENDBRANCH   6   8
BRANCH   5  17
ATOM     17  N   UNL     1       5.854  -6.520  26.850  0.00  0.00    -0.357 N 
ATOM     18  H   UNL     1       6.034  -6.375  27.835  0.00  0.00    +0.142 HD
ATOM     19  H   UNL     1       4.856  -6.716  26.681  0.00  0.00    +0.142 HD
ENDBRANCH   5  17
BRANCH   1  20
ATOM     20  S   UNL     1       8.604  -2.556  23.227  0.00  0.00    -0.049 S 
BRANCH  20  23
ATOM     21  C   UNL     1       9.947  -0.048  24.871  0.00  0.00    +0.151 C 
ATOM     22  N   UNL     1       8.578  -0.076  24.412  0.00  0.00    -0.328 N 
ATOM     23  C   UNL     1       7.913  -1.023  23.668  0.00  0.00    +0.173 A 
ATOM     24  N   UNL     1       6.677  -0.637  23.413  0.00  0.00    -0.230 NA
ATOM     25  C   UNL     1       6.528   0.571  24.030  0.00  0.00    +0.131 A 
ATOM     26  C   UNL     1       7.679   0.930  24.681  0.00  0.00    +0.107 A 
ENDBRANCH  20  23
ENDBRANCH   1  20
TORSDOF 4
ENDMDL
MODEL 8
REMARK VINA RESULT:      -6.1      4.472      8.836
REMARK  Name = 
REMARK  5 active torsions:
REMARK  status: ('A' for Active; 'I' for Inactive)
REMARK    1  A    between atoms: C_1  and  N_2
REMARK    2  A    between atoms: C_6  and  S_7
REMARK    3  A    between atoms: S_7  and  C_8
REMARK    4  A    between atoms: C_10  and  C_11
REMARK    5  A    between atoms: C_19  and  N_20
REMARK                            x       y       z     vdW  Elec       q    Type
REMARK                         _______ _______ _______ _____ _____    ______ ____
ROOT
ATOM      1  C   UNL     1       7.613  -0.864  22.889  0.00  0.00    +0.052 A 
ATOM      2  C   UNL     1       8.684  -1.078  22.010  0.00  0.00    +0.139 A 
ATOM      3  F   UNL     1       8.923  -2.300  21.507  0.00  0.00    -0.204 F 
ATOM      4  C   UNL     1       9.524  -0.042  21.611  0.00  0.00    +0.063 A 
ATOM      5  C   UNL     1       9.260   1.271  21.998  0.00  0.00    +0.040 A 
ATOM      6  C   UNL     1       8.130   1.536  22.816  0.00  0.00    +0.059 A 
ATOM      7  C   UNL     1       7.324   0.464  23.263  0.00  0.00    +0.033 A 
ENDROOT
BRANCH   6   8
ATOM      8  C   UNL     1       7.725   2.974  22.995  0.00  0.00    +0.252 C 
ATOM      9  N   UNL     1       6.437   3.342  22.675  0.00  0.00    -0.261 N 
ATOM     10  H   UNL     1       5.707   2.648  22.587  0.00  0.00    +0.157 HD
ATOM     11  C   UNL     1       5.979   4.644  22.682  0.00  0.00    +0.165 A 
ATOM     12  S   UNL     1       7.042   5.991  22.626  0.00  0.00    -0.061 S 
ATOM     13  C   UNL     1       5.705   7.055  22.683  0.00  0.00    +0.068 A 
ATOM     14  C   UNL     1       4.542   6.319  22.697  0.00  0.00    +0.120 A 
ATOM     15  N   UNL     1       4.700   4.941  22.659  0.00  0.00    -0.233 NA
ATOM     16  O   UNL     1       8.585   3.743  23.427  0.00  0.00    -0.270 OA
ENDBRANCH   6   8
BRANCH   5  17
ATOM     17  N   UNL     1      10.249   2.250  21.748  0.00  0.00    -0.357 N 
ATOM     18  H   UNL     1      11.132   1.892  21.411  0.00  0.00    +0.142 HD
ATOM     19  H   UNL     1       9.888   2.989  21.126  0.00  0.00    +0.142 HD
ENDBRANCH   5  17
BRANCH   1  20
ATOM     20  S   UNL     1       6.605  -2.281  23.361  0.00  0.00    -0.049 S 
BRANCH  20  23
ATOM     21  C   UNL     1       7.005  -1.869  26.597  0.00  0.00    +0.151 C 
ATOM     22  N   UNL     1       7.731  -2.836  25.807  0.00  0.00    -0.328 N 
ATOM     23  C   UNL     1       7.618  -3.152  24.473  0.00  0.00    +0.173 A 
ATOM     24  N   UNL     1       8.432  -4.142  24.155  0.00  0.00    -0.230 NA
ATOM     25  C   UNL     1       9.108  -4.451  25.299  0.00  0.00    +0.131 A 
ATOM     26  C   UNL     1       8.716  -3.640  26.331  0.00  0.00    +0.107 A 
ENDBRANCH  20  23
ENDBRANCH   1  20
TORSDOF 4
ENDMDL
MODEL 9
REMARK VINA RESULT:      -6.1      3.447      8.200
REMARK  Name = 
REMARK  5 active torsions:
REMARK  status: ('A' for Active; 'I' for Inactive)
REMARK    1  A    between atoms: C_1  and  N_2
REMARK    2  A    between atoms: C_6  and  S_7
REMARK    3  A    between atoms: S_7  and  C_8
REMARK    4  A    between atoms: C_10  and  C_11
REMARK    5  A    between atoms: C_19  and  N_20
REMARK                            x       y       z     vdW  Elec       q    Type
REMARK                         _______ _______ _______ _____ _____    ______ ____
ROOT
ATOM      1  C   UNL     1       8.290  -3.347  25.075  0.00  0.00    +0.052 A 
ATOM      2  C   UNL     1       7.874  -3.800  23.815  0.00  0.00    +0.139 A 
ATOM      3  F   UNL     1       7.131  -4.913  23.699  0.00  0.00    -0.204 F 
ATOM      4  C   UNL     1       8.192  -3.114  22.646  0.00  0.00    +0.063 A 
ATOM      5  C   UNL     1       8.854  -1.888  22.704  0.00  0.00    +0.040 A 
ATOM      6  C   UNL     1       9.211  -1.356  23.971  0.00  0.00    +0.059 A 
ATOM      7  C   UNL     1       8.936  -2.096  25.143  0.00  0.00    +0.033 A 
ENDROOT
BRANCH   6   8
ATOM      8  C   UNL     1       9.681   0.073  24.015  0.00  0.00    +0.252 C 
ATOM      9  N   UNL     1       8.781   1.053  24.373  0.00  0.00    -0.261 N 
ATOM     10  H   UNL     1       7.923   0.818  24.852  0.00  0.00    +0.157 HD
ATOM     11  C   UNL     1       9.054   2.406  24.337  0.00  0.00    +0.165 A 
ATOM     12  S   UNL     1      10.347   3.057  23.414  0.00  0.00    -0.061 S 
ATOM     13  C   UNL     1       9.944   4.629  23.948  0.00  0.00    +0.068 A 
ATOM     14  C   UNL     1       8.830   4.561  24.755  0.00  0.00    +0.120 A 
ATOM     15  N   UNL     1       8.301   3.293  24.946  0.00  0.00    -0.233 NA
ATOM     16  O   UNL     1      10.861   0.279  23.727  0.00  0.00    -0.270 OA
ENDBRANCH   6   8
BRANCH   5  17
ATOM     17  N   UNL     1       9.339  -1.336  21.496  0.00  0.00    -0.357 N 
ATOM     18  H   UNL     1       9.701  -0.394  21.568  0.00  0.00    +0.142 HD
ATOM     19  H   UNL     1      10.027  -1.963  21.055  0.00  0.00    +0.142 HD
ENDBRANCH   5  17
BRANCH   1  20
ATOM     20  S   UNL     1       7.845  -4.327  26.519  0.00  0.00    -0.049 S 
BRANCH  20  23
ATOM     21  C   UNL     1       5.284  -6.368  26.246  0.00  0.00    +0.151 C 
ATOM     22  N   UNL     1       5.169  -4.955  26.524  0.00  0.00    -0.328 N 
ATOM     23  C   UNL     1       6.148  -4.010  26.724  0.00  0.00    +0.173 A 
ATOM     24  N   UNL     1       5.616  -2.836  27.010  0.00  0.00    -0.230 NA
ATOM     25  C   UNL     1       4.265  -3.018  26.965  0.00  0.00    +0.131 A 
ATOM     26  C   UNL     1       3.958  -4.313  26.637  0.00  0.00    +0.107 A 
ENDBRANCH  20  23
ENDBRANCH   1  20
TORSDOF 4
ENDMDL
