MODEL 1
REMARK VINA RESULT:      -6.4      0.000      0.000
REMARK  Name = 
REMARK  2 active torsions:
REMARK  status: ('A' for Active; 'I' for Inactive)
REMARK    1  A    between atoms: C_3  and  N_4
REMARK    2  A    between atoms: C_7  and  C_11
REMARK                            x       y       z     vdW  Elec       q    Type
REMARK                         _______ _______ _______ _____ _____    ______ ____
ROOT
ATOM      1  N   UNL     1       6.582  -5.541  23.631  0.00  0.00    -0.311 N 
ATOM      2  H   UNL     1       6.574  -6.493  23.986  0.00  0.00    +0.149 HD
ATOM      3  C   UNL     1       7.236  -4.790  24.614  0.00  0.00    +0.216 A 
ATOM      4  N   UNL     1       7.431  -5.421  25.781  0.00  0.00    -0.223 NA
ATOM      5  C   UNL     1       8.162  -4.776  26.704  0.00  0.00    +0.116 A 
ATOM      6  C   UNL     1       8.688  -3.526  26.509  0.00  0.00    +0.048 A 
ATOM      7  C   UNL     1       8.380  -2.926  25.308  0.00  0.00    +0.080 A 
ATOM      8  N   UNL     1       7.683  -3.554  24.343  0.00  0.00    -0.214 NA
ENDROOT
BRANCH   7   9
ATOM      9  C   UNL     1       8.809  -1.576  24.991  0.00  0.00    +0.047 A 
ATOM     10  C   UNL     1       9.070  -0.496  25.867  0.00  0.00    +0.147 A 
ATOM     11  N   UNL     1       9.438   0.617  25.230  0.00  0.00    -0.156 NA
ATOM     12  N   UNL     1       9.462   0.258  23.938  0.00  0.00    -0.150 N 
ATOM     13  N   UNL     1       9.793   1.170  22.996  0.00  0.00    -0.157 NA
ATOM     14  C   UNL     1       9.786   0.685  21.799  0.00  0.00    +0.135 A 
ATOM     15  C   UNL     1       9.472  -0.710  21.420  0.00  0.00    +0.024 A 
ATOM     16  C   UNL     1       9.161  -1.555  22.410  0.00  0.00    +0.032 A 
ATOM     17  C   UNL     1       9.113  -1.067  23.739  0.00  0.00    +0.097 A 
ENDBRANCH   7   9
BRANCH   1  19
ATOM     18  C   UNL     1       6.153  -4.407  21.362  0.00  0.00    +0.024 C 
ATOM     19  C   UNL     1       6.957  -5.322  22.238  0.00  0.00    +0.073 C 
ATOM     20  C   UNL     1       6.122  -5.889  21.125  0.00  0.00    +0.024 C 
ENDBRANCH   1  19
TORSDOF 2
ENDMDL
MODEL 2
REMARK VINA RESULT:      -6.4      1.718      2.347
REMARK  Name = 
REMARK  2 active torsions:
REMARK  status: ('A' for Active; 'I' for Inactive)
REMARK    1  A    between atoms: C_3  and  N_4
REMARK    2  A    between atoms: C_7  and  C_11
REMARK                            x       y       z     vdW  Elec       q    Type
REMARK                         _______ _______ _______ _____ _____    ______ ____
ROOT
ATOM      1  N   UNL     1       5.943  -5.378  24.774  0.00  0.00    -0.311 N 
ATOM      2  H   UNL     1       6.047  -6.272  25.245  0.00  0.00    +0.149 HD
ATOM      3  C   UNL     1       7.215  -4.796  24.808  0.00  0.00    +0.216 A 
ATOM      4  N   UNL     1       8.100  -5.400  25.614  0.00  0.00    -0.223 NA
ATOM      5  C   UNL     1       9.362  -4.944  25.579  0.00  0.00    +0.116 A 
ATOM      6  C   UNL     1       9.765  -3.902  24.786  0.00  0.00    +0.048 A 
ATOM      7  C   UNL     1       8.775  -3.297  24.043  0.00  0.00    +0.080 A 
ATOM      8  N   UNL     1       7.507  -3.748  24.022  0.00  0.00    -0.214 NA
ENDROOT
BRANCH   7   9
ATOM      9  C   UNL     1       9.039  -2.137  23.210  0.00  0.00    +0.047 A 
ATOM     10  C   UNL     1       8.811  -1.965  21.825  0.00  0.00    +0.147 A 
ATOM     11  N   UNL     1       9.186  -0.764  21.378  0.00  0.00    -0.156 NA
ATOM     12  N   UNL     1       9.619  -0.131  22.478  0.00  0.00    -0.150 N 
ATOM     13  N   UNL     1      10.091   1.133  22.380  0.00  0.00    -0.157 NA
ATOM     14  C   UNL     1      10.463   1.622  23.516  0.00  0.00    +0.135 A 
ATOM     15  C   UNL     1      10.401   0.941  24.828  0.00  0.00    +0.024 A 
ATOM     16  C   UNL     1       9.915  -0.306  24.843  0.00  0.00    +0.032 A 
ATOM     17  C   UNL     1       9.529  -0.908  23.620  0.00  0.00    +0.097 A 
ENDBRANCH   7   9
BRANCH   1  19
ATOM     18  C   UNL     1       3.936  -4.546  23.396  0.00  0.00    +0.024 C 
ATOM     19  C   UNL     1       5.205  -5.339  23.516  0.00  0.00    +0.073 C 
ATOM     20  C   UNL     1       3.887  -6.047  23.383  0.00  0.00    +0.024 C 
ENDBRANCH   1  19
TORSDOF 2
ENDMDL
MODEL 3
REMARK VINA RESULT:      -6.3      1.487      5.436
REMARK  Name = 
REMARK  2 active torsions:
REMARK  status: ('A' for Active; 'I' for Inactive)
REMARK    1  A    between atoms: C_3  and  N_4
REMARK    2  A    between atoms: C_7  and  C_11
REMARK                            x       y       z     vdW  Elec       q    Type
REMARK                         _______ _______ _______ _____ _____    ______ ____
ROOT
ATOM      1  N   UNL     1      10.020   0.677  24.128  0.00  0.00    -0.311 N 
ATOM      2  H   UNL     1       9.838   1.507  24.686  0.00  0.00    +0.149 HD
ATOM      3  C   UNL     1       9.455  -0.380  24.851  0.00  0.00    +0.216 A 
ATOM      4  N   UNL     1       9.087  -0.084  26.105  0.00  0.00    -0.223 NA
ATOM      5  C   UNL     1       8.432  -1.038  26.785  0.00  0.00    +0.116 A 
ATOM      6  C   UNL     1       8.148  -2.274  26.266  0.00  0.00    +0.048 A 
ATOM      7  C   UNL     1       8.625  -2.514  24.996  0.00  0.00    +0.080 A 
ATOM      8  N   UNL     1       9.252  -1.572  24.268  0.00  0.00    -0.214 NA
ENDROOT
BRANCH   7   9
ATOM      9  C   UNL     1       8.462  -3.801  24.345  0.00  0.00    +0.047 A 
ATOM     10  C   UNL     1       9.062  -5.042  24.663  0.00  0.00    +0.147 A 
ATOM     11  N   UNL     1       8.694  -6.027  23.841  0.00  0.00    -0.156 NA
ATOM     12  N   UNL     1       7.817  -5.445  23.010  0.00  0.00    -0.150 N 
ATOM     13  N   UNL     1       7.245  -6.173  22.024  0.00  0.00    -0.157 NA
ATOM     14  C   UNL     1       6.416  -5.488  21.308  0.00  0.00    +0.135 A 
ATOM     15  C   UNL     1       6.068  -4.062  21.491  0.00  0.00    +0.024 A 
ATOM     16  C   UNL     1       6.672  -3.412  22.493  0.00  0.00    +0.032 A 
ATOM     17  C   UNL     1       7.621  -4.102  23.286  0.00  0.00    +0.097 A 
ENDBRANCH   7   9
BRANCH   1  19
ATOM     18  C   UNL     1      10.193   1.933  21.890  0.00  0.00    +0.024 C 
ATOM     19  C   UNL     1       9.767   0.738  22.693  0.00  0.00    +0.073 C 
ATOM     20  C   UNL     1       8.734   1.679  22.139  0.00  0.00    +0.024 C 
ENDBRANCH   1  19
TORSDOF 2
ENDMDL
MODEL 4
REMARK VINA RESULT:      -6.3      2.972      7.447
REMARK  Name = 
REMARK  2 active torsions:
REMARK  status: ('A' for Active; 'I' for Inactive)
REMARK    1  A    between atoms: C_3  and  N_4
REMARK    2  A    between atoms: C_7  and  C_11
REMARK                            x       y       z     vdW  Elec       q    Type
REMARK                         _______ _______ _______ _____ _____    ______ ____
ROOT
ATOM      1  N   UNL     1      10.070   4.747  23.702  0.00  0.00    -0.311 N 
ATOM      2  H   UNL     1       9.648   5.610  23.373  0.00  0.00    +0.149 HD
ATOM      3  C   UNL     1       9.223   3.729  23.249  0.00  0.00    +0.216 A 
ATOM      4  N   UNL     1       8.041   4.139  22.768  0.00  0.00    -0.223 NA
ATOM      5  C   UNL     1       7.254   3.204  22.213  0.00  0.00    +0.116 A 
ATOM      6  C   UNL     1       7.597   1.880  22.138  0.00  0.00    +0.048 A 
ATOM      7  C   UNL     1       8.799   1.537  22.719  0.00  0.00    +0.080 A 
ATOM      8  N   UNL     1       9.632   2.451  23.250  0.00  0.00    -0.214 NA
ENDROOT
BRANCH   7   9
ATOM      9  C   UNL     1       9.259   0.162  22.777  0.00  0.00    +0.047 A 
ATOM     10  C   UNL     1      10.078  -0.543  21.863  0.00  0.00    +0.147 A 
ATOM     11  N   UNL     1      10.296  -1.808  22.225  0.00  0.00    -0.156 NA
ATOM     12  N   UNL     1       9.660  -1.924  23.400  0.00  0.00    -0.150 N 
ATOM     13  N   UNL     1       9.671  -3.108  24.053  0.00  0.00    -0.157 NA
ATOM     14  C   UNL     1       9.029  -3.072  25.173  0.00  0.00    +0.135 A 
ATOM     15  C   UNL     1       8.340  -1.898  25.753  0.00  0.00    +0.024 A 
ATOM     16  C   UNL     1       8.379  -0.761  25.048  0.00  0.00    +0.032 A 
ATOM     17  C   UNL     1       9.035  -0.752  23.793  0.00  0.00    +0.097 A 
ENDBRANCH   7   9
BRANCH   1  19
ATOM     18  C   UNL     1      12.467   5.652  23.927  0.00  0.00    +0.024 C 
ATOM     19  C   UNL     1      11.508   4.568  23.530  0.00  0.00    +0.073 C 
ATOM     20  C   UNL     1      12.251   5.338  22.475  0.00  0.00    +0.024 C 
ENDBRANCH   1  19
TORSDOF 2
ENDMDL
MODEL 5
REMARK VINA RESULT:      -6.3      2.177      6.465
REMARK  Name = 
REMARK  2 active torsions:
REMARK  status: ('A' for Active; 'I' for Inactive)
REMARK    1  A    between atoms: C_3  and  N_4
REMARK    2  A    between atoms: C_7  and  C_11
REMARK                            x       y       z     vdW  Elec       q    Type
REMARK                         _______ _______ _______ _____ _____    ______ ____
ROOT
ATOM      1  N   UNL     1       8.841  -1.109  23.261  0.00  0.00    -0.311 N 
ATOM      2  H   UNL     1       9.044  -0.927  22.282  0.00  0.00    +0.149 HD
ATOM      3  C   UNL     1       8.138  -2.319  23.269  0.00  0.00    +0.216 A 
ATOM      4  N   UNL     1       7.724  -2.750  22.068  0.00  0.00    -0.223 NA
ATOM      5  C   UNL     1       7.155  -3.964  22.023  0.00  0.00    +0.116 A 
ATOM      6  C   UNL     1       6.970  -4.752  23.128  0.00  0.00    +0.048 A 
ATOM      7  C   UNL     1       7.363  -4.201  24.329  0.00  0.00    +0.080 A 
ATOM      8  N   UNL     1       7.971  -3.004  24.411  0.00  0.00    -0.214 NA
ENDROOT
BRANCH   7   9
ATOM      9  C   UNL     1       7.164  -4.890  25.591  0.00  0.00    +0.047 A 
ATOM     10  C   UNL     1       8.062  -5.039  26.675  0.00  0.00    +0.147 A 
ATOM     11  N   UNL     1       7.552  -5.749  27.683  0.00  0.00    -0.156 NA
ATOM     12  N   UNL     1       6.302  -6.029  27.282  0.00  0.00    -0.150 N 
ATOM     13  N   UNL     1       5.492  -6.761  28.080  0.00  0.00    -0.157 NA
ATOM     14  C   UNL     1       4.318  -6.944  27.574  0.00  0.00    +0.135 A 
ATOM     15  C   UNL     1       3.832  -6.431  26.274  0.00  0.00    +0.024 A 
ATOM     16  C   UNL     1       4.693  -5.710  25.545  0.00  0.00    +0.032 A 
ATOM     17  C   UNL     1       6.007  -5.511  26.032  0.00  0.00    +0.097 A 
ENDBRANCH   7   9
BRANCH   1  19
ATOM     18  C   UNL     1       9.724  -0.035  25.425  0.00  0.00    +0.024 C 
ATOM     19  C   UNL     1       9.911  -0.932  24.236  0.00  0.00    +0.073 C 
ATOM     20  C   UNL     1      10.658   0.369  24.321  0.00  0.00    +0.024 C 
ENDBRANCH   1  19
TORSDOF 2
ENDMDL
MODEL 6
REMARK VINA RESULT:      -6.2      2.601      6.098
REMARK  Name = 
REMARK  2 active torsions:
REMARK  status: ('A' for Active; 'I' for Inactive)
REMARK    1  A    between atoms: C_3  and  N_4
REMARK    2  A    between atoms: C_7  and  C_11
REMARK                            x       y       z     vdW  Elec       q    Type
REMARK                         _______ _______ _______ _____ _____    ______ ____
ROOT
ATOM      1  N   UNL     1       5.994   2.001  22.972  0.00  0.00    -0.311 N 
ATOM      2  H   UNL     1       6.208   2.950  22.678  0.00  0.00    +0.149 HD
ATOM      3  C   UNL     1       7.073   1.228  22.528  0.00  0.00    +0.216 A 
ATOM      4  N   UNL     1       7.906   1.844  21.678  0.00  0.00    -0.223 NA
ATOM      5  C   UNL     1       9.016   1.176  21.327  0.00  0.00    +0.116 A 
ATOM      6  C   UNL     1       9.313  -0.082  21.780  0.00  0.00    +0.048 A 
ATOM      7  C   UNL     1       8.367  -0.664  22.596  0.00  0.00    +0.080 A 
ATOM      8  N   UNL     1       7.261  -0.014  23.000  0.00  0.00    -0.214 NA
ENDROOT
BRANCH   7   9
ATOM      9  C   UNL     1       8.513  -2.020  23.094  0.00  0.00    +0.047 A 
ATOM     10  C   UNL     1       9.444  -2.530  24.030  0.00  0.00    +0.147 A 
ATOM     11  N   UNL     1       9.300  -3.838  24.252  0.00  0.00    -0.156 NA
ATOM     12  N   UNL     1       8.245  -4.180  23.498  0.00  0.00    -0.150 N 
ATOM     13  N   UNL     1       7.824  -5.465  23.480  0.00  0.00    -0.157 NA
ATOM     14  C   UNL     1       6.796  -5.648  22.721  0.00  0.00    +0.135 A 
ATOM     15  C   UNL     1       6.090  -4.613  21.934  0.00  0.00    +0.024 A 
ATOM     16  C   UNL     1       6.563  -3.364  22.009  0.00  0.00    +0.032 A 
ATOM     17  C   UNL     1       7.714  -3.111  22.795  0.00  0.00    +0.097 A 
ENDBRANCH   7   9
BRANCH   1  19
ATOM     18  C   UNL     1       4.400   2.627  24.892  0.00  0.00    +0.024 C 
ATOM     19  C   UNL     1       5.512   1.788  24.333  0.00  0.00    +0.073 C 
ATOM     20  C   UNL     1       5.799   2.796  25.410  0.00  0.00    +0.024 C 
ENDBRANCH   1  19
TORSDOF 2
ENDMDL
MODEL 7
REMARK VINA RESULT:      -6.2      2.766      4.827
REMARK  Name = 
REMARK  2 active torsions:
REMARK  status: ('A' for Active; 'I' for Inactive)
REMARK    1  A    between atoms: C_3  and  N_4
REMARK    2  A    between atoms: C_7  and  C_11
REMARK                            x       y       z     vdW  Elec       q    Type
REMARK                         _______ _______ _______ _____ _____    ______ ____
ROOT
ATOM      1  N   UNL     1       4.654  -7.030  27.697  0.00  0.00    -0.311 N 
ATOM      2  H   UNL     1       3.680  -7.306  27.611  0.00  0.00    +0.149 HD
ATOM      3  C   UNL     1       5.054  -6.691  26.400  0.00  0.00    +0.216 A 
ATOM      4  N   UNL     1       4.199  -7.040  25.428  0.00  0.00    -0.223 NA
ATOM      5  C   UNL     1       4.491  -6.623  24.185  0.00  0.00    +0.116 A 
ATOM      6  C   UNL     1       5.608  -5.890  23.880  0.00  0.00    +0.048 A 
ATOM      7  C   UNL     1       6.464  -5.637  24.929  0.00  0.00    +0.080 A 
ATOM      8  N   UNL     1       6.188  -6.005  26.194  0.00  0.00    -0.214 NA
ENDROOT
BRANCH   7   9
ATOM      9  C   UNL     1       7.720  -4.933  24.743  0.00  0.00    +0.047 A 
ATOM     10  C   UNL     1       9.036  -5.367  25.031  0.00  0.00    +0.147 A 
ATOM     11  N   UNL     1       9.963  -4.452  24.744  0.00  0.00    -0.156 NA
ATOM     12  N   UNL     1       9.263  -3.433  24.223  0.00  0.00    -0.150 N 
ATOM     13  N   UNL     1       9.907  -2.312  23.826  0.00  0.00    -0.157 NA
ATOM     14  C   UNL     1       9.112  -1.421  23.337  0.00  0.00    +0.135 A 
ATOM     15  C   UNL     1       7.645  -1.541  23.183  0.00  0.00    +0.024 A 
ATOM     16  C   UNL     1       7.083  -2.684  23.595  0.00  0.00    +0.032 A 
ATOM     17  C   UNL     1       7.902  -3.682  24.177  0.00  0.00    +0.097 A 
ENDBRANCH   7   9
BRANCH   1  19
ATOM     18  C   UNL     1       6.055  -6.545  29.799  0.00  0.00    +0.024 C 
ATOM     19  C   UNL     1       5.027  -6.133  28.786  0.00  0.00    +0.073 C 
ATOM     20  C   UNL     1       4.612  -6.434  30.198  0.00  0.00    +0.024 C 
ENDBRANCH   1  19
TORSDOF 2
ENDMDL
MODEL 8
REMARK VINA RESULT:      -6.1      2.724      4.575
REMARK  Name = 
REMARK  2 active torsions:
REMARK  status: ('A' for Active; 'I' for Inactive)
REMARK    1  A    between atoms: C_3  and  N_4
REMARK    2  A    between atoms: C_7  and  C_11
REMARK                            x       y       z     vdW  Elec       q    Type
REMARK                         _______ _______ _______ _____ _____    ______ ____
ROOT
ATOM      1  N   UNL     1       9.759  -3.240  24.297  0.00  0.00    -0.311 N 
ATOM      2  H   UNL     1       9.904  -3.893  23.531  0.00  0.00    +0.149 HD
ATOM      3  C   UNL     1       9.693  -1.979  23.694  0.00  0.00    +0.216 A 
ATOM      4  N   UNL     1      10.067  -1.939  22.407  0.00  0.00    -0.223 NA
ATOM      5  C   UNL     1       9.900  -0.773  21.764  0.00  0.00    +0.116 A 
ATOM      6  C   UNL     1       9.393   0.351  22.361  0.00  0.00    +0.048 A 
ATOM      7  C   UNL     1       9.100   0.237  23.702  0.00  0.00    +0.080 A 
ATOM      8  N   UNL     1       9.217  -0.924  24.373  0.00  0.00    -0.214 NA
ENDROOT
BRANCH   7   9
ATOM      9  C   UNL     1       8.621   1.364  24.483  0.00  0.00    +0.047 A 
ATOM     10  C   UNL     1       7.670   1.383  25.530  0.00  0.00    +0.147 A 
ATOM     11  N   UNL     1       7.457   2.604  26.022  0.00  0.00    -0.156 NA
ATOM     12  N   UNL     1       8.301   3.384  25.329  0.00  0.00    -0.150 N 
ATOM     13  N   UNL     1       8.337   4.714  25.575  0.00  0.00    -0.157 NA
ATOM     14  C   UNL     1       9.201   5.337  24.845  0.00  0.00    +0.135 A 
ATOM     15  C   UNL     1      10.099   4.732  23.836  0.00  0.00    +0.024 A 
ATOM     16  C   UNL     1      10.007   3.409  23.656  0.00  0.00    +0.032 A 
ATOM     17  C   UNL     1       9.048   2.679  24.401  0.00  0.00    +0.097 A 
ENDBRANCH   7   9
BRANCH   1  19
ATOM     18  C   UNL     1       9.074  -4.551  26.401  0.00  0.00    +0.024 C 
ATOM     19  C   UNL     1       8.763  -3.569  25.310  0.00  0.00    +0.073 C 
ATOM     20  C   UNL     1       8.100  -4.918  25.319  0.00  0.00    +0.024 C 
ENDBRANCH   1  19
TORSDOF 2
ENDMDL
MODEL 9
REMARK VINA RESULT:      -6.0      1.874      2.448
REMARK  Name = 
REMARK  2 active torsions:
REMARK  status: ('A' for Active; 'I' for Inactive)
REMARK    1  A    between atoms: C_3  and  N_4
REMARK    2  A    between atoms: C_7  and  C_11
REMARK                            x       y       z     vdW  Elec       q    Type
REMARK                         _______ _______ _______ _____ _____    ______ ____
ROOT
ATOM      1  N   UNL     1       6.930  -4.907  23.946  0.00  0.00    -0.311 N 
ATOM      2  H   UNL     1       7.033  -5.601  24.681  0.00  0.00    +0.149 HD
ATOM      3  C   UNL     1       7.489  -3.735  24.468  0.00  0.00    +0.216 A 
ATOM      4  N   UNL     1       7.755  -3.763  25.782  0.00  0.00    -0.223 NA
ATOM      5  C   UNL     1       8.403  -2.704  26.291  0.00  0.00    +0.116 A 
ATOM      6  C   UNL     1       8.778  -1.619  25.544  0.00  0.00    +0.048 A 
ATOM      7  C   UNL     1       8.403  -1.646  24.218  0.00  0.00    +0.080 A 
ATOM      8  N   UNL     1       7.787  -2.705  23.662  0.00  0.00    -0.214 NA
ENDROOT
BRANCH   7   9
ATOM      9  C   UNL     1       8.670  -0.536  23.321  0.00  0.00    +0.047 A 
ATOM     10  C   UNL     1       9.765  -0.341  22.447  0.00  0.00    +0.147 A 
ATOM     11  N   UNL     1       9.697   0.808  21.772  0.00  0.00    -0.156 NA
ATOM     12  N   UNL     1       8.535   1.348  22.168  0.00  0.00    -0.150 N 
ATOM     13  N   UNL     1       8.152   2.548  21.674  0.00  0.00    -0.157 NA
ATOM     14  C   UNL     1       7.011   2.941  22.133  0.00  0.00    +0.135 A 
ATOM     15  C   UNL     1       6.150   2.210  23.089  0.00  0.00    +0.024 A 
ATOM     16  C   UNL     1       6.596   1.026  23.527  0.00  0.00    +0.032 A 
ATOM     17  C   UNL     1       7.860   0.564  23.088  0.00  0.00    +0.097 A 
ENDBRANCH   7   9
BRANCH   1  19
ATOM     18  C   UNL     1       6.306  -5.083  21.457  0.00  0.00    +0.024 C 
ATOM     19  C   UNL     1       7.280  -5.285  22.581  0.00  0.00    +0.073 C 
ATOM     20  C   UNL     1       6.629  -6.472  21.928  0.00  0.00    +0.024 C 
ENDBRANCH   1  19
TORSDOF 2
ENDMDL
