MODEL 1
REMARK VINA RESULT:      -7.4      0.000      0.000
REMARK  Name = 
REMARK  1 active torsions:
REMARK  status: ('A' for Active; 'I' for Inactive)
REMARK    1  A    between atoms: C_1  and  N_2
REMARK                            x       y       z     vdW  Elec       q    Type
REMARK                         _______ _______ _______ _____ _____    ______ ____
ROOT
ATOM      1  C   UNL     1      10.155   1.272  22.588  0.00  0.00    +0.104 C 
ATOM      2  N   UNL     1      10.493   0.012  23.248  0.00  0.00    -0.305 NA
ATOM      3  C   UNL     1      10.192  -1.153  22.405  0.00  0.00    +0.088 C 
ATOM      4  C   UNL     1       8.694  -1.463  22.233  0.00  0.00    +0.047 C 
ATOM      5  C   UNL     1       7.948  -1.552  23.564  0.00  0.00    -0.059 C 
ATOM      6  C   UNL     1       7.098  -2.557  23.922  0.00  0.00    -0.010 C 
ATOM      7  C   UNL     1       6.897  -3.694  22.974  0.00  0.00    -0.014 A 
ATOM      8  C   UNL     1       7.344  -4.983  23.326  0.00  0.00    -0.032 A 
ATOM      9  C   UNL     1       7.179  -6.043  22.419  0.00  0.00    +0.004 A 
ATOM     10  C   UNL     1       6.576  -5.826  21.180  0.00  0.00    +0.000 A 
ATOM     11  C   UNL     1       6.109  -4.558  20.843  0.00  0.00    +0.001 A 
ATOM     12  C   UNL     1       7.995  -5.231  24.666  0.00  0.00    +0.116 C 
ATOM     13  C   UNL     1       7.052  -5.049  25.843  0.00  0.00    +0.175 C 
ATOM     14  O   UNL     1       6.872  -6.001  26.612  0.00  0.00    -0.291 OA
ATOM     15  C   UNL     1       6.446  -3.731  26.038  0.00  0.00    +0.063 A 
ATOM     16  S   UNL     1       5.602  -3.430  27.507  0.00  0.00    -0.093 S 
ATOM     17  C   UNL     1       5.196  -1.843  27.039  0.00  0.00    +0.046 A 
ATOM     18  C   UNL     1       5.658  -1.548  25.778  0.00  0.00    +0.017 A 
ATOM     19  C   UNL     1       6.253  -3.500  21.741  0.00  0.00    +0.009 A 
ATOM     20  C   UNL     1       6.441  -2.611  25.216  0.00  0.00    +0.000 A 
ATOM     21  C   UNL     1       8.305  -0.369  24.462  0.00  0.00    +0.047 C 
ATOM     22  C   UNL     1       9.821  -0.128  24.546  0.00  0.00    +0.088 C 
ENDROOT
TORSDOF 0
ENDMDL
MODEL 2
REMARK VINA RESULT:      -6.6      2.762      5.111
REMARK  Name = 
REMARK  1 active torsions:
REMARK  status: ('A' for Active; 'I' for Inactive)
REMARK    1  A    between atoms: C_1  and  N_2
REMARK                            x       y       z     vdW  Elec       q    Type
REMARK                         _______ _______ _______ _____ _____    ______ ____
ROOT
ATOM      1  C   UNL     1       3.886   1.983  27.376  0.00  0.00    +0.104 C 
ATOM      2  N   UNL     1       5.215   1.413  27.591  0.00  0.00    -0.305 NA
ATOM      3  C   UNL     1       6.227   2.022  26.716  0.00  0.00    +0.088 C 
ATOM      4  C   UNL     1       6.126   1.628  25.231  0.00  0.00    +0.047 C 
ATOM      5  C   UNL     1       6.067   0.116  25.019  0.00  0.00    -0.059 C 
ATOM      6  C   UNL     1       6.828  -0.581  24.126  0.00  0.00    -0.010 C 
ATOM      7  C   UNL     1       7.834   0.163  23.310  0.00  0.00    -0.014 A 
ATOM      8  C   UNL     1       9.207  -0.082  23.504  0.00  0.00    -0.032 A 
ATOM      9  C   UNL     1      10.150   0.641  22.756  0.00  0.00    +0.004 A 
ATOM     10  C   UNL     1       9.734   1.593  21.825  0.00  0.00    +0.000 A 
ATOM     11  C   UNL     1       8.376   1.815  21.612  0.00  0.00    +0.001 A 
ATOM     12  C   UNL     1       9.670  -1.113  24.507  0.00  0.00    +0.116 C 
ATOM     13  C   UNL     1       9.293  -2.537  24.133  0.00  0.00    +0.175 C 
ATOM     14  O   UNL     1      10.194  -3.374  24.002  0.00  0.00    -0.291 OA
ATOM     15  C   UNL     1       7.871  -2.857  24.001  0.00  0.00    +0.063 A 
ATOM     16  S   UNL     1       7.417  -4.510  23.851  0.00  0.00    -0.093 S 
ATOM     17  C   UNL     1       5.761  -4.124  23.730  0.00  0.00    +0.046 A 
ATOM     18  C   UNL     1       5.549  -2.766  23.766  0.00  0.00    +0.017 A 
ATOM     19  C   UNL     1       7.429   1.092  22.339  0.00  0.00    +0.009 A 
ATOM     20  C   UNL     1       6.758  -2.026  23.990  0.00  0.00    +0.000 A 
ATOM     21  C   UNL     1       5.056  -0.523  25.969  0.00  0.00    +0.047 C 
ATOM     22  C   UNL     1       5.225  -0.045  27.421  0.00  0.00    +0.088 C 
ENDROOT
TORSDOF 0
ENDMDL
MODEL 3
REMARK VINA RESULT:      -6.4      2.528      4.621
REMARK  Name = 
REMARK  1 active torsions:
REMARK  status: ('A' for Active; 'I' for Inactive)
REMARK    1  A    between atoms: C_1  and  N_2
REMARK                            x       y       z     vdW  Elec       q    Type
REMARK                         _______ _______ _______ _____ _____    ______ ____
ROOT
ATOM      1  C   UNL     1      10.051  -0.020  25.209  0.00  0.00    +0.104 C 
ATOM      2  N   UNL     1       8.652  -0.012  24.786  0.00  0.00    -0.305 NA
ATOM      3  C   UNL     1       7.743  -0.423  25.865  0.00  0.00    +0.088 C 
ATOM      4  C   UNL     1       7.791  -1.920  26.221  0.00  0.00    +0.047 C 
ATOM      5  C   UNL     1       7.628  -2.828  25.002  0.00  0.00    -0.059 C 
ATOM      6  C   UNL     1       6.776  -3.891  24.925  0.00  0.00    -0.010 C 
ATOM      7  C   UNL     1       5.893  -4.187  26.093  0.00  0.00    -0.014 A 
ATOM      8  C   UNL     1       4.498  -4.040  25.967  0.00  0.00    -0.032 A 
ATOM      9  C   UNL     1       3.674  -4.291  27.076  0.00  0.00    +0.004 A 
ATOM     10  C   UNL     1       4.229  -4.685  28.294  0.00  0.00    +0.000 A 
ATOM     11  C   UNL     1       5.606  -4.857  28.411  0.00  0.00    +0.001 A 
ATOM     12  C   UNL     1       3.885  -3.618  24.652  0.00  0.00    +0.116 C 
ATOM     13  C   UNL     1       4.050  -4.647  23.546  0.00  0.00    +0.175 C 
ATOM     14  O   UNL     1       3.037  -5.099  22.999  0.00  0.00    -0.291 OA
ATOM     15  C   UNL     1       5.411  -5.010  23.146  0.00  0.00    +0.063 A 
ATOM     16  S   UNL     1       5.618  -5.956  21.723  0.00  0.00    -0.093 S 
ATOM     17  C   UNL     1       7.312  -5.992  21.900  0.00  0.00    +0.046 A 
ATOM     18  C   UNL     1       7.722  -5.330  23.034  0.00  0.00    +0.017 A 
ATOM     19  C   UNL     1       6.433  -4.626  27.312  0.00  0.00    +0.009 A 
ATOM     20  C   UNL     1       6.634  -4.701  23.727  0.00  0.00    +0.000 A 
ATOM     21  C   UNL     1       8.531  -2.365  23.861  0.00  0.00    +0.047 C 
ATOM     22  C   UNL     1       8.429  -0.853  23.602  0.00  0.00    +0.088 C 
ENDROOT
TORSDOF 0
ENDMDL
MODEL 4
REMARK VINA RESULT:      -6.4      3.551      6.156
REMARK  Name = 
REMARK  1 active torsions:
REMARK  status: ('A' for Active; 'I' for Inactive)
REMARK    1  A    between atoms: C_1  and  N_2
REMARK                            x       y       z     vdW  Elec       q    Type
REMARK                         _______ _______ _______ _____ _____    ______ ____
ROOT
ATOM      1  C   UNL     1       6.571  -4.993  24.104  0.00  0.00    +0.104 C 
ATOM      2  N   UNL     1       6.428  -4.002  23.038  0.00  0.00    -0.305 NA
ATOM      3  C   UNL     1       7.687  -3.294  22.767  0.00  0.00    +0.088 C 
ATOM      4  C   UNL     1       8.119  -2.294  23.855  0.00  0.00    +0.047 C 
ATOM      5  C   UNL     1       7.014  -1.307  24.230  0.00  0.00    -0.059 C 
ATOM      6  C   UNL     1       7.170   0.045  24.326  0.00  0.00    -0.010 C 
ATOM      7  C   UNL     1       8.503   0.636  24.004  0.00  0.00    -0.014 A 
ATOM      8  C   UNL     1       8.642   1.470  22.878  0.00  0.00    -0.032 A 
ATOM      9  C   UNL     1       9.904   2.000  22.562  0.00  0.00    +0.004 A 
ATOM     10  C   UNL     1      11.013   1.706  23.356  0.00  0.00    +0.000 A 
ATOM     11  C   UNL     1      10.871   0.904  24.485  0.00  0.00    +0.001 A 
ATOM     12  C   UNL     1       7.448   1.799  22.013  0.00  0.00    +0.116 C 
ATOM     13  C   UNL     1       6.398   2.639  22.720  0.00  0.00    +0.175 C 
ATOM     14  O   UNL     1       6.088   3.733  22.235  0.00  0.00    -0.291 OA
ATOM     15  C   UNL     1       5.764   2.078  23.915  0.00  0.00    +0.063 A 
ATOM     16  S   UNL     1       4.390   2.885  24.564  0.00  0.00    -0.093 S 
ATOM     17  C   UNL     1       4.235   1.763  25.837  0.00  0.00    +0.046 A 
ATOM     18  C   UNL     1       5.224   0.809  25.799  0.00  0.00    +0.017 A 
ATOM     19  C   UNL     1       9.619   0.384  24.818  0.00  0.00    +0.009 A 
ATOM     20  C   UNL     1       6.075   0.943  24.652  0.00  0.00    +0.000 A 
ATOM     21  C   UNL     1       5.692  -2.038  24.456  0.00  0.00    +0.047 C 
ATOM     22  C   UNL     1       5.365  -3.030  23.328  0.00  0.00    +0.088 C 
ENDROOT
TORSDOF 0
ENDMDL
MODEL 5
REMARK VINA RESULT:      -6.3      5.380      8.539
REMARK  Name = 
REMARK  1 active torsions:
REMARK  status: ('A' for Active; 'I' for Inactive)
REMARK    1  A    between atoms: C_1  and  N_2
REMARK                            x       y       z     vdW  Elec       q    Type
REMARK                         _______ _______ _______ _____ _____    ______ ____
ROOT
ATOM      1  C   UNL     1       9.693  -1.536  23.883  0.00  0.00    +0.104 C 
ATOM      2  N   UNL     1       9.481  -0.584  24.972  0.00  0.00    -0.305 NA
ATOM      3  C   UNL     1       8.216   0.150  24.829  0.00  0.00    +0.088 C 
ATOM      4  C   UNL     1       8.195   1.196  23.700  0.00  0.00    +0.047 C 
ATOM      5  C   UNL     1       9.377   2.163  23.762  0.00  0.00    -0.059 C 
ATOM      6  C   UNL     1       9.284   3.521  23.673  0.00  0.00    -0.010 C 
ATOM      7  C   UNL     1       7.930   4.139  23.548  0.00  0.00    -0.014 A 
ATOM      8  C   UNL     1       7.430   4.940  24.593  0.00  0.00    -0.032 A 
ATOM      9  C   UNL     1       6.144   5.495  24.483  0.00  0.00    +0.004 A 
ATOM     10  C   UNL     1       5.367   5.258  23.349  0.00  0.00    +0.000 A 
ATOM     11  C   UNL     1       5.871   4.489  22.304  0.00  0.00    +0.001 A 
ATOM     12  C   UNL     1       8.264   5.207  25.823  0.00  0.00    +0.116 C 
ATOM     13  C   UNL     1       9.505   6.039  25.548  0.00  0.00    +0.175 C 
ATOM     14  O   UNL     1       9.649   7.108  26.153  0.00  0.00    -0.291 OA
ATOM     15  C   UNL     1      10.498   5.500  24.618  0.00  0.00    +0.063 A 
ATOM     16  S   UNL     1      12.024   6.288  24.505  0.00  0.00    -0.093 S 
ATOM     17  C   UNL     1      12.584   5.204  23.316  0.00  0.00    +0.046 A 
ATOM     18  C   UNL     1      11.626   4.277  22.978  0.00  0.00    +0.017 A 
ATOM     19  C   UNL     1       7.153   3.946  22.394  0.00  0.00    +0.009 A 
ATOM     20  C   UNL     1      10.438   4.398  23.774  0.00  0.00    +0.000 A 
ATOM     21  C   UNL     1      10.685   1.402  23.968  0.00  0.00    +0.047 C 
ATOM     22  C   UNL     1      10.594   0.365  25.099  0.00  0.00    +0.088 C 
ENDROOT
TORSDOF 0
ENDMDL
MODEL 6
REMARK VINA RESULT:      -6.2      3.156      5.554
REMARK  Name = 
REMARK  1 active torsions:
REMARK  status: ('A' for Active; 'I' for Inactive)
REMARK    1  A    between atoms: C_1  and  N_2
REMARK                            x       y       z     vdW  Elec       q    Type
REMARK                         _______ _______ _______ _____ _____    ______ ____
ROOT
ATOM      1  C   UNL     1       5.698  -5.758  22.613  0.00  0.00    +0.104 C 
ATOM      2  N   UNL     1       5.118  -4.471  22.232  0.00  0.00    -0.305 NA
ATOM      3  C   UNL     1       6.090  -3.604  21.551  0.00  0.00    +0.088 C 
ATOM      4  C   UNL     1       7.189  -3.020  22.457  0.00  0.00    +0.047 C 
ATOM      5  C   UNL     1       6.630  -2.331  23.702  0.00  0.00    -0.059 C 
ATOM      6  C   UNL     1       6.994  -1.092  24.142  0.00  0.00    -0.010 C 
ATOM      7  C   UNL     1       7.983  -0.310  23.341  0.00  0.00    -0.014 A 
ATOM      8  C   UNL     1       7.578   0.877  22.701  0.00  0.00    -0.032 A 
ATOM      9  C   UNL     1       8.503   1.593  21.924  0.00  0.00    +0.004 A 
ATOM     10  C   UNL     1       9.814   1.137  21.788  0.00  0.00    +0.000 A 
ATOM     11  C   UNL     1      10.223  -0.022  22.443  0.00  0.00    +0.001 A 
ATOM     12  C   UNL     1       6.162   1.384  22.845  0.00  0.00    +0.116 C 
ATOM     13  C   UNL     1       5.814   1.823  24.257  0.00  0.00    +0.175 C 
ATOM     14  O   UNL     1       5.437   2.987  24.441  0.00  0.00    -0.291 OA
ATOM     15  C   UNL     1       5.890   0.823  25.324  0.00  0.00    +0.063 A 
ATOM     16  S   UNL     1       5.241   1.224  26.866  0.00  0.00    -0.093 S 
ATOM     17  C   UNL     1       5.676  -0.285  27.528  0.00  0.00    +0.046 A 
ATOM     18  C   UNL     1       6.334  -1.074  26.613  0.00  0.00    +0.017 A 
ATOM     19  C   UNL     1       9.317  -0.734  23.229  0.00  0.00    +0.009 A 
ATOM     20  C   UNL     1       6.404  -0.467  25.314  0.00  0.00    +0.000 A 
ATOM     21  C   UNL     1       5.577  -3.208  24.377  0.00  0.00    +0.047 C 
ATOM     22  C   UNL     1       4.544  -3.762  23.383  0.00  0.00    +0.088 C 
ENDROOT
TORSDOF 0
ENDMDL
MODEL 7
REMARK VINA RESULT:      -6.1      3.421      5.737
REMARK  Name = 
REMARK  1 active torsions:
REMARK  status: ('A' for Active; 'I' for Inactive)
REMARK    1  A    between atoms: C_1  and  N_2
REMARK                            x       y       z     vdW  Elec       q    Type
REMARK                         _______ _______ _______ _____ _____    ______ ____
ROOT
ATOM      1  C   UNL     1       9.395  -5.005  25.667  0.00  0.00    +0.104 C 
ATOM      2  N   UNL     1       8.434  -4.362  24.772  0.00  0.00    -0.305 NA
ATOM      3  C   UNL     1       9.070  -3.365  23.900  0.00  0.00    +0.088 C 
ATOM      4  C   UNL     1       9.516  -2.072  24.607  0.00  0.00    +0.047 C 
ATOM      5  C   UNL     1       8.402  -1.433  25.437  0.00  0.00    -0.059 C 
ATOM      6  C   UNL     1       8.054  -0.114  25.399  0.00  0.00    -0.010 C 
ATOM      7  C   UNL     1       8.774   0.788  24.450  0.00  0.00    -0.014 A 
ATOM      8  C   UNL     1       8.075   1.363  23.371  0.00  0.00    -0.032 A 
ATOM      9  C   UNL     1       8.762   2.187  22.464  0.00  0.00    +0.004 A 
ATOM     10  C   UNL     1      10.124   2.439  22.630  0.00  0.00    +0.000 A 
ATOM     11  C   UNL     1      10.809   1.894  23.713  0.00  0.00    +0.001 A 
ATOM     12  C   UNL     1       6.600   1.101  23.183  0.00  0.00    +0.116 C 
ATOM     13  C   UNL     1       5.732   1.692  24.282  0.00  0.00    +0.175 C 
ATOM     14  O   UNL     1       4.850   2.501  23.971  0.00  0.00    -0.291 OA
ATOM     15  C   UNL     1       5.953   1.227  25.652  0.00  0.00    +0.063 A 
ATOM     16  S   UNL     1       4.809   1.672  26.859  0.00  0.00    -0.093 S 
ATOM     17  C   UNL     1       5.669   0.858  28.084  0.00  0.00    +0.046 A 
ATOM     18  C   UNL     1       6.823   0.284  27.604  0.00  0.00    +0.017 A 
ATOM     19  C   UNL     1      10.134   1.086  24.629  0.00  0.00    +0.009 A 
ATOM     20  C   UNL     1       6.962   0.435  26.184  0.00  0.00    +0.000 A 
ATOM     21  C   UNL     1       7.704  -2.482  26.300  0.00  0.00    +0.047 C 
ATOM     22  C   UNL     1       7.324  -3.743  25.507  0.00  0.00    +0.088 C 
ENDROOT
TORSDOF 0
ENDMDL
MODEL 8
REMARK VINA RESULT:      -6.0      1.807      2.365
REMARK  Name = 
REMARK  1 active torsions:
REMARK  status: ('A' for Active; 'I' for Inactive)
REMARK    1  A    between atoms: C_1  and  N_2
REMARK                            x       y       z     vdW  Elec       q    Type
REMARK                         _______ _______ _______ _____ _____    ______ ____
ROOT
ATOM      1  C   UNL     1       7.073   1.904  25.031  0.00  0.00    +0.104 C 
ATOM      2  N   UNL     1       7.652   0.685  25.594  0.00  0.00    -0.305 NA
ATOM      3  C   UNL     1       8.039  -0.278  24.553  0.00  0.00    +0.088 C 
ATOM      4  C   UNL     1       6.864  -0.975  23.843  0.00  0.00    +0.047 C 
ATOM      5  C   UNL     1       5.868  -1.603  24.817  0.00  0.00    -0.059 C 
ATOM      6  C   UNL     1       5.379  -2.874  24.728  0.00  0.00    -0.010 C 
ATOM      7  C   UNL     1       5.872  -3.755  23.627  0.00  0.00    -0.014 A 
ATOM      8  C   UNL     1       6.643  -4.893  23.937  0.00  0.00    -0.032 A 
ATOM      9  C   UNL     1       7.129  -5.701  22.897  0.00  0.00    +0.004 A 
ATOM     10  C   UNL     1       6.852  -5.385  21.567  0.00  0.00    +0.000 A 
ATOM     11  C   UNL     1       6.068  -4.276  21.261  0.00  0.00    +0.001 A 
ATOM     12  C   UNL     1       6.946  -5.248  25.373  0.00  0.00    +0.116 C 
ATOM     13  C   UNL     1       5.718  -5.649  26.173  0.00  0.00    +0.175 C 
ATOM     14  O   UNL     1       5.693  -6.767  26.702  0.00  0.00    -0.291 OA
ATOM     15  C   UNL     1       4.645  -4.664  26.322  0.00  0.00    +0.063 A 
ATOM     16  S   UNL     1       3.382  -4.995  27.442  0.00  0.00    -0.093 S 
ATOM     17  C   UNL     1       2.572  -3.542  27.078  0.00  0.00    +0.046 A 
ATOM     18  C   UNL     1       3.221  -2.826  26.100  0.00  0.00    +0.017 A 
ATOM     19  C   UNL     1       5.565  -3.474  22.286  0.00  0.00    +0.009 A 
ATOM     20  C   UNL     1       4.458  -3.434  25.703  0.00  0.00    +0.000 A 
ATOM     21  C   UNL     1       5.510  -0.621  25.931  0.00  0.00    +0.047 C 
ATOM     22  C   UNL     1       6.749   0.040  26.556  0.00  0.00    +0.088 C 
ENDROOT
TORSDOF 0
ENDMDL
MODEL 9
REMARK VINA RESULT:      -6.0      3.264      5.337
REMARK  Name = 
REMARK  1 active torsions:
REMARK  status: ('A' for Active; 'I' for Inactive)
REMARK    1  A    between atoms: C_1  and  N_2
REMARK                            x       y       z     vdW  Elec       q    Type
REMARK                         _______ _______ _______ _____ _____    ______ ____
ROOT
ATOM      1  C   UNL     1       3.968   0.807  28.070  0.00  0.00    +0.104 C 
ATOM      2  N   UNL     1       3.989   0.332  26.687  0.00  0.00    -0.305 NA
ATOM      3  C   UNL     1       4.390  -1.078  26.591  0.00  0.00    +0.088 C 
ATOM      4  C   UNL     1       5.879  -1.352  26.873  0.00  0.00    +0.047 C 
ATOM      5  C   UNL     1       6.814  -0.466  26.051  0.00  0.00    -0.059 C 
ATOM      6  C   UNL     1       7.891  -0.910  25.340  0.00  0.00    -0.010 C 
ATOM      7  C   UNL     1       8.175  -2.376  25.314  0.00  0.00    -0.014 A 
ATOM      8  C   UNL     1       8.051  -3.088  24.104  0.00  0.00    -0.032 A 
ATOM      9  C   UNL     1       8.291  -4.472  24.090  0.00  0.00    +0.004 A 
ATOM     10  C   UNL     1       8.651  -5.139  25.261  0.00  0.00    +0.000 A 
ATOM     11  C   UNL     1       8.800  -4.431  26.451  0.00  0.00    +0.001 A 
ATOM     12  C   UNL     1       7.666  -2.376  22.829  0.00  0.00    +0.116 C 
ATOM     13  C   UNL     1       8.716  -1.391  22.341  0.00  0.00    +0.175 C 
ATOM     14  O   UNL     1       9.193  -1.543  21.211  0.00  0.00    -0.291 OA
ATOM     15  C   UNL     1       9.067  -0.274  23.220  0.00  0.00    +0.063 A 
ATOM     16  S   UNL     1      10.039   0.993  22.580  0.00  0.00    -0.093 S 
ATOM     17  C   UNL     1      10.046   1.840  24.059  0.00  0.00    +0.046 A 
ATOM     18  C   UNL     1       9.355   1.165  25.038  0.00  0.00    +0.017 A 
ATOM     19  C   UNL     1       8.580  -3.053  26.475  0.00  0.00    +0.009 A 
ATOM     20  C   UNL     1       8.728  -0.028  24.544  0.00  0.00    +0.000 A 
ATOM     21  C   UNL     1       6.362   0.992  26.105  0.00  0.00    +0.047 C 
ATOM     22  C   UNL     1       4.857   1.155  25.835  0.00  0.00    +0.088 C 
ENDROOT
TORSDOF 0
ENDMDL
