MODEL 1
REMARK VINA RESULT:      -5.9      0.000      0.000
REMARK  Name = 
REMARK  7 active torsions:
REMARK  status: ('A' for Active; 'I' for Inactive)
REMARK    1  A    between atoms: C_1  and  C_2
REMARK    2  A    between atoms: N_4  and  C_5
REMARK    3  A    between atoms: C_8  and  C_19
REMARK    4  A    between atoms: C_10  and  N_11
REMARK    5  A    between atoms: C_12  and  C_14
REMARK    6  A    between atoms: C_14  and  N_15
REMARK    7  A    between atoms: C_19  and  O_20
REMARK                            x       y       z     vdW  Elec       q    Type
REMARK                         _______ _______ _______ _____ _____    ______ ____
ROOT
ATOM      1  C   UNL     1       8.538  -2.219  22.622  0.00  0.00    +0.055 A 
ATOM      2  C   UNL     1       8.829  -1.649  23.882  0.00  0.00    +0.056 A 
ATOM      3  C   UNL     1       9.391  -0.364  23.915  0.00  0.00    +0.040 A 
ATOM      4  C   UNL     1       9.686   0.346  22.743  0.00  0.00    +0.061 A 
ATOM      5  C   UNL     1       9.425  -0.237  21.506  0.00  0.00    +0.017 A 
ATOM      6  C   UNL     1       8.825  -1.496  21.454  0.00  0.00    +0.026 A 
ENDROOT
BRANCH   1   9
ATOM      7  C   UNL     1       6.215  -5.162  22.369  0.00  0.00    +0.109 C 
ATOM      8  C   UNL     1       6.554  -3.690  22.324  0.00  0.00    +0.214 C 
ATOM      9  N   UNL     1       7.913  -3.468  22.394  0.00  0.00    -0.284 N 
ATOM     10  H   UNL     1       8.464  -4.277  22.663  0.00  0.00    +0.155 HD
ATOM     11  O   UNL     1       5.704  -2.813  22.195  0.00  0.00    -0.276 OA
ENDBRANCH   1   9
BRANCH   2  12
ATOM     12  N   UNL     1       8.570  -2.351  25.092  0.00  0.00    -0.280 N 
ATOM     13  H   UNL     1       7.983  -1.839  25.751  0.00  0.00    +0.155 HD
ATOM     14  C   UNL     1       9.000  -3.625  25.386  0.00  0.00    +0.262 C 
ATOM     15  O   UNL     1       9.842  -4.287  24.767  0.00  0.00    -0.270 OA
BRANCH  14  16
ATOM     16  C   UNL     1       8.356  -4.307  26.582  0.00  0.00    +0.225 C 
BRANCH  16  17
ATOM     17  N   UNL     1       8.578  -5.795  26.444  0.00  0.00    +0.225 N 
ATOM     18  H   UNL     1       9.534  -6.057  26.186  0.00  0.00    +0.200 HD
ATOM     19  H   UNL     1       7.932  -6.129  25.703  0.00  0.00    +0.200 HD
ATOM     20  H   UNL     1       8.296  -6.297  27.295  0.00  0.00    +0.200 HD
ENDBRANCH  16  17
ENDBRANCH  14  16
ENDBRANCH   2  12
BRANCH   4  21
ATOM     21  C   UNL     1      10.328   1.671  22.899  0.00  0.00    +0.337 C 
ATOM     22  O   UNL     1      10.752   2.074  23.972  0.00  0.00    -0.245 OA
BRANCH  21  23
ATOM     23  O   UNL     1      10.374   2.413  21.769  0.00  0.00    -0.477 OA
ATOM     24  H   UNL     1      11.191   2.346  21.240  0.00  0.00    +0.295 HD
ENDBRANCH  21  23
ENDBRANCH   4  21
TORSDOF 6
ENDMDL
MODEL 2
REMARK VINA RESULT:      -5.9      1.196      3.298
REMARK  Name = 
REMARK  7 active torsions:
REMARK  status: ('A' for Active; 'I' for Inactive)
REMARK    1  A    between atoms: C_1  and  C_2
REMARK    2  A    between atoms: N_4  and  C_5
REMARK    3  A    between atoms: C_8  and  C_19
REMARK    4  A    between atoms: C_10  and  N_11
REMARK    5  A    between atoms: C_12  and  C_14
REMARK    6  A    between atoms: C_14  and  N_15
REMARK    7  A    between atoms: C_19  and  O_20
REMARK                            x       y       z     vdW  Elec       q    Type
REMARK                         _______ _______ _______ _____ _____    ______ ____
ROOT
ATOM      1  C   UNL     1       8.969  -1.563  24.743  0.00  0.00    +0.055 A 
ATOM      2  C   UNL     1       8.839  -1.507  23.337  0.00  0.00    +0.056 A 
ATOM      3  C   UNL     1       9.253  -0.339  22.677  0.00  0.00    +0.040 A 
ATOM      4  C   UNL     1       9.764   0.764  23.375  0.00  0.00    +0.061 A 
ATOM      5  C   UNL     1       9.859   0.710  24.764  0.00  0.00    +0.017 A 
ATOM      6  C   UNL     1       9.493  -0.459  25.432  0.00  0.00    +0.026 A 
ENDROOT
BRANCH   1   9
ATOM      7  C   UNL     1       8.357  -4.954  26.242  0.00  0.00    +0.109 C 
ATOM      8  C   UNL     1       9.090  -3.970  25.360  0.00  0.00    +0.214 C 
ATOM      9  N   UNL     1       8.669  -2.674  25.566  0.00  0.00    -0.284 N 
ATOM     10  H   UNL     1       7.816  -2.584  26.110  0.00  0.00    +0.155 HD
ATOM     11  O   UNL     1       9.985  -4.303  24.587  0.00  0.00    -0.276 OA
ENDBRANCH   1   9
BRANCH   2  12
ATOM     12  N   UNL     1       8.298  -2.595  22.597  0.00  0.00    -0.280 N 
ATOM     13  H   UNL     1       9.002  -3.197  22.169  0.00  0.00    +0.155 HD
ATOM     14  C   UNL     1       6.959  -2.894  22.476  0.00  0.00    +0.262 C 
ATOM     15  O   UNL     1       6.005  -2.174  22.794  0.00  0.00    -0.270 OA
BRANCH  14  16
ATOM     16  C   UNL     1       6.611  -4.264  21.918  0.00  0.00    +0.225 C 
BRANCH  16  17
ATOM     17  N   UNL     1       7.478  -5.285  22.614  0.00  0.00    +0.225 N 
ATOM     18  H   UNL     1       8.482  -5.080  22.579  0.00  0.00    +0.200 HD
ATOM     19  H   UNL     1       7.310  -6.196  22.145  0.00  0.00    +0.200 HD
ATOM     20  H   UNL     1       7.185  -5.426  23.589  0.00  0.00    +0.200 HD
ENDBRANCH  16  17
ENDBRANCH  14  16
ENDBRANCH   2  12
BRANCH   4  21
ATOM     21  C   UNL     1      10.118   1.962  22.580  0.00  0.00    +0.337 C 
ATOM     22  O   UNL     1      10.757   2.893  23.044  0.00  0.00    -0.245 OA
BRANCH  21  23
ATOM     23  O   UNL     1       9.645   1.959  21.313  0.00  0.00    -0.477 OA
ATOM     24  H   UNL     1      10.304   1.829  20.606  0.00  0.00    +0.295 HD
ENDBRANCH  21  23
ENDBRANCH   4  21
TORSDOF 6
ENDMDL
MODEL 3
REMARK VINA RESULT:      -5.8      1.771      1.862
REMARK  Name = 
REMARK  7 active torsions:
REMARK  status: ('A' for Active; 'I' for Inactive)
REMARK    1  A    between atoms: C_1  and  C_2
REMARK    2  A    between atoms: N_4  and  C_5
REMARK    3  A    between atoms: C_8  and  C_19
REMARK    4  A    between atoms: C_10  and  N_11
REMARK    5  A    between atoms: C_12  and  C_14
REMARK    6  A    between atoms: C_14  and  N_15
REMARK    7  A    between atoms: C_19  and  O_20
REMARK                            x       y       z     vdW  Elec       q    Type
REMARK                         _______ _______ _______ _____ _____    ______ ____
ROOT
ATOM      1  C   UNL     1       8.057  -2.642  23.191  0.00  0.00    +0.055 A 
ATOM      2  C   UNL     1       8.020  -2.251  24.549  0.00  0.00    +0.056 A 
ATOM      3  C   UNL     1       8.746  -1.113  24.932  0.00  0.00    +0.040 A 
ATOM      4  C   UNL     1       9.514  -0.381  24.016  0.00  0.00    +0.061 A 
ATOM      5  C   UNL     1       9.570  -0.793  22.687  0.00  0.00    +0.017 A 
ATOM      6  C   UNL     1       8.818  -1.896  22.278  0.00  0.00    +0.026 A 
ENDROOT
BRANCH   1   9
ATOM      7  C   UNL     1       6.867  -5.913  21.778  0.00  0.00    +0.109 C 
ATOM      8  C   UNL     1       7.633  -5.054  22.756  0.00  0.00    +0.214 C 
ATOM      9  N   UNL     1       7.340  -3.715  22.610  0.00  0.00    -0.284 N 
ATOM     10  H   UNL     1       6.830  -3.479  21.765  0.00  0.00    +0.155 HD
ATOM     11  O   UNL     1       8.389  -5.520  23.605  0.00  0.00    -0.276 OA
ENDBRANCH   1   9
BRANCH   2  12
ATOM     12  N   UNL     1       7.275  -2.985  25.512  0.00  0.00    -0.280 N 
ATOM     13  H   UNL     1       6.269  -2.816  25.477  0.00  0.00    +0.155 HD
ATOM     14  C   UNL     1       7.797  -3.896  26.403  0.00  0.00    +0.262 C 
ATOM     15  O   UNL     1       8.992  -4.075  26.668  0.00  0.00    -0.270 OA
BRANCH  14  16
ATOM     16  C   UNL     1       6.806  -4.798  27.121  0.00  0.00    +0.225 C 
BRANCH  16  17
ATOM     17  N   UNL     1       7.535  -6.056  27.530  0.00  0.00    +0.225 N 
ATOM     18  H   UNL     1       8.282  -5.907  28.215  0.00  0.00    +0.200 HD
ATOM     19  H   UNL     1       7.952  -6.458  26.668  0.00  0.00    +0.200 HD
ATOM     20  H   UNL     1       6.884  -6.773  27.874  0.00  0.00    +0.200 HD
ENDBRANCH  16  17
ENDBRANCH  14  16
ENDBRANCH   2  12
BRANCH   4  21
ATOM     21  C   UNL     1      10.283   0.769  24.545  0.00  0.00    +0.337 C 
ATOM     22  O   UNL     1      11.501   0.762  24.631  0.00  0.00    -0.245 OA
BRANCH  21  23
ATOM     23  O   UNL     1       9.527   1.812  24.958  0.00  0.00    -0.477 OA
ATOM     24  H   UNL     1       9.667   2.658  24.496  0.00  0.00    +0.295 HD
ENDBRANCH  21  23
ENDBRANCH   4  21
TORSDOF 6
ENDMDL
MODEL 4
REMARK VINA RESULT:      -5.7      2.304      5.782
REMARK  Name = 
REMARK  7 active torsions:
REMARK  status: ('A' for Active; 'I' for Inactive)
REMARK    1  A    between atoms: C_1  and  C_2
REMARK    2  A    between atoms: N_4  and  C_5
REMARK    3  A    between atoms: C_8  and  C_19
REMARK    4  A    between atoms: C_10  and  N_11
REMARK    5  A    between atoms: C_12  and  C_14
REMARK    6  A    between atoms: C_14  and  N_15
REMARK    7  A    between atoms: C_19  and  O_20
REMARK                            x       y       z     vdW  Elec       q    Type
REMARK                         _______ _______ _______ _____ _____    ______ ____
ROOT
ATOM      1  C   UNL     1       8.080  -2.326  24.062  0.00  0.00    +0.055 A 
ATOM      2  C   UNL     1       7.587  -3.635  23.859  0.00  0.00    +0.056 A 
ATOM      3  C   UNL     1       7.283  -4.413  24.987  0.00  0.00    +0.040 A 
ATOM      4  C   UNL     1       7.478  -3.935  26.290  0.00  0.00    +0.061 A 
ATOM      5  C   UNL     1       7.996  -2.656  26.480  0.00  0.00    +0.017 A 
ATOM      6  C   UNL     1       8.261  -1.851  25.371  0.00  0.00    +0.026 A 
ENDROOT
BRANCH   1   9
ATOM      7  C   UNL     1       9.657   0.077  21.642  0.00  0.00    +0.109 C 
ATOM      8  C   UNL     1       9.602  -1.199  22.449  0.00  0.00    +0.214 C 
ATOM      9  N   UNL     1       8.376  -1.378  23.054  0.00  0.00    -0.284 N 
ATOM     10  H   UNL     1       7.773  -0.563  23.045  0.00  0.00    +0.155 HD
ATOM     11  O   UNL     1      10.538  -1.992  22.509  0.00  0.00    -0.276 OA
ENDBRANCH   1   9
BRANCH   2  12
ATOM     12  N   UNL     1       7.403  -4.164  22.552  0.00  0.00    -0.280 N 
ATOM     13  H   UNL     1       8.263  -4.498  22.115  0.00  0.00    +0.155 HD
ATOM     14  C   UNL     1       6.197  -4.290  21.901  0.00  0.00    +0.262 C 
ATOM     15  O   UNL     1       5.118  -3.784  22.232  0.00  0.00    -0.270 OA
BRANCH  14  16
ATOM     16  C   UNL     1       6.176  -5.163  20.657  0.00  0.00    +0.225 C 
BRANCH  16  17
ATOM     17  N   UNL     1       5.680  -6.532  21.058  0.00  0.00    +0.225 N 
ATOM     18  H   UNL     1       4.964  -6.920  20.436  0.00  0.00    +0.200 HD
ATOM     19  H   UNL     1       5.277  -6.440  22.010  0.00  0.00    +0.200 HD
ATOM     20  H   UNL     1       6.456  -7.199  21.157  0.00  0.00    +0.200 HD
ENDBRANCH  16  17
ENDBRANCH  14  16
ENDBRANCH   2  12
BRANCH   4  21
ATOM     21  C   UNL     1       7.176  -4.864  27.403  0.00  0.00    +0.337 C 
ATOM     22  O   UNL     1       6.284  -4.654  28.211  0.00  0.00    -0.245 OA
BRANCH  21  23
ATOM     23  O   UNL     1       7.988  -5.943  27.475  0.00  0.00    -0.477 OA
ATOM     24  H   UNL     1       8.032  -6.394  28.338  0.00  0.00    +0.295 HD
ENDBRANCH  21  23
ENDBRANCH   4  21
TORSDOF 6
ENDMDL
MODEL 5
REMARK VINA RESULT:      -5.7      2.591      6.052
REMARK  Name = 
REMARK  7 active torsions:
REMARK  status: ('A' for Active; 'I' for Inactive)
REMARK    1  A    between atoms: C_1  and  C_2
REMARK    2  A    between atoms: N_4  and  C_5
REMARK    3  A    between atoms: C_8  and  C_19
REMARK    4  A    between atoms: C_10  and  N_11
REMARK    5  A    between atoms: C_12  and  C_14
REMARK    6  A    between atoms: C_14  and  N_15
REMARK    7  A    between atoms: C_19  and  O_20
REMARK                            x       y       z     vdW  Elec       q    Type
REMARK                         _______ _______ _______ _____ _____    ______ ____
ROOT
ATOM      1  C   UNL     1       8.139  -2.912  24.135  0.00  0.00    +0.055 A 
ATOM      2  C   UNL     1       7.499  -2.370  22.997  0.00  0.00    +0.056 A 
ATOM      3  C   UNL     1       6.870  -3.253  22.105  0.00  0.00    +0.040 A 
ATOM      4  C   UNL     1       6.882  -4.641  22.305  0.00  0.00    +0.061 A 
ATOM      5  C   UNL     1       7.542  -5.167  23.413  0.00  0.00    +0.017 A 
ATOM      6  C   UNL     1       8.135  -4.301  24.334  0.00  0.00    +0.026 A 
ENDROOT
BRANCH   1   9
ATOM      7  C   UNL     1       9.016  -0.697  27.041  0.00  0.00    +0.109 C 
ATOM      8  C   UNL     1       8.140  -1.675  26.293  0.00  0.00    +0.214 C 
ATOM      9  N   UNL     1       8.763  -2.178  25.171  0.00  0.00    -0.284 N 
ATOM     10  H   UNL     1       9.609  -1.689  24.898  0.00  0.00    +0.155 HD
ATOM     11  O   UNL     1       7.022  -2.003  26.683  0.00  0.00    -0.276 OA
ENDBRANCH   1   9
BRANCH   2  12
ATOM     12  N   UNL     1       7.491  -0.971  22.746  0.00  0.00    -0.280 N 
ATOM     13  H   UNL     1       6.645  -0.496  23.064  0.00  0.00    +0.155 HD
ATOM     14  C   UNL     1       8.519  -0.253  22.176  0.00  0.00    +0.262 C 
ATOM     15  O   UNL     1       9.514  -0.710  21.601  0.00  0.00    -0.270 OA
BRANCH  14  16
ATOM     16  C   UNL     1       8.443   1.261  22.288  0.00  0.00    +0.225 C 
BRANCH  16  17
ATOM     17  N   UNL     1       9.537   1.846  21.428  0.00  0.00    +0.225 N 
ATOM     18  H   UNL     1       9.229   2.148  20.499  0.00  0.00    +0.200 HD
ATOM     19  H   UNL     1      10.259   1.108  21.313  0.00  0.00    +0.200 HD
ATOM     20  H   UNL     1      10.017   2.620  21.905  0.00  0.00    +0.200 HD
ENDBRANCH  16  17
ENDBRANCH  14  16
ENDBRANCH   2  12
BRANCH   4  21
ATOM     21  C   UNL     1       6.234  -5.478  21.270  0.00  0.00    +0.337 C 
ATOM     22  O   UNL     1       5.998  -5.067  20.145  0.00  0.00    -0.245 OA
BRANCH  21  23
ATOM     23  O   UNL     1       5.890  -6.720  21.682  0.00  0.00    -0.477 OA
ATOM     24  H   UNL     1       5.502  -7.307  21.008  0.00  0.00    +0.295 HD
ENDBRANCH  21  23
ENDBRANCH   4  21
TORSDOF 6
ENDMDL
MODEL 6
REMARK VINA RESULT:      -5.6      2.235      4.066
REMARK  Name = 
REMARK  7 active torsions:
REMARK  status: ('A' for Active; 'I' for Inactive)
REMARK    1  A    between atoms: C_1  and  C_2
REMARK    2  A    between atoms: N_4  and  C_5
REMARK    3  A    between atoms: C_8  and  C_19
REMARK    4  A    between atoms: C_10  and  N_11
REMARK    5  A    between atoms: C_12  and  C_14
REMARK    6  A    between atoms: C_14  and  N_15
REMARK    7  A    between atoms: C_19  and  O_20
REMARK                            x       y       z     vdW  Elec       q    Type
REMARK                         _______ _______ _______ _____ _____    ______ ____
ROOT
ATOM      1  C   UNL     1       7.059  -3.403  25.037  0.00  0.00    +0.055 A 
ATOM      2  C   UNL     1       7.790  -3.369  23.828  0.00  0.00    +0.056 A 
ATOM      3  C   UNL     1       8.780  -2.385  23.677  0.00  0.00    +0.040 A 
ATOM      4  C   UNL     1       9.038  -1.436  24.676  0.00  0.00    +0.061 A 
ATOM      5  C   UNL     1       8.290  -1.458  25.851  0.00  0.00    +0.017 A 
ATOM      6  C   UNL     1       7.333  -2.456  26.036  0.00  0.00    +0.026 A 
ENDROOT
BRANCH   1   9
ATOM      7  C   UNL     1       5.095  -6.467  25.970  0.00  0.00    +0.109 C 
ATOM      8  C   UNL     1       6.312  -5.571  25.999  0.00  0.00    +0.214 C 
ATOM      9  N   UNL     1       6.075  -4.356  25.393  0.00  0.00    -0.284 N 
ATOM     10  H   UNL     1       5.219  -4.308  24.851  0.00  0.00    +0.155 HD
ATOM     11  O   UNL     1       7.364  -5.892  26.544  0.00  0.00    -0.276 OA
ENDBRANCH   1   9
BRANCH   2  12
ATOM     12  N   UNL     1       7.536  -4.297  22.781  0.00  0.00    -0.280 N 
ATOM     13  H   UNL     1       8.226  -5.046  22.713  0.00  0.00    +0.155 HD
ATOM     14  C   UNL     1       6.449  -4.274  21.936  0.00  0.00    +0.262 C 
ATOM     15  O   UNL     1       5.637  -3.351  21.795  0.00  0.00    -0.270 OA
BRANCH  14  16
ATOM     16  C   UNL     1       6.199  -5.522  21.105  0.00  0.00    +0.225 C 
BRANCH  16  17
ATOM     17  N   UNL     1       6.116  -6.699  22.048  0.00  0.00    +0.225 N 
ATOM     18  H   UNL     1       6.579  -7.547  21.706  0.00  0.00    +0.200 HD
ATOM     19  H   UNL     1       5.108  -6.905  22.186  0.00  0.00    +0.200 HD
ATOM     20  H   UNL     1       6.473  -6.459  22.981  0.00  0.00    +0.200 HD
ENDBRANCH  16  17
ENDBRANCH  14  16
ENDBRANCH   2  12
BRANCH   4  21
ATOM     21  C   UNL     1      10.068  -0.412  24.385  0.00  0.00    +0.337 C 
ATOM     22  O   UNL     1      10.597  -0.305  23.289  0.00  0.00    -0.245 OA
BRANCH  21  23
ATOM     23  O   UNL     1      10.401   0.370  25.437  0.00  0.00    -0.477 OA
ATOM     24  H   UNL     1      10.565  -0.089  26.281  0.00  0.00    +0.295 HD
ENDBRANCH  21  23
ENDBRANCH   4  21
TORSDOF 6
ENDMDL
MODEL 7
REMARK VINA RESULT:      -5.6      1.891      2.128
REMARK  Name = 
REMARK  7 active torsions:
REMARK  status: ('A' for Active; 'I' for Inactive)
REMARK    1  A    between atoms: C_1  and  C_2
REMARK    2  A    between atoms: N_4  and  C_5
REMARK    3  A    between atoms: C_8  and  C_19
REMARK    4  A    between atoms: C_10  and  N_11
REMARK    5  A    between atoms: C_12  and  C_14
REMARK    6  A    between atoms: C_14  and  N_15
REMARK    7  A    between atoms: C_19  and  O_20
REMARK                            x       y       z     vdW  Elec       q    Type
REMARK                         _______ _______ _______ _____ _____    ______ ____
ROOT
ATOM      1  C   UNL     1       8.011  -3.015  22.946  0.00  0.00    +0.055 A 
ATOM      2  C   UNL     1       8.112  -2.947  24.353  0.00  0.00    +0.056 A 
ATOM      3  C   UNL     1       8.516  -1.733  24.932  0.00  0.00    +0.040 A 
ATOM      4  C   UNL     1       8.839  -0.612  24.153  0.00  0.00    +0.061 A 
ATOM      5  C   UNL     1       8.766  -0.701  22.765  0.00  0.00    +0.017 A 
ATOM      6  C   UNL     1       8.323  -1.885  22.174  0.00  0.00    +0.026 A 
ENDROOT
BRANCH   1   9
ATOM      7  C   UNL     1       6.073  -5.785  21.306  0.00  0.00    +0.109 C 
ATOM      8  C   UNL     1       6.251  -4.384  21.842  0.00  0.00    +0.214 C 
ATOM      9  N   UNL     1       7.559  -4.125  22.193  0.00  0.00    -0.284 N 
ATOM     10  H   UNL     1       8.159  -4.943  22.236  0.00  0.00    +0.155 HD
ATOM     11  O   UNL     1       5.332  -3.572  21.907  0.00  0.00    -0.276 OA
ENDBRANCH   1   9
BRANCH   2  12
ATOM     12  N   UNL     1       7.822  -4.071  25.174  0.00  0.00    -0.280 N 
ATOM     13  H   UNL     1       8.644  -4.615  25.440  0.00  0.00    +0.155 HD
ATOM     14  C   UNL     1       6.575  -4.417  25.646  0.00  0.00    +0.262 C 
ATOM     15  O   UNL     1       5.488  -3.958  25.278  0.00  0.00    -0.270 OA
BRANCH  14  16
ATOM     16  C   UNL     1       6.526  -5.455  26.756  0.00  0.00    +0.225 C 
BRANCH  16  17
ATOM     17  N   UNL     1       7.946  -5.847  27.088  0.00  0.00    +0.225 N 
ATOM     18  H   UNL     1       8.221  -6.772  26.742  0.00  0.00    +0.200 HD
ATOM     19  H   UNL     1       8.025  -5.846  28.124  0.00  0.00    +0.200 HD
ATOM     20  H   UNL     1       8.617  -5.140  26.765  0.00  0.00    +0.200 HD
ENDBRANCH  16  17
ENDBRANCH  14  16
ENDBRANCH   2  12
BRANCH   4  21
ATOM     21  C   UNL     1       9.306   0.597  24.869  0.00  0.00    +0.337 C 
ATOM     22  O   UNL     1       8.668   1.638  24.886  0.00  0.00    -0.245 OA
BRANCH  21  23
ATOM     23  O   UNL     1      10.511   0.467  25.469  0.00  0.00    -0.477 OA
ATOM     24  H   UNL     1      10.961   1.295  25.719  0.00  0.00    +0.295 HD
ENDBRANCH  21  23
ENDBRANCH   4  21
TORSDOF 6
ENDMDL
MODEL 8
REMARK VINA RESULT:      -5.5      2.718      5.858
REMARK  Name = 
REMARK  7 active torsions:
REMARK  status: ('A' for Active; 'I' for Inactive)
REMARK    1  A    between atoms: C_1  and  C_2
REMARK    2  A    between atoms: N_4  and  C_5
REMARK    3  A    between atoms: C_8  and  C_19
REMARK    4  A    between atoms: C_10  and  N_11
REMARK    5  A    between atoms: C_12  and  C_14
REMARK    6  A    between atoms: C_14  and  N_15
REMARK    7  A    between atoms: C_19  and  O_20
REMARK                            x       y       z     vdW  Elec       q    Type
REMARK                         _______ _______ _______ _____ _____    ______ ____
ROOT
ATOM      1  C   UNL     1       7.357  -3.407  23.012  0.00  0.00    +0.055 A 
ATOM      2  C   UNL     1       6.807  -3.272  24.307  0.00  0.00    +0.056 A 
ATOM      3  C   UNL     1       6.076  -4.348  24.833  0.00  0.00    +0.040 A 
ATOM      4  C   UNL     1       5.864  -5.527  24.104  0.00  0.00    +0.061 A 
ATOM      5  C   UNL     1       6.383  -5.637  22.816  0.00  0.00    +0.017 A 
ATOM      6  C   UNL     1       7.150  -4.595  22.294  0.00  0.00    +0.026 A 
ENDROOT
BRANCH   1   9
ATOM      7  C   UNL     1       9.930  -0.870  21.982  0.00  0.00    +0.109 C 
ATOM      8  C   UNL     1       9.456  -2.108  22.707  0.00  0.00    +0.214 C 
ATOM      9  N   UNL     1       8.173  -2.461  22.348  0.00  0.00    -0.284 N 
ATOM     10  H   UNL     1       7.668  -1.754  21.823  0.00  0.00    +0.155 HD
ATOM     11  O   UNL     1      10.165  -2.737  23.488  0.00  0.00    -0.276 OA
ENDBRANCH   1   9
BRANCH   2  12
ATOM     12  N   UNL     1       6.977  -2.081  25.065  0.00  0.00    -0.280 N 
ATOM     13  H   UNL     1       6.375  -1.311  24.770  0.00  0.00    +0.155 HD
ATOM     14  C   UNL     1       7.821  -1.931  26.142  0.00  0.00    +0.262 C 
ATOM     15  O   UNL     1       8.715  -2.708  26.500  0.00  0.00    -0.270 OA
BRANCH  14  16
ATOM     16  C   UNL     1       7.622  -0.694  27.003  0.00  0.00    +0.225 C 
BRANCH  16  17
ATOM     17  N   UNL     1       8.956  -0.327  27.607  0.00  0.00    +0.225 N 
ATOM     18  H   UNL     1       9.687  -1.033  27.475  0.00  0.00    +0.200 HD
ATOM     19  H   UNL     1       8.801  -0.199  28.626  0.00  0.00    +0.200 HD
ATOM     20  H   UNL     1       9.286   0.585  27.267  0.00  0.00    +0.200 HD
ENDBRANCH  16  17
ENDBRANCH  14  16
ENDBRANCH   2  12
BRANCH   4  21
ATOM     21  C   UNL     1       5.031  -6.573  24.739  0.00  0.00    +0.337 C 
ATOM     22  O   UNL     1       4.901  -6.665  25.950  0.00  0.00    -0.245 OA
BRANCH  21  23
ATOM     23  O   UNL     1       4.456  -7.440  23.874  0.00  0.00    -0.477 OA
ATOM     24  H   UNL     1       4.781  -7.413  22.955  0.00  0.00    +0.295 HD
ENDBRANCH  21  23
ENDBRANCH   4  21
TORSDOF 6
ENDMDL
MODEL 9
REMARK VINA RESULT:      -5.4      2.693      6.069
REMARK  Name = 
REMARK  7 active torsions:
REMARK  status: ('A' for Active; 'I' for Inactive)
REMARK    1  A    between atoms: C_1  and  C_2
REMARK    2  A    between atoms: N_4  and  C_5
REMARK    3  A    between atoms: C_8  and  C_19
REMARK    4  A    between atoms: C_10  and  N_11
REMARK    5  A    between atoms: C_12  and  C_14
REMARK    6  A    between atoms: C_14  and  N_15
REMARK    7  A    between atoms: C_19  and  O_20
REMARK                            x       y       z     vdW  Elec       q    Type
REMARK                         _______ _______ _______ _____ _____    ______ ____
ROOT
ATOM      1  C   UNL     1       7.932  -0.979  25.350  0.00  0.00    +0.055 A 
ATOM      2  C   UNL     1       8.278  -1.513  24.088  0.00  0.00    +0.056 A 
ATOM      3  C   UNL     1       8.707  -2.848  24.027  0.00  0.00    +0.040 A 
ATOM      4  C   UNL     1       8.820  -3.643  25.176  0.00  0.00    +0.061 A 
ATOM      5  C   UNL     1       8.507  -3.098  26.419  0.00  0.00    +0.017 A 
ATOM      6  C   UNL     1       8.036  -1.787  26.494  0.00  0.00    +0.026 A 
ENDROOT
BRANCH   1   9
ATOM      7  C   UNL     1       7.379   2.665  26.079  0.00  0.00    +0.109 C 
ATOM      8  C   UNL     1       8.111   1.499  25.455  0.00  0.00    +0.214 C 
ATOM      9  N   UNL     1       7.419   0.316  25.597  0.00  0.00    -0.284 N 
ATOM     10  H   UNL     1       6.645   0.350  26.253  0.00  0.00    +0.155 HD
ATOM     11  O   UNL     1       9.177   1.623  24.857  0.00  0.00    -0.276 OA
ENDBRANCH   1   9
BRANCH   2  12
ATOM     12  N   UNL     1       8.204  -0.728  22.905  0.00  0.00    -0.280 N 
ATOM     13  H   UNL     1       7.252  -0.497  22.619  0.00  0.00    +0.155 HD
ATOM     14  C   UNL     1       9.280  -0.250  22.193  0.00  0.00    +0.262 C 
ATOM     15  O   UNL     1      10.464  -0.583  22.322  0.00  0.00    -0.270 OA
BRANCH  14  16
ATOM     16  C   UNL     1       8.994   0.823  21.154  0.00  0.00    +0.225 C 
BRANCH  16  17
ATOM     17  N   UNL     1       9.622   2.111  21.630  0.00  0.00    +0.225 N 
ATOM     18  H   UNL     1       9.628   2.861  20.932  0.00  0.00    +0.200 HD
ATOM     19  H   UNL     1      10.604   1.891  21.888  0.00  0.00    +0.200 HD
ATOM     20  H   UNL     1       9.184   2.445  22.498  0.00  0.00    +0.200 HD
ENDBRANCH  16  17
ENDBRANCH  14  16
ENDBRANCH   2  12
BRANCH   4  21
ATOM     21  C   UNL     1       9.336  -5.020  24.997  0.00  0.00    +0.337 C 
ATOM     22  O   UNL     1       8.974  -5.744  24.083  0.00  0.00    -0.245 OA
BRANCH  21  23
ATOM     23  O   UNL     1      10.211  -5.423  25.947  0.00  0.00    -0.477 OA
ATOM     24  H   UNL     1      10.591  -4.723  26.510  0.00  0.00    +0.295 HD
ENDBRANCH  21  23
ENDBRANCH   4  21
TORSDOF 6
ENDMDL
