MODEL 1
REMARK VINA RESULT:      -6.2      0.000      0.000
REMARK  Name = 
REMARK  6 active torsions:
REMARK  status: ('A' for Active; 'I' for Inactive)
REMARK    1  A    between atoms: C_1  and  C_2
REMARK    2  A    between atoms: C_2  and  C_3
REMARK    3  A    between atoms: C_2  and  C_6
REMARK    4  A    between atoms: C_3  and  O_4
REMARK    5  A    between atoms: C_9  and  C_12
REMARK    6  A    between atoms: C_12  and  C_14
REMARK                            x       y       z     vdW  Elec       q    Type
REMARK                         _______ _______ _______ _____ _____    ______ ____
ROOT
ATOM      1  C   UNL     1       9.043  -0.034  23.784  0.00  0.00    -0.034 A 
ATOM      2  C   UNL     1       7.782  -0.567  24.089  0.00  0.00    +0.005 A 
ATOM      3  C   UNL     1       7.604  -1.945  24.218  0.00  0.00    +0.012 A 
ATOM      4  C   UNL     1       8.665  -2.827  23.982  0.00  0.00    +0.023 A 
ATOM      5  C   UNL     1       9.937  -2.299  23.727  0.00  0.00    +0.012 A 
ATOM      6  C   UNL     1      10.125  -0.917  23.632  0.00  0.00    +0.005 A 
ENDROOT
BRANCH   1   8
ATOM      7  C   UNL     1      10.625   1.872  24.043  0.00  0.00    +0.024 C 
ATOM      8  C   UNL     1       9.242   1.454  23.534  0.00  0.00    +0.124 C 
BRANCH   8   9
ATOM      9  C   UNL     1       9.054   1.881  22.080  0.00  0.00    +0.312 C 
ATOM     10  O   UNL     1       7.991   1.872  21.478  0.00  0.00    -0.250 OA
BRANCH   9  11
ATOM     11  O   UNL     1      10.205   2.259  21.474  0.00  0.00    -0.480 OA
ATOM     12  H   UNL     1      10.088   2.997  20.842  0.00  0.00    +0.295 HD
ENDBRANCH   9  11
ENDBRANCH   8   9
ENDBRANCH   1   8
BRANCH   4  13
ATOM     13  C   UNL     1       8.494  -4.314  24.023  0.00  0.00    +0.200 C 
ATOM     14  O   UNL     1       9.374  -4.956  24.601  0.00  0.00    -0.286 OA
BRANCH  13  15
ATOM     15  C   UNL     1       7.319  -4.961  23.450  0.00  0.00    +0.059 A 
ATOM     16  S   UNL     1       5.919  -5.339  24.371  0.00  0.00    -0.093 S 
ATOM     17  C   UNL     1       5.175  -6.122  23.048  0.00  0.00    +0.046 A 
ATOM     18  C   UNL     1       5.903  -5.975  21.891  0.00  0.00    +0.008 A 
ATOM     19  C   UNL     1       7.120  -5.268  22.116  0.00  0.00    +0.019 A 
ENDBRANCH  13  15
ENDBRANCH   4  13
TORSDOF 5
ENDMDL
MODEL 2
REMARK VINA RESULT:      -6.1      1.382      1.899
REMARK  Name = 
REMARK  6 active torsions:
REMARK  status: ('A' for Active; 'I' for Inactive)
REMARK    1  A    between atoms: C_1  and  C_2
REMARK    2  A    between atoms: C_2  and  C_3
REMARK    3  A    between atoms: C_2  and  C_6
REMARK    4  A    between atoms: C_3  and  O_4
REMARK    5  A    between atoms: C_9  and  C_12
REMARK    6  A    between atoms: C_12  and  C_14
REMARK                            x       y       z     vdW  Elec       q    Type
REMARK                         _______ _______ _______ _____ _____    ______ ____
ROOT
ATOM      1  C   UNL     1       9.221   0.013  23.791  0.00  0.00    -0.034 A 
ATOM      2  C   UNL     1       9.952  -0.937  23.062  0.00  0.00    +0.005 A 
ATOM      3  C   UNL     1       9.862  -2.295  23.371  0.00  0.00    +0.012 A 
ATOM      4  C   UNL     1       9.092  -2.731  24.456  0.00  0.00    +0.023 A 
ATOM      5  C   UNL     1       8.322  -1.794  25.157  0.00  0.00    +0.012 A 
ATOM      6  C   UNL     1       8.384  -0.436  24.825  0.00  0.00    +0.005 A 
ENDROOT
BRANCH   1   8
ATOM      7  C   UNL     1      10.766   1.951  24.026  0.00  0.00    +0.024 C 
ATOM      8  C   UNL     1       9.382   1.505  23.545  0.00  0.00    +0.124 C 
BRANCH   8   9
ATOM      9  C   UNL     1       9.153   1.936  22.098  0.00  0.00    +0.312 C 
ATOM     10  O   UNL     1       8.078   1.906  21.519  0.00  0.00    -0.250 OA
BRANCH   9  11
ATOM     11  O   UNL     1      10.282   2.344  21.470  0.00  0.00    -0.480 OA
ATOM     12  H   UNL     1      10.412   3.314  21.493  0.00  0.00    +0.295 HD
ENDBRANCH   9  11
ENDBRANCH   8   9
ENDBRANCH   1   8
BRANCH   4  13
ATOM     13  C   UNL     1       9.040  -4.167  24.875  0.00  0.00    +0.200 C 
ATOM     14  O   UNL     1      10.113  -4.775  24.898  0.00  0.00    -0.286 OA
BRANCH  13  15
ATOM     15  C   UNL     1       7.789  -4.797  25.282  0.00  0.00    +0.059 A 
ATOM     16  S   UNL     1       7.423  -5.176  26.916  0.00  0.00    -0.093 S 
ATOM     17  C   UNL     1       5.955  -5.935  26.485  0.00  0.00    +0.046 A 
ATOM     18  C   UNL     1       5.671  -5.778  25.149  0.00  0.00    +0.008 A 
ATOM     19  C   UNL     1       6.710  -5.083  24.464  0.00  0.00    +0.019 A 
ENDBRANCH  13  15
ENDBRANCH   4  13
TORSDOF 5
ENDMDL
MODEL 3
REMARK VINA RESULT:      -6.1      2.964      6.766
REMARK  Name = 
REMARK  6 active torsions:
REMARK  status: ('A' for Active; 'I' for Inactive)
REMARK    1  A    between atoms: C_1  and  C_2
REMARK    2  A    between atoms: C_2  and  C_3
REMARK    3  A    between atoms: C_2  and  C_6
REMARK    4  A    between atoms: C_3  and  O_4
REMARK    5  A    between atoms: C_9  and  C_12
REMARK    6  A    between atoms: C_12  and  C_14
REMARK                            x       y       z     vdW  Elec       q    Type
REMARK                         _______ _______ _______ _____ _____    ______ ____
ROOT
ATOM      1  C   UNL     1       7.153  -3.723  25.456  0.00  0.00    -0.034 A 
ATOM      2  C   UNL     1       7.876  -2.678  26.050  0.00  0.00    +0.005 A 
ATOM      3  C   UNL     1       8.786  -1.928  25.305  0.00  0.00    +0.012 A 
ATOM      4  C   UNL     1       9.044  -2.244  23.966  0.00  0.00    +0.023 A 
ATOM      5  C   UNL     1       8.291  -3.254  23.353  0.00  0.00    +0.012 A 
ATOM      6  C   UNL     1       7.352  -3.983  24.090  0.00  0.00    +0.005 A 
ENDROOT
BRANCH   1   8
ATOM      7  C   UNL     1       5.584  -5.653  25.341  0.00  0.00    +0.024 C 
ATOM      8  C   UNL     1       6.235  -4.624  26.269  0.00  0.00    +0.124 C 
BRANCH   8   9
ATOM      9  C   UNL     1       6.913  -5.318  27.448  0.00  0.00    +0.312 C 
ATOM     10  O   UNL     1       6.519  -5.282  28.605  0.00  0.00    -0.250 OA
BRANCH   9  11
ATOM     11  O   UNL     1       8.046  -5.980  27.109  0.00  0.00    -0.480 OA
ATOM     12  H   UNL     1       8.728  -5.969  27.811  0.00  0.00    +0.295 HD
ENDBRANCH   9  11
ENDBRANCH   8   9
ENDBRANCH   1   8
BRANCH   4  13
ATOM     13  C   UNL     1      10.077  -1.522  23.158  0.00  0.00    +0.200 C 
ATOM     14  O   UNL     1      10.874  -2.221  22.527  0.00  0.00    -0.286 OA
BRANCH  13  15
ATOM     15  C   UNL     1      10.103  -0.065  23.084  0.00  0.00    +0.059 A 
ATOM     16  S   UNL     1      10.753   0.922  24.329  0.00  0.00    -0.093 S 
ATOM     17  C   UNL     1      10.288   2.358  23.531  0.00  0.00    +0.046 A 
ATOM     18  C   UNL     1       9.782   2.106  22.277  0.00  0.00    +0.008 A 
ATOM     19  C   UNL     1       9.715   0.708  22.004  0.00  0.00    +0.019 A 
ENDBRANCH  13  15
ENDBRANCH   4  13
TORSDOF 5
ENDMDL
MODEL 4
REMARK VINA RESULT:      -6.0      1.103      1.401
REMARK  Name = 
REMARK  6 active torsions:
REMARK  status: ('A' for Active; 'I' for Inactive)
REMARK    1  A    between atoms: C_1  and  C_2
REMARK    2  A    between atoms: C_2  and  C_3
REMARK    3  A    between atoms: C_2  and  C_6
REMARK    4  A    between atoms: C_3  and  O_4
REMARK    5  A    between atoms: C_9  and  C_12
REMARK    6  A    between atoms: C_12  and  C_14
REMARK                            x       y       z     vdW  Elec       q    Type
REMARK                         _______ _______ _______ _____ _____    ______ ____
ROOT
ATOM      1  C   UNL     1       9.236  -0.020  22.761  0.00  0.00    -0.034 A 
ATOM      2  C   UNL     1       7.943  -0.475  23.059  0.00  0.00    +0.005 A 
ATOM      3  C   UNL     1       7.733  -1.780  23.504  0.00  0.00    +0.012 A 
ATOM      4  C   UNL     1       8.799  -2.683  23.600  0.00  0.00    +0.023 A 
ATOM      5  C   UNL     1      10.098  -2.221  23.351  0.00  0.00    +0.012 A 
ATOM      6  C   UNL     1      10.314  -0.902  22.939  0.00  0.00    +0.005 A 
ENDROOT
BRANCH   1   8
ATOM      7  C   UNL     1       8.188   1.877  21.536  0.00  0.00    +0.024 C 
ATOM      8  C   UNL     1       9.481   1.362  22.174  0.00  0.00    +0.124 C 
BRANCH   8   9
ATOM      9  C   UNL     1      10.032   2.382  23.167  0.00  0.00    +0.312 C 
ATOM     10  O   UNL     1       9.776   2.409  24.361  0.00  0.00    -0.250 OA
BRANCH   9  11
ATOM     11  O   UNL     1      10.837   3.312  22.598  0.00  0.00    -0.480 OA
ATOM     12  H   UNL     1      10.484   3.671  21.758  0.00  0.00    +0.295 HD
ENDBRANCH   9  11
ENDBRANCH   8   9
ENDBRANCH   1   8
BRANCH   4  13
ATOM     13  C   UNL     1       8.602  -4.115  23.987  0.00  0.00    +0.200 C 
ATOM     14  O   UNL     1       9.458  -4.611  24.725  0.00  0.00    -0.286 OA
BRANCH  13  15
ATOM     15  C   UNL     1       7.430  -4.867  23.553  0.00  0.00    +0.059 A 
ATOM     16  S   UNL     1       6.093  -5.188  24.581  0.00  0.00    -0.093 S 
ATOM     17  C   UNL     1       5.321  -6.146  23.396  0.00  0.00    +0.046 A 
ATOM     18  C   UNL     1       5.988  -6.107  22.193  0.00  0.00    +0.008 A 
ATOM     19  C   UNL     1       7.183  -5.334  22.274  0.00  0.00    +0.019 A 
ENDBRANCH  13  15
ENDBRANCH   4  13
TORSDOF 5
ENDMDL
MODEL 5
REMARK VINA RESULT:      -5.8      2.937      6.543
REMARK  Name = 
REMARK  6 active torsions:
REMARK  status: ('A' for Active; 'I' for Inactive)
REMARK    1  A    between atoms: C_1  and  C_2
REMARK    2  A    between atoms: C_2  and  C_3
REMARK    3  A    between atoms: C_2  and  C_6
REMARK    4  A    between atoms: C_3  and  O_4
REMARK    5  A    between atoms: C_9  and  C_12
REMARK    6  A    between atoms: C_12  and  C_14
REMARK                            x       y       z     vdW  Elec       q    Type
REMARK                         _______ _______ _______ _____ _____    ______ ____
ROOT
ATOM      1  C   UNL     1       6.856  -4.118  23.919  0.00  0.00    -0.034 A 
ATOM      2  C   UNL     1       8.121  -4.250  24.511  0.00  0.00    +0.005 A 
ATOM      3  C   UNL     1       9.148  -3.359  24.200  0.00  0.00    +0.012 A 
ATOM      4  C   UNL     1       8.957  -2.354  23.243  0.00  0.00    +0.023 A 
ATOM      5  C   UNL     1       7.683  -2.187  22.686  0.00  0.00    +0.012 A 
ATOM      6  C   UNL     1       6.642  -3.058  23.024  0.00  0.00    +0.005 A 
ENDROOT
BRANCH   1   8
ATOM      7  C   UNL     1       4.872  -4.665  25.320  0.00  0.00    +0.024 C 
ATOM      8  C   UNL     1       5.752  -5.137  24.159  0.00  0.00    +0.124 C 
BRANCH   8   9
ATOM      9  C   UNL     1       4.899  -5.447  22.931  0.00  0.00    +0.312 C 
ATOM     10  O   UNL     1       3.776  -5.010  22.728  0.00  0.00    -0.250 OA
BRANCH   9  11
ATOM     11  O   UNL     1       5.492  -6.300  22.061  0.00  0.00    -0.480 OA
ATOM     12  H   UNL     1       5.870  -7.094  22.491  0.00  0.00    +0.295 HD
ENDBRANCH   9  11
ENDBRANCH   8   9
ENDBRANCH   1   8
BRANCH   4  13
ATOM     13  C   UNL     1      10.059  -1.435  22.817  0.00  0.00    +0.200 C 
ATOM     14  O   UNL     1      11.017  -1.952  22.237  0.00  0.00    -0.286 OA
BRANCH  13  15
ATOM     15  C   UNL     1       9.976   0.005  23.034  0.00  0.00    +0.059 A 
ATOM     16  S   UNL     1      10.198   0.732  24.574  0.00  0.00    -0.093 S 
ATOM     17  C   UNL     1       9.827   2.287  23.972  0.00  0.00    +0.046 A 
ATOM     18  C   UNL     1       9.682   2.284  22.605  0.00  0.00    +0.008 A 
ATOM     19  C   UNL     1       9.810   0.974  22.060  0.00  0.00    +0.019 A 
ENDBRANCH  13  15
ENDBRANCH   4  13
TORSDOF 5
ENDMDL
MODEL 6
REMARK VINA RESULT:      -5.7      2.428      3.440
REMARK  Name = 
REMARK  6 active torsions:
REMARK  status: ('A' for Active; 'I' for Inactive)
REMARK    1  A    between atoms: C_1  and  C_2
REMARK    2  A    between atoms: C_2  and  C_3
REMARK    3  A    between atoms: C_2  and  C_6
REMARK    4  A    between atoms: C_3  and  O_4
REMARK    5  A    between atoms: C_9  and  C_12
REMARK    6  A    between atoms: C_12  and  C_14
REMARK                            x       y       z     vdW  Elec       q    Type
REMARK                         _______ _______ _______ _____ _____    ______ ____
ROOT
ATOM      1  C   UNL     1       9.495   2.704  23.508  0.00  0.00    -0.034 A 
ATOM      2  C   UNL     1       9.850   1.822  24.540  0.00  0.00    +0.005 A 
ATOM      3  C   UNL     1      10.018   0.461  24.287  0.00  0.00    +0.012 A 
ATOM      4  C   UNL     1       9.774  -0.064  23.012  0.00  0.00    +0.023 A 
ATOM      5  C   UNL     1       9.468   0.818  21.967  0.00  0.00    +0.012 A 
ATOM      6  C   UNL     1       9.334   2.188  22.212  0.00  0.00    +0.005 A 
ENDROOT
BRANCH   1   8
ATOM      7  C   UNL     1       8.509   4.308  25.137  0.00  0.00    +0.024 C 
ATOM      8  C   UNL     1       9.202   4.172  23.778  0.00  0.00    +0.124 C 
BRANCH   8   9
ATOM      9  C   UNL     1      10.423   5.085  23.706  0.00  0.00    +0.312 C 
ATOM     10  O   UNL     1      10.449   6.253  24.064  0.00  0.00    -0.250 OA
BRANCH   9  11
ATOM     11  O   UNL     1      11.514   4.489  23.167  0.00  0.00    -0.480 OA
ATOM     12  H   UNL     1      11.299   3.865  22.444  0.00  0.00    +0.295 HD
ENDBRANCH   9  11
ENDBRANCH   8   9
ENDBRANCH   1   8
BRANCH   4  13
ATOM     13  C   UNL     1       9.857  -1.530  22.720  0.00  0.00    +0.200 C 
ATOM     14  O   UNL     1      10.917  -1.938  22.238  0.00  0.00    -0.286 OA
BRANCH  13  15
ATOM     15  C   UNL     1       8.757  -2.433  23.038  0.00  0.00    +0.059 A 
ATOM     16  S   UNL     1       8.782  -3.498  24.385  0.00  0.00    -0.093 S 
ATOM     17  C   UNL     1       7.288  -4.201  23.947  0.00  0.00    +0.046 A 
ATOM     18  C   UNL     1       6.706  -3.546  22.887  0.00  0.00    +0.008 A 
ATOM     19  C   UNL     1       7.536  -2.498  22.390  0.00  0.00    +0.019 A 
ENDBRANCH  13  15
ENDBRANCH   4  13
TORSDOF 5
ENDMDL
MODEL 7
REMARK VINA RESULT:      -5.7      2.208      3.213
REMARK  Name = 
REMARK  6 active torsions:
REMARK  status: ('A' for Active; 'I' for Inactive)
REMARK    1  A    between atoms: C_1  and  C_2
REMARK    2  A    between atoms: C_2  and  C_3
REMARK    3  A    between atoms: C_2  and  C_6
REMARK    4  A    between atoms: C_3  and  O_4
REMARK    5  A    between atoms: C_9  and  C_12
REMARK    6  A    between atoms: C_12  and  C_14
REMARK                            x       y       z     vdW  Elec       q    Type
REMARK                         _______ _______ _______ _____ _____    ______ ____
ROOT
ATOM      1  C   UNL     1       8.966   2.567  23.580  0.00  0.00    -0.034 A 
ATOM      2  C   UNL     1       8.661   1.613  24.563  0.00  0.00    +0.005 A 
ATOM      3  C   UNL     1       8.994   0.271  24.378  0.00  0.00    +0.012 A 
ATOM      4  C   UNL     1       9.581  -0.162  23.183  0.00  0.00    +0.023 A 
ATOM      5  C   UNL     1       9.933   0.792  22.220  0.00  0.00    +0.012 A 
ATOM      6  C   UNL     1       9.631   2.143  22.419  0.00  0.00    +0.005 A 
ENDROOT
BRANCH   1   8
ATOM      7  C   UNL     1       9.753   4.918  23.806  0.00  0.00    +0.024 C 
ATOM      8  C   UNL     1       8.520   4.016  23.709  0.00  0.00    +0.124 C 
BRANCH   8   9
ATOM      9  C   UNL     1       7.593   4.493  22.593  0.00  0.00    +0.312 C 
ATOM     10  O   UNL     1       6.594   3.903  22.210  0.00  0.00    -0.250 OA
BRANCH   9  11
ATOM     11  O   UNL     1       7.992   5.652  22.016  0.00  0.00    -0.480 OA
ATOM     12  H   UNL     1       8.468   6.249  22.630  0.00  0.00    +0.295 HD
ENDBRANCH   9  11
ENDBRANCH   8   9
ENDBRANCH   1   8
BRANCH   4  13
ATOM     13  C   UNL     1       9.872  -1.605  22.911  0.00  0.00    +0.200 C 
ATOM     14  O   UNL     1      10.886  -1.850  22.252  0.00  0.00    -0.286 OA
BRANCH  13  15
ATOM     15  C   UNL     1       9.025  -2.667  23.444  0.00  0.00    +0.059 A 
ATOM     16  S   UNL     1       7.524  -3.108  22.734  0.00  0.00    -0.093 S 
ATOM     17  C   UNL     1       7.190  -4.236  23.973  0.00  0.00    +0.046 A 
ATOM     18  C   UNL     1       8.256  -4.386  24.829  0.00  0.00    +0.008 A 
ATOM     19  C   UNL     1       9.331  -3.510  24.497  0.00  0.00    +0.019 A 
ENDBRANCH  13  15
ENDBRANCH   4  13
TORSDOF 5
ENDMDL
MODEL 8
REMARK VINA RESULT:      -5.6      2.818      6.849
REMARK  Name = 
REMARK  6 active torsions:
REMARK  status: ('A' for Active; 'I' for Inactive)
REMARK    1  A    between atoms: C_1  and  C_2
REMARK    2  A    between atoms: C_2  and  C_3
REMARK    3  A    between atoms: C_2  and  C_6
REMARK    4  A    between atoms: C_3  and  O_4
REMARK    5  A    between atoms: C_9  and  C_12
REMARK    6  A    between atoms: C_12  and  C_14
REMARK                            x       y       z     vdW  Elec       q    Type
REMARK                         _______ _______ _______ _____ _____    ______ ____
ROOT
ATOM      1  C   UNL     1       5.770  -4.228  24.348  0.00  0.00    -0.034 A 
ATOM      2  C   UNL     1       6.332  -3.393  25.326  0.00  0.00    +0.005 A 
ATOM      3  C   UNL     1       7.528  -2.718  25.083  0.00  0.00    +0.012 A 
ATOM      4  C   UNL     1       8.226  -2.911  23.885  0.00  0.00    +0.023 A 
ATOM      5  C   UNL     1       7.646  -3.704  22.886  0.00  0.00    +0.012 A 
ATOM      6  C   UNL     1       6.429  -4.353  23.115  0.00  0.00    +0.005 A 
ENDROOT
BRANCH   1   8
ATOM      7  C   UNL     1       3.605  -5.013  23.401  0.00  0.00    +0.024 C 
ATOM      8  C   UNL     1       4.524  -5.057  24.626  0.00  0.00    +0.124 C 
BRANCH   8   9
ATOM      9  C   UNL     1       4.804  -6.501  25.035  0.00  0.00    +0.312 C 
ATOM     10  O   UNL     1       5.249  -6.849  26.119  0.00  0.00    -0.250 OA
BRANCH   9  11
ATOM     11  O   UNL     1       4.538  -7.402  24.059  0.00  0.00    -0.480 OA
ATOM     12  H   UNL     1       4.025  -8.175  24.372  0.00  0.00    +0.295 HD
ENDBRANCH   9  11
ENDBRANCH   8   9
ENDBRANCH   1   8
BRANCH   4  13
ATOM     13  C   UNL     1       9.556  -2.275  23.622  0.00  0.00    +0.200 C 
ATOM     14  O   UNL     1      10.545  -3.007  23.709  0.00  0.00    -0.286 OA
BRANCH  13  15
ATOM     15  C   UNL     1       9.667  -0.873  23.235  0.00  0.00    +0.059 A 
ATOM     16  S   UNL     1       9.442  -0.330  21.621  0.00  0.00    -0.093 S 
ATOM     17  C   UNL     1       9.852   1.277  22.030  0.00  0.00    +0.046 A 
ATOM     18  C   UNL     1      10.013   1.433  23.387  0.00  0.00    +0.008 A 
ATOM     19  C   UNL     1       9.864   0.200  24.085  0.00  0.00    +0.019 A 
ENDBRANCH  13  15
ENDBRANCH   4  13
TORSDOF 5
ENDMDL
MODEL 9
REMARK VINA RESULT:      -5.6      2.203      3.039
REMARK  Name = 
REMARK  6 active torsions:
REMARK  status: ('A' for Active; 'I' for Inactive)
REMARK    1  A    between atoms: C_1  and  C_2
REMARK    2  A    between atoms: C_2  and  C_3
REMARK    3  A    between atoms: C_2  and  C_6
REMARK    4  A    between atoms: C_3  and  O_4
REMARK    5  A    between atoms: C_9  and  C_12
REMARK    6  A    between atoms: C_12  and  C_14
REMARK                            x       y       z     vdW  Elec       q    Type
REMARK                         _______ _______ _______ _____ _____    ______ ____
ROOT
ATOM      1  C   UNL     1       8.542   0.665  22.281  0.00  0.00    -0.034 A 
ATOM      2  C   UNL     1       9.402  -0.326  21.783  0.00  0.00    +0.005 A 
ATOM      3  C   UNL     1       9.077  -1.677  21.906  0.00  0.00    +0.012 A 
ATOM      4  C   UNL     1       7.919  -2.074  22.584  0.00  0.00    +0.023 A 
ATOM      5  C   UNL     1       7.032  -1.090  23.039  0.00  0.00    +0.012 A 
ATOM      6  C   UNL     1       7.340   0.266  22.885  0.00  0.00    +0.005 A 
ENDROOT
BRANCH   1   8
ATOM      7  C   UNL     1       7.655   2.984  22.099  0.00  0.00    +0.024 C 
ATOM      8  C   UNL     1       8.922   2.138  22.256  0.00  0.00    +0.124 C 
BRANCH   8   9
ATOM      9  C   UNL     1       9.731   2.603  23.464  0.00  0.00    +0.312 C 
ATOM     10  O   UNL     1      10.951   2.591  23.539  0.00  0.00    -0.250 OA
BRANCH   9  11
ATOM     11  O   UNL     1       8.965   3.022  24.500  0.00  0.00    -0.480 OA
ATOM     12  H   UNL     1       9.140   3.948  24.764  0.00  0.00    +0.295 HD
ENDBRANCH   9  11
ENDBRANCH   8   9
ENDBRANCH   1   8
BRANCH   4  13
ATOM     13  C   UNL     1       7.580  -3.514  22.814  0.00  0.00    +0.200 C 
ATOM     14  O   UNL     1       7.200  -4.156  21.832  0.00  0.00    -0.286 OA
BRANCH  13  15
ATOM     15  C   UNL     1       7.741  -4.134  24.125  0.00  0.00    +0.059 A 
ATOM     16  S   UNL     1       9.218  -4.098  25.000  0.00  0.00    -0.093 S 
ATOM     17  C   UNL     1       8.588  -5.087  26.241  0.00  0.00    +0.046 A 
ATOM     18  C   UNL     1       7.243  -5.322  26.076  0.00  0.00    +0.008 A 
ATOM     19  C   UNL     1       6.746  -4.735  24.875  0.00  0.00    +0.019 A 
ENDBRANCH  13  15
ENDBRANCH   4  13
TORSDOF 5
ENDMDL
