MODEL 1
REMARK VINA RESULT:      -7.3      0.000      0.000
REMARK  Name = 
REMARK  8 active torsions:
REMARK  status: ('A' for Active; 'I' for Inactive)
REMARK    1  A    between atoms: C_1  and  O_2
REMARK    2  A    between atoms: O_2  and  C_3
REMARK    3  A    between atoms: C_5  and  O_6
REMARK    4  A    between atoms: O_6  and  C_7
REMARK    5  A    between atoms: C_9  and  C_10
REMARK    6  A    between atoms: C_10  and  N_11
REMARK    7  A    between atoms: N_11  and  C_12
REMARK    8  A    between atoms: N_11  and  C_13
REMARK                            x       y       z     vdW  Elec       q    Type
REMARK                         _______ _______ _______ _____ _____    ______ ____
ROOT
ATOM      1  C   UNL     1       8.690  -2.590  25.450  0.00  0.00    +0.049 A 
ATOM      2  C   UNL     1       9.055  -2.244  24.147  0.00  0.00    +0.039 A 
ATOM      3  C   UNL     1       9.385  -0.908  23.789  0.00  0.00    +0.061 A 
ATOM      4  C   UNL     1       9.322   0.084  24.756  0.00  0.00    +0.167 A 
ATOM      5  N   UNL     1       9.590   1.353  24.488  0.00  0.00    -0.195 NA
ATOM      6  C   UNL     1       9.934   1.668  23.246  0.00  0.00    +0.216 A 
ATOM      7  N   UNL     1      10.073   0.799  22.247  0.00  0.00    -0.199 NA
ATOM      8  N   UNL     1      10.198   2.997  22.984  0.00  0.00    -0.327 N 
ATOM      9  H   UNL     1      10.837   3.083  22.209  0.00  0.00    +0.145 HD
ATOM     10  H   UNL     1      10.442   3.468  23.846  0.00  0.00    +0.145 HD
ATOM     11  N   UNL     1       8.992  -0.216  26.008  0.00  0.00    -0.234 NA
ATOM     12  C   UNL     1       9.787  -0.476  22.522  0.00  0.00    +0.131 A 
ATOM     13  N   UNL     1       9.976  -1.366  21.458  0.00  0.00    -0.342 N 
ATOM     14  H   UNL     1       9.153  -1.929  21.280  0.00  0.00    +0.144 HD
ATOM     15  H   UNL     1      10.231  -0.808  20.646  0.00  0.00    +0.144 HD
ATOM     16  C   UNL     1       8.702  -1.506  26.326  0.00  0.00    +0.136 A 
ENDROOT
BRANCH   1  17
ATOM     17  N   UNL     1       8.385  -3.888  25.835  0.00  0.00    -0.327 N 
ATOM     18  C   UNL     1       9.239  -5.012  25.458  0.00  0.00    +0.129 C 
BRANCH  17  19
ATOM     19  C   UNL     1       7.087  -4.237  26.444  0.00  0.00    +0.140 C 
BRANCH  19  22
ATOM     20  C   UNL     1       4.987  -4.801  23.298  0.00  0.00    +0.124 A 
ATOM     21  C   UNL     1       5.838  -4.228  24.251  0.00  0.00    +0.051 A 
ATOM     22  C   UNL     1       6.105  -4.869  25.474  0.00  0.00    -0.023 A 
ATOM     23  C   UNL     1       5.463  -6.090  25.732  0.00  0.00    +0.051 A 
ATOM     24  C   UNL     1       4.584  -6.654  24.806  0.00  0.00    +0.124 A 
ATOM     25  C   UNL     1       4.359  -6.011  23.585  0.00  0.00    +0.091 A 
BRANCH  20  27
ATOM     26  C   UNL     1       5.754  -2.993  21.953  0.00  0.00    +0.277 C 
ATOM     27  O   UNL     1       4.859  -4.086  22.137  0.00  0.00    -0.495 OA
ENDBRANCH  20  27
BRANCH  24  28
ATOM     28  O   UNL     1       3.897  -7.826  24.979  0.00  0.00    -0.495 OA
ATOM     29  C   UNL     1       2.548  -7.844  24.526  0.00  0.00    +0.277 C 
ENDBRANCH  24  28
ENDBRANCH  19  22
ENDBRANCH  17  19
ENDBRANCH   1  17
TORSDOF 5
ENDMDL
MODEL 2
REMARK VINA RESULT:      -7.2      1.007      2.981
REMARK  Name = 
REMARK  8 active torsions:
REMARK  status: ('A' for Active; 'I' for Inactive)
REMARK    1  A    between atoms: C_1  and  O_2
REMARK    2  A    between atoms: O_2  and  C_3
REMARK    3  A    between atoms: C_5  and  O_6
REMARK    4  A    between atoms: O_6  and  C_7
REMARK    5  A    between atoms: C_9  and  C_10
REMARK    6  A    between atoms: C_10  and  N_11
REMARK    7  A    between atoms: N_11  and  C_12
REMARK    8  A    between atoms: N_11  and  C_13
REMARK                            x       y       z     vdW  Elec       q    Type
REMARK                         _______ _______ _______ _____ _____    ______ ____
ROOT
ATOM      1  C   UNL     1       8.925  -2.751  25.046  0.00  0.00    +0.049 A 
ATOM      2  C   UNL     1       8.691  -1.411  25.361  0.00  0.00    +0.039 A 
ATOM      3  C   UNL     1       9.083  -0.355  24.493  0.00  0.00    +0.061 A 
ATOM      4  C   UNL     1       9.734  -0.664  23.308  0.00  0.00    +0.167 A 
ATOM      5  N   UNL     1      10.150   0.269  22.464  0.00  0.00    -0.195 NA
ATOM      6  C   UNL     1       9.923   1.537  22.778  0.00  0.00    +0.216 A 
ATOM      7  N   UNL     1       9.270   1.954  23.860  0.00  0.00    -0.199 NA
ATOM      8  N   UNL     1      10.375   2.494  21.892  0.00  0.00    -0.327 N 
ATOM      9  H   UNL     1       9.815   3.330  21.961  0.00  0.00    +0.145 HD
ATOM     10  H   UNL     1      10.484   2.080  20.975  0.00  0.00    +0.145 HD
ATOM     11  N   UNL     1       9.958  -1.931  22.972  0.00  0.00    -0.234 NA
ATOM     12  C   UNL     1       8.866   1.008  24.713  0.00  0.00    +0.131 A 
ATOM     13  N   UNL     1       8.153   1.478  25.822  0.00  0.00    -0.342 N 
ATOM     14  H   UNL     1       8.542   1.144  26.696  0.00  0.00    +0.144 HD
ATOM     15  H   UNL     1       8.164   2.495  25.773  0.00  0.00    +0.144 HD
ATOM     16  C   UNL     1       9.553  -2.920  23.813  0.00  0.00    +0.136 A 
ENDROOT
BRANCH   1  17
ATOM     17  N   UNL     1       8.534  -3.804  25.861  0.00  0.00    -0.327 N 
ATOM     18  C   UNL     1       9.418  -4.939  26.112  0.00  0.00    +0.129 C 
BRANCH  17  19
ATOM     19  C   UNL     1       7.144  -3.948  26.336  0.00  0.00    +0.140 C 
BRANCH  19  22
ATOM     20  C   UNL     1       4.559  -6.510  25.159  0.00  0.00    +0.124 A 
ATOM     21  C   UNL     1       5.433  -5.765  25.961  0.00  0.00    +0.051 A 
ATOM     22  C   UNL     1       6.264  -4.773  25.412  0.00  0.00    -0.023 A 
ATOM     23  C   UNL     1       6.223  -4.572  24.025  0.00  0.00    +0.051 A 
ATOM     24  C   UNL     1       5.385  -5.334  23.209  0.00  0.00    +0.124 A 
ATOM     25  C   UNL     1       4.546  -6.293  23.783  0.00  0.00    +0.091 A 
BRANCH  20  27
ATOM     26  C   UNL     1       2.669  -7.957  25.132  0.00  0.00    +0.277 C 
ATOM     27  O   UNL     1       3.778  -7.406  25.838  0.00  0.00    -0.495 OA
ENDBRANCH  20  27
BRANCH  24  28
ATOM     28  O   UNL     1       5.293  -5.225  21.847  0.00  0.00    -0.495 OA
ATOM     29  C   UNL     1       6.412  -5.685  21.096  0.00  0.00    +0.277 C 
ENDBRANCH  24  28
ENDBRANCH  19  22
ENDBRANCH  17  19
ENDBRANCH   1  17
TORSDOF 5
ENDMDL
MODEL 3
REMARK VINA RESULT:      -7.1      3.755      8.087
REMARK  Name = 
REMARK  8 active torsions:
REMARK  status: ('A' for Active; 'I' for Inactive)
REMARK    1  A    between atoms: C_1  and  O_2
REMARK    2  A    between atoms: O_2  and  C_3
REMARK    3  A    between atoms: C_5  and  O_6
REMARK    4  A    between atoms: O_6  and  C_7
REMARK    5  A    between atoms: C_9  and  C_10
REMARK    6  A    between atoms: C_10  and  N_11
REMARK    7  A    between atoms: N_11  and  C_12
REMARK    8  A    between atoms: N_11  and  C_13
REMARK                            x       y       z     vdW  Elec       q    Type
REMARK                         _______ _______ _______ _____ _____    ______ ____
ROOT
ATOM      1  C   UNL     1       8.774  -1.723  23.942  0.00  0.00    +0.049 A 
ATOM      2  C   UNL     1       9.263  -2.889  24.535  0.00  0.00    +0.039 A 
ATOM      3  C   UNL     1       8.399  -3.848  25.131  0.00  0.00    +0.061 A 
ATOM      4  C   UNL     1       7.033  -3.610  25.141  0.00  0.00    +0.167 A 
ATOM      5  N   UNL     1       6.172  -4.447  25.701  0.00  0.00    -0.195 NA
ATOM      6  C   UNL     1       6.651  -5.549  26.262  0.00  0.00    +0.216 A 
ATOM      7  N   UNL     1       7.932  -5.908  26.274  0.00  0.00    -0.199 NA
ATOM      8  N   UNL     1       5.739  -6.402  26.850  0.00  0.00    -0.327 N 
ATOM      9  H   UNL     1       6.090  -7.347  26.849  0.00  0.00    +0.145 HD
ATOM     10  H   UNL     1       4.822  -6.243  26.451  0.00  0.00    +0.145 HD
ATOM     11  N   UNL     1       6.535  -2.517  24.572  0.00  0.00    -0.234 NA
ATOM     12  C   UNL     1       8.795  -5.052  25.721  0.00  0.00    +0.131 A 
ATOM     13  N   UNL     1      10.130  -5.475  25.721  0.00  0.00    -0.342 N 
ATOM     14  H   UNL     1      10.750  -4.784  26.125  0.00  0.00    +0.144 HD
ATOM     15  H   UNL     1      10.162  -6.353  26.236  0.00  0.00    +0.144 HD
ATOM     16  C   UNL     1       7.384  -1.627  23.992  0.00  0.00    +0.136 A 
ENDROOT
BRANCH   1  17
ATOM     17  N   UNL     1       9.589  -0.780  23.333  0.00  0.00    -0.327 N 
ATOM     18  C   UNL     1       9.730  -0.722  21.881  0.00  0.00    +0.129 C 
BRANCH  17  19
ATOM     19  C   UNL     1      10.522   0.062  24.107  0.00  0.00    +0.140 C 
BRANCH  19  22
ATOM     20  C   UNL     1      10.819   3.837  23.574  0.00  0.00    +0.124 A 
ATOM     21  C   UNL     1      11.120   2.472  23.658  0.00  0.00    +0.051 A 
ATOM     22  C   UNL     1      10.166   1.539  24.099  0.00  0.00    -0.023 A 
ATOM     23  C   UNL     1       8.907   2.017  24.492  0.00  0.00    +0.051 A 
ATOM     24  C   UNL     1       8.607   3.380  24.448  0.00  0.00    +0.124 A 
ATOM     25  C   UNL     1       9.563   4.284  23.977  0.00  0.00    +0.091 A 
BRANCH  20  27
ATOM     26  C   UNL     1      12.203   5.753  23.862  0.00  0.00    +0.277 C 
ATOM     27  O   UNL     1      11.829   4.620  23.082  0.00  0.00    -0.495 OA
ENDBRANCH  20  27
BRANCH  24  28
ATOM     28  O   UNL     1       7.417   3.941  24.831  0.00  0.00    -0.495 OA
ATOM     29  C   UNL     1       6.352   3.875  23.889  0.00  0.00    +0.277 C 
ENDBRANCH  24  28
ENDBRANCH  19  22
ENDBRANCH  17  19
ENDBRANCH   1  17
TORSDOF 5
ENDMDL
MODEL 4
REMARK VINA RESULT:      -7.1      3.596      8.207
REMARK  Name = 
REMARK  8 active torsions:
REMARK  status: ('A' for Active; 'I' for Inactive)
REMARK    1  A    between atoms: C_1  and  O_2
REMARK    2  A    between atoms: O_2  and  C_3
REMARK    3  A    between atoms: C_5  and  O_6
REMARK    4  A    between atoms: O_6  and  C_7
REMARK    5  A    between atoms: C_9  and  C_10
REMARK    6  A    between atoms: C_10  and  N_11
REMARK    7  A    between atoms: N_11  and  C_12
REMARK    8  A    between atoms: N_11  and  C_13
REMARK                            x       y       z     vdW  Elec       q    Type
REMARK                         _______ _______ _______ _____ _____    ______ ____
ROOT
ATOM      1  C   UNL     1       8.779  -1.723  23.744  0.00  0.00    +0.049 A 
ATOM      2  C   UNL     1       9.287  -2.839  24.413  0.00  0.00    +0.039 A 
ATOM      3  C   UNL     1       8.437  -3.812  25.005  0.00  0.00    +0.061 A 
ATOM      4  C   UNL     1       7.063  -3.639  24.933  0.00  0.00    +0.167 A 
ATOM      5  N   UNL     1       6.211  -4.492  25.484  0.00  0.00    -0.195 NA
ATOM      6  C   UNL     1       6.708  -5.545  26.118  0.00  0.00    +0.216 A 
ATOM      7  N   UNL     1       8.002  -5.842  26.213  0.00  0.00    -0.199 NA
ATOM      8  N   UNL     1       5.805  -6.415  26.695  0.00  0.00    -0.327 N 
ATOM      9  H   UNL     1       6.198  -7.342  26.754  0.00  0.00    +0.145 HD
ATOM     10  H   UNL     1       4.906  -6.317  26.241  0.00  0.00    +0.145 HD
ATOM     11  N   UNL     1       6.548  -2.596  24.291  0.00  0.00    -0.234 NA
ATOM     12  C   UNL     1       8.854  -4.970  25.668  0.00  0.00    +0.131 A 
ATOM     13  N   UNL     1      10.205  -5.329  25.756  0.00  0.00    -0.342 N 
ATOM     14  H   UNL     1      10.770  -4.593  26.161  0.00  0.00    +0.144 HD
ATOM     15  H   UNL     1      10.249  -6.182  26.311  0.00  0.00    +0.144 HD
ATOM     16  C   UNL     1       7.386  -1.692  23.717  0.00  0.00    +0.136 A 
ENDROOT
BRANCH   1  17
ATOM     17  N   UNL     1       9.583  -0.769  23.137  0.00  0.00    -0.327 N 
ATOM     18  C   UNL     1       9.719  -0.704  21.685  0.00  0.00    +0.129 C 
BRANCH  17  19
ATOM     19  C   UNL     1      10.509   0.079  23.913  0.00  0.00    +0.140 C 
BRANCH  19  22
ATOM     20  C   UNL     1       8.355   3.098  24.849  0.00  0.00    +0.124 A 
ATOM     21  C   UNL     1       8.798   1.786  24.641  0.00  0.00    +0.051 A 
ATOM     22  C   UNL     1      10.047   1.519  24.054  0.00  0.00    -0.023 A 
ATOM     23  C   UNL     1      10.829   2.610  23.644  0.00  0.00    +0.051 A 
ATOM     24  C   UNL     1      10.383   3.922  23.811  0.00  0.00    +0.124 A 
ATOM     25  C   UNL     1       9.150   4.160  24.426  0.00  0.00    +0.091 A 
BRANCH  20  27
ATOM     26  C   UNL     1       6.160   4.020  24.841  0.00  0.00    +0.277 C 
ATOM     27  O   UNL     1       7.141   3.203  25.473  0.00  0.00    -0.495 OA
ENDBRANCH  20  27
BRANCH  24  28
ATOM     28  O   UNL     1      11.064   5.045  23.424  0.00  0.00    -0.495 OA
ATOM     29  C   UNL     1      12.446   4.878  23.126  0.00  0.00    +0.277 C 
ENDBRANCH  24  28
ENDBRANCH  19  22
ENDBRANCH  17  19
ENDBRANCH   1  17
TORSDOF 5
ENDMDL
MODEL 5
REMARK VINA RESULT:      -7.0      1.513      2.177
REMARK  Name = 
REMARK  8 active torsions:
REMARK  status: ('A' for Active; 'I' for Inactive)
REMARK    1  A    between atoms: C_1  and  O_2
REMARK    2  A    between atoms: O_2  and  C_3
REMARK    3  A    between atoms: C_5  and  O_6
REMARK    4  A    between atoms: O_6  and  C_7
REMARK    5  A    between atoms: C_9  and  C_10
REMARK    6  A    between atoms: C_10  and  N_11
REMARK    7  A    between atoms: N_11  and  C_12
REMARK    8  A    between atoms: N_11  and  C_13
REMARK                            x       y       z     vdW  Elec       q    Type
REMARK                         _______ _______ _______ _____ _____    ______ ____
ROOT
ATOM      1  C   UNL     1       8.851  -2.673  25.395  0.00  0.00    +0.049 A 
ATOM      2  C   UNL     1       9.186  -2.288  24.095  0.00  0.00    +0.039 A 
ATOM      3  C   UNL     1       9.359  -0.923  23.736  0.00  0.00    +0.061 A 
ATOM      4  C   UNL     1       9.169   0.056  24.699  0.00  0.00    +0.167 A 
ATOM      5  N   UNL     1       9.288   1.348  24.430  0.00  0.00    -0.195 NA
ATOM      6  C   UNL     1       9.604   1.699  23.191  0.00  0.00    +0.216 A 
ATOM      7  N   UNL     1       9.855   0.851  22.195  0.00  0.00    -0.199 NA
ATOM      8  N   UNL     1       9.711   3.050  22.928  0.00  0.00    -0.327 N 
ATOM      9  H   UNL     1      10.343   3.209  22.158  0.00  0.00    +0.145 HD
ATOM     10  H   UNL     1       9.889   3.548  23.790  0.00  0.00    +0.145 HD
ATOM     11  N   UNL     1       8.865  -0.279  25.949  0.00  0.00    -0.234 NA
ATOM     12  C   UNL     1       9.719  -0.448  22.471  0.00  0.00    +0.131 A 
ATOM     13  N   UNL     1      10.023  -1.312  21.412  0.00  0.00    -0.342 N 
ATOM     14  H   UNL     1       9.274  -1.968  21.227  0.00  0.00    +0.144 HD
ATOM     15  H   UNL     1      10.218  -0.729  20.601  0.00  0.00    +0.144 HD
ATOM     16  C   UNL     1       8.726  -1.593  26.268  0.00  0.00    +0.136 A 
ENDROOT
BRANCH   1  17
ATOM     17  N   UNL     1       8.699  -3.996  25.780  0.00  0.00    -0.327 N 
ATOM     18  C   UNL     1       9.724  -4.995  25.489  0.00  0.00    +0.129 C 
BRANCH  17  19
ATOM     19  C   UNL     1       7.419  -4.516  26.300  0.00  0.00    +0.140 C 
BRANCH  19  22
ATOM     20  C   UNL     1       4.038  -3.519  24.816  0.00  0.00    +0.124 A 
ATOM     21  C   UNL     1       5.103  -3.708  25.705  0.00  0.00    +0.051 A 
ATOM     22  C   UNL     1       6.266  -4.397  25.318  0.00  0.00    -0.023 A 
ATOM     23  C   UNL     1       6.318  -4.926  24.020  0.00  0.00    +0.051 A 
ATOM     24  C   UNL     1       5.248  -4.777  23.136  0.00  0.00    +0.124 A 
ATOM     25  C   UNL     1       4.115  -4.062  23.535  0.00  0.00    +0.091 A 
BRANCH  20  27
ATOM     26  C   UNL     1       2.422  -3.240  26.541  0.00  0.00    +0.277 C 
ATOM     27  O   UNL     1       2.993  -2.790  25.316  0.00  0.00    -0.495 OA
ENDBRANCH  20  27
BRANCH  24  28
ATOM     28  O   UNL     1       5.198  -5.277  21.862  0.00  0.00    -0.495 OA
ATOM     29  C   UNL     1       6.378  -5.915  21.384  0.00  0.00    +0.277 C 
ENDBRANCH  24  28
ENDBRANCH  19  22
ENDBRANCH  17  19
ENDBRANCH   1  17
TORSDOF 5
ENDMDL
MODEL 6
REMARK VINA RESULT:      -6.9      4.890      8.874
REMARK  Name = 
REMARK  8 active torsions:
REMARK  status: ('A' for Active; 'I' for Inactive)
REMARK    1  A    between atoms: C_1  and  O_2
REMARK    2  A    between atoms: O_2  and  C_3
REMARK    3  A    between atoms: C_5  and  O_6
REMARK    4  A    between atoms: O_6  and  C_7
REMARK    5  A    between atoms: C_9  and  C_10
REMARK    6  A    between atoms: C_10  and  N_11
REMARK    7  A    between atoms: N_11  and  C_12
REMARK    8  A    between atoms: N_11  and  C_13
REMARK                            x       y       z     vdW  Elec       q    Type
REMARK                         _______ _______ _______ _____ _____    ______ ____
ROOT
ATOM      1  C   UNL     1       8.708  -0.020  23.278  0.00  0.00    +0.049 A 
ATOM      2  C   UNL     1       8.139  -0.714  24.347  0.00  0.00    +0.039 A 
ATOM      3  C   UNL     1       8.587  -2.009  24.728  0.00  0.00    +0.061 A 
ATOM      4  C   UNL     1       9.607  -2.608  24.004  0.00  0.00    +0.167 A 
ATOM      5  N   UNL     1      10.058  -3.822  24.285  0.00  0.00    -0.195 NA
ATOM      6  C   UNL     1       9.505  -4.470  25.302  0.00  0.00    +0.216 A 
ATOM      7  N   UNL     1       8.555  -3.981  26.096  0.00  0.00    -0.199 NA
ATOM      8  N   UNL     1       9.980  -5.738  25.572  0.00  0.00    -0.327 N 
ATOM      9  H   UNL     1       9.848  -5.963  26.546  0.00  0.00    +0.145 HD
ATOM     10  H   UNL     1      10.913  -5.836  25.191  0.00  0.00    +0.145 HD
ATOM     11  N   UNL     1      10.180  -1.967  22.990  0.00  0.00    -0.234 NA
ATOM     12  C   UNL     1       8.097  -2.764  25.797  0.00  0.00    +0.131 A 
ATOM     13  N   UNL     1       7.123  -2.267  26.672  0.00  0.00    -0.342 N 
ATOM     14  H   UNL     1       6.291  -1.958  26.183  0.00  0.00    +0.144 HD
ATOM     15  H   UNL     1       6.912  -3.011  27.334  0.00  0.00    +0.144 HD
ATOM     16  C   UNL     1       9.744  -0.722  22.662  0.00  0.00    +0.136 A 
ENDROOT
BRANCH   1  17
ATOM     17  N   UNL     1       8.308   1.253  22.898  0.00  0.00    -0.327 N 
ATOM     18  C   UNL     1       8.467   1.720  21.523  0.00  0.00    +0.129 C 
BRANCH  17  19
ATOM     19  C   UNL     1       7.913   2.274  23.887  0.00  0.00    +0.140 C 
BRANCH  19  22
ATOM     20  C   UNL     1       8.420   5.998  23.177  0.00  0.00    +0.124 A 
ATOM     21  C   UNL     1       7.841   4.730  23.308  0.00  0.00    +0.051 A 
ATOM     22  C   UNL     1       8.603   3.614  23.694  0.00  0.00    -0.023 A 
ATOM     23  C   UNL     1       9.977   3.796  23.909  0.00  0.00    +0.051 A 
ATOM     24  C   UNL     1      10.574   5.047  23.745  0.00  0.00    +0.124 A 
ATOM     25  C   UNL     1       9.788   6.148  23.391  0.00  0.00    +0.091 A 
BRANCH  20  27
ATOM     26  C   UNL     1       6.362   7.108  23.627  0.00  0.00    +0.277 C 
ATOM     27  O   UNL     1       7.546   6.998  22.842  0.00  0.00    -0.495 OA
ENDBRANCH  20  27
BRANCH  24  28
ATOM     28  O   UNL     1      11.907   5.316  23.911  0.00  0.00    -0.495 OA
ATOM     29  C   UNL     1      12.699   5.350  22.729  0.00  0.00    +0.277 C 
ENDBRANCH  24  28
ENDBRANCH  19  22
ENDBRANCH  17  19
ENDBRANCH   1  17
TORSDOF 5
ENDMDL
MODEL 7
REMARK VINA RESULT:      -6.7      3.487      7.652
REMARK  Name = 
REMARK  8 active torsions:
REMARK  status: ('A' for Active; 'I' for Inactive)
REMARK    1  A    between atoms: C_1  and  O_2
REMARK    2  A    between atoms: O_2  and  C_3
REMARK    3  A    between atoms: C_5  and  O_6
REMARK    4  A    between atoms: O_6  and  C_7
REMARK    5  A    between atoms: C_9  and  C_10
REMARK    6  A    between atoms: C_10  and  N_11
REMARK    7  A    between atoms: N_11  and  C_12
REMARK    8  A    between atoms: N_11  and  C_13
REMARK                            x       y       z     vdW  Elec       q    Type
REMARK                         _______ _______ _______ _____ _____    ______ ____
ROOT
ATOM      1  C   UNL     1       8.174  -3.420  24.802  0.00  0.00    +0.049 A 
ATOM      2  C   UNL     1       6.968  -4.103  24.635  0.00  0.00    +0.039 A 
ATOM      3  C   UNL     1       6.466  -4.996  25.622  0.00  0.00    +0.061 A 
ATOM      4  C   UNL     1       7.206  -5.208  26.776  0.00  0.00    +0.167 A 
ATOM      5  N   UNL     1       6.813  -6.044  27.726  0.00  0.00    -0.195 NA
ATOM      6  C   UNL     1       5.666  -6.688  27.552  0.00  0.00    +0.216 A 
ATOM      7  N   UNL     1       4.850  -6.532  26.513  0.00  0.00    -0.199 NA
ATOM      8  N   UNL     1       5.280  -7.563  28.547  0.00  0.00    -0.327 N 
ATOM      9  H   UNL     1       4.276  -7.658  28.562  0.00  0.00    +0.145 HD
ATOM     10  H   UNL     1       5.739  -7.312  29.414  0.00  0.00    +0.145 HD
ATOM     11  N   UNL     1       8.350  -4.561  26.972  0.00  0.00    -0.234 NA
ATOM     12  C   UNL     1       5.260  -5.699  25.553  0.00  0.00    +0.131 A 
ATOM     13  N   UNL     1       4.363  -5.533  24.491  0.00  0.00    -0.342 N 
ATOM     14  H   UNL     1       4.799  -5.698  23.592  0.00  0.00    +0.144 HD
ATOM     15  H   UNL     1       3.589  -6.173  24.654  0.00  0.00    +0.144 HD
ATOM     16  C   UNL     1       8.795  -3.699  26.019  0.00  0.00    +0.136 A 
ENDROOT
BRANCH   1  17
ATOM     17  N   UNL     1       8.677  -2.527  23.868  0.00  0.00    -0.327 N 
ATOM     18  C   UNL     1       8.184  -2.506  22.493  0.00  0.00    +0.129 C 
BRANCH  17  19
ATOM     19  C   UNL     1       9.876  -1.709  24.137  0.00  0.00    +0.140 C 
BRANCH  19  22
ATOM     20  C   UNL     1      10.176   2.096  23.894  0.00  0.00    +0.124 A 
ATOM     21  C   UNL     1      10.440   0.725  23.784  0.00  0.00    +0.051 A 
ATOM     22  C   UNL     1       9.578  -0.234  24.344  0.00  0.00    -0.023 A 
ATOM     23  C   UNL     1       8.458   0.221  25.054  0.00  0.00    +0.051 A 
ATOM     24  C   UNL     1       8.203   1.585  25.204  0.00  0.00    +0.124 A 
ATOM     25  C   UNL     1       9.058   2.518  24.611  0.00  0.00    +0.091 A 
BRANCH  20  27
ATOM     26  C   UNL     1      11.007   4.301  23.556  0.00  0.00    +0.277 C 
ATOM     27  O   UNL     1      11.076   2.909  23.259  0.00  0.00    -0.495 OA
ENDBRANCH  20  27
BRANCH  24  28
ATOM     28  O   UNL     1       7.150   2.122  25.896  0.00  0.00    -0.495 OA
ATOM     29  C   UNL     1       5.995   1.302  26.032  0.00  0.00    +0.277 C 
ENDBRANCH  24  28
ENDBRANCH  19  22
ENDBRANCH  17  19
ENDBRANCH   1  17
TORSDOF 5
ENDMDL
MODEL 8
REMARK VINA RESULT:      -6.7      2.827      5.074
REMARK  Name = 
REMARK  8 active torsions:
REMARK  status: ('A' for Active; 'I' for Inactive)
REMARK    1  A    between atoms: C_1  and  O_2
REMARK    2  A    between atoms: O_2  and  C_3
REMARK    3  A    between atoms: C_5  and  O_6
REMARK    4  A    between atoms: O_6  and  C_7
REMARK    5  A    between atoms: C_9  and  C_10
REMARK    6  A    between atoms: C_10  and  N_11
REMARK    7  A    between atoms: N_11  and  C_12
REMARK    8  A    between atoms: N_11  and  C_13
REMARK                            x       y       z     vdW  Elec       q    Type
REMARK                         _______ _______ _______ _____ _____    ______ ____
ROOT
ATOM      1  C   UNL     1       9.310   1.348  23.206  0.00  0.00    +0.049 A 
ATOM      2  C   UNL     1       9.463   2.644  23.700  0.00  0.00    +0.039 A 
ATOM      3  C   UNL     1       8.630   3.715  23.273  0.00  0.00    +0.061 A 
ATOM      4  C   UNL     1       7.650   3.468  22.323  0.00  0.00    +0.167 A 
ATOM      5  N   UNL     1       6.856   4.422  21.860  0.00  0.00    -0.195 NA
ATOM      6  C   UNL     1       7.014   5.649  22.337  0.00  0.00    +0.216 A 
ATOM      7  N   UNL     1       7.885   5.998  23.281  0.00  0.00    -0.199 NA
ATOM      8  N   UNL     1       6.184   6.631  21.834  0.00  0.00    -0.327 N 
ATOM      9  H   UNL     1       6.062   7.369  22.510  0.00  0.00    +0.145 HD
ATOM     10  H   UNL     1       5.350   6.204  21.452  0.00  0.00    +0.145 HD
ATOM     11  N   UNL     1       7.470   2.241  21.844  0.00  0.00    -0.234 NA
ATOM     12  C   UNL     1       8.692   5.034  23.732  0.00  0.00    +0.131 A 
ATOM     13  N   UNL     1       9.572   5.427  24.747  0.00  0.00    -0.342 N 
ATOM     14  H   UNL     1      10.534   5.193  24.531  0.00  0.00    +0.144 HD
ATOM     15  H   UNL     1       9.451   6.430  24.873  0.00  0.00    +0.144 HD
ATOM     16  C   UNL     1       8.268   1.234  22.286  0.00  0.00    +0.136 A 
ENDROOT
BRANCH   1  17
ATOM     17  N   UNL     1      10.092   0.279  23.620  0.00  0.00    -0.327 N 
ATOM     18  C   UNL     1      10.906   0.358  24.830  0.00  0.00    +0.129 C 
BRANCH  17  19
ATOM     19  C   UNL     1      10.320  -0.900  22.762  0.00  0.00    +0.140 C 
BRANCH  19  22
ATOM     20  C   UNL     1       7.589  -3.575  22.665  0.00  0.00    +0.124 A 
ATOM     21  C   UNL     1       8.353  -2.435  22.386  0.00  0.00    +0.051 A 
ATOM     22  C   UNL     1       9.488  -2.110  23.149  0.00  0.00    -0.023 A 
ATOM     23  C   UNL     1       9.816  -2.942  24.230  0.00  0.00    +0.051 A 
ATOM     24  C   UNL     1       9.041  -4.060  24.542  0.00  0.00    +0.124 A 
ATOM     25  C   UNL     1       7.936  -4.379  23.749  0.00  0.00    +0.091 A 
BRANCH  20  27
ATOM     26  C   UNL     1       6.042  -5.122  21.725  0.00  0.00    +0.277 C 
ATOM     27  O   UNL     1       6.542  -3.790  21.809  0.00  0.00    -0.495 OA
ENDBRANCH  20  27
BRANCH  24  28
ATOM     28  O   UNL     1       9.271  -4.915  25.588  0.00  0.00    -0.495 OA
ATOM     29  C   UNL     1       8.320  -4.891  26.647  0.00  0.00    +0.277 C 
ENDBRANCH  24  28
ENDBRANCH  19  22
ENDBRANCH  17  19
ENDBRANCH   1  17
TORSDOF 5
ENDMDL
MODEL 9
REMARK VINA RESULT:      -6.7      2.769      4.818
REMARK  Name = 
REMARK  8 active torsions:
REMARK  status: ('A' for Active; 'I' for Inactive)
REMARK    1  A    between atoms: C_1  and  O_2
REMARK    2  A    between atoms: O_2  and  C_3
REMARK    3  A    between atoms: C_5  and  O_6
REMARK    4  A    between atoms: O_6  and  C_7
REMARK    5  A    between atoms: C_9  and  C_10
REMARK    6  A    between atoms: C_10  and  N_11
REMARK    7  A    between atoms: N_11  and  C_12
REMARK    8  A    between atoms: N_11  and  C_13
REMARK                            x       y       z     vdW  Elec       q    Type
REMARK                         _______ _______ _______ _____ _____    ______ ____
ROOT
ATOM      1  C   UNL     1       8.508   1.498  23.897  0.00  0.00    +0.049 A 
ATOM      2  C   UNL     1       8.436   2.872  24.137  0.00  0.00    +0.039 A 
ATOM      3  C   UNL     1       9.552   3.730  23.936  0.00  0.00    +0.061 A 
ATOM      4  C   UNL     1      10.752   3.185  23.508  0.00  0.00    +0.167 A 
ATOM      5  N   UNL     1      11.839   3.919  23.324  0.00  0.00    -0.195 NA
ATOM      6  C   UNL     1      11.756   5.222  23.559  0.00  0.00    +0.216 A 
ATOM      7  N   UNL     1      10.651   5.865  23.927  0.00  0.00    -0.199 NA
ATOM      8  N   UNL     1      12.903   5.969  23.373  0.00  0.00    -0.327 N 
ATOM      9  H   UNL     1      12.668   6.923  23.147  0.00  0.00    +0.145 HD
ATOM     10  H   UNL     1      13.526   5.478  22.744  0.00  0.00    +0.145 HD
ATOM     11  N   UNL     1      10.849   1.883  23.255  0.00  0.00    -0.234 NA
ATOM     12  C   UNL     1       9.563   5.115  24.124  0.00  0.00    +0.131 A 
ATOM     13  N   UNL     1       8.411   5.827  24.478  0.00  0.00    -0.342 N 
ATOM     14  H   UNL     1       7.982   5.465  25.322  0.00  0.00    +0.144 HD
ATOM     15  H   UNL     1       8.686   6.801  24.587  0.00  0.00    +0.144 HD
ATOM     16  C   UNL     1       9.759   1.091  23.438  0.00  0.00    +0.136 A 
ENDROOT
BRANCH   1  17
ATOM     17  N   UNL     1       7.431   0.640  24.062  0.00  0.00    -0.327 N 
ATOM     18  C   UNL     1       6.904   0.328  25.388  0.00  0.00    +0.129 C 
BRANCH  17  19
ATOM     19  C   UNL     1       6.903  -0.172  22.948  0.00  0.00    +0.140 C 
BRANCH  19  22
ATOM     20  C   UNL     1       6.581  -3.961  22.539  0.00  0.00    +0.124 A 
ATOM     21  C   UNL     1       6.318  -2.586  22.500  0.00  0.00    +0.051 A 
ATOM     22  C   UNL     1       7.201  -1.656  23.077  0.00  0.00    -0.023 A 
ATOM     23  C   UNL     1       8.340  -2.147  23.731  0.00  0.00    +0.051 A 
ATOM     24  C   UNL     1       8.595  -3.517  23.810  0.00  0.00    +0.124 A 
ATOM     25  C   UNL     1       7.718  -4.419  23.201  0.00  0.00    +0.091 A 
BRANCH  20  27
ATOM     26  C   UNL     1       6.161  -5.687  20.954  0.00  0.00    +0.277 C 
ATOM     27  O   UNL     1       5.659  -4.741  21.894  0.00  0.00    -0.495 OA
ENDBRANCH  20  27
BRANCH  24  28
ATOM     28  O   UNL     1       9.666  -4.088  24.444  0.00  0.00    -0.495 OA
ATOM     29  C   UNL     1       9.376  -4.876  25.593  0.00  0.00    +0.277 C 
ENDBRANCH  24  28
ENDBRANCH  19  22
ENDBRANCH  17  19
ENDBRANCH   1  17
TORSDOF 5
ENDMDL
