MODEL 1
REMARK VINA RESULT:      -4.4      0.000      0.000
REMARK  Name = 
REMARK  11 active torsions:
REMARK  status: ('A' for Active; 'I' for Inactive)
REMARK    1  A    between atoms: O_1  and  C_2
REMARK    2  A    between atoms: C_2  and  C_3
REMARK    3  A    between atoms: C_3  and  C_4
REMARK    4  A    between atoms: C_3  and  C_6
REMARK    5  A    between atoms: C_3  and  N_8
REMARK    6  A    between atoms: C_4  and  O_5
REMARK    7  A    between atoms: C_6  and  O_7
REMARK    8  A    between atoms: N_8  and  C_9
REMARK    9  A    between atoms: C_9  and  C_10
REMARK   10  A    between atoms: C_10  and  S_11
REMARK   11  A    between atoms: S_11  and  O_12
REMARK                            x       y       z     vdW  Elec       q    Type
REMARK                         _______ _______ _______ _____ _____    ______ ____
ROOT
ATOM      1  C   UNL     1       8.144  -4.633  25.252  0.00  0.00    +0.089 C 
ENDROOT
BRANCH   1   2
ATOM      2  N   UNL     1       6.892  -4.945  24.464  0.00  0.00    -0.303 NA
ATOM      3  H   UNL     1       6.156  -5.097  25.165  0.00  0.00    +0.123 HD
BRANCH   2   4
ATOM      4  C   UNL     1       6.465  -3.824  23.603  0.00  0.00    +0.107 C 
BRANCH   4   5
ATOM      5  C   UNL     1       5.586  -4.270  22.442  0.00  0.00    +0.213 C 
BRANCH   5   6
ATOM      6  S   UNL     1       6.469  -5.523  21.511  0.00  0.00    +0.081 S 
ATOM      7  O   UNL     1       7.881  -5.464  21.800  0.00  0.00    -0.147 OA
ATOM      8  O   UNL     1       5.960  -5.571  20.156  0.00  0.00    -0.147 OA
BRANCH   6   9
ATOM      9  O   UNL     1       5.866  -6.828  22.241  0.00  0.00    -0.254 OA
ATOM     10  H   UNL     1       5.513  -6.551  23.113  0.00  0.00    +0.244 HD
ENDBRANCH   6   9
ENDBRANCH   5   6
ENDBRANCH   4   5
ENDBRANCH   2   4
ENDBRANCH   1   2
BRANCH   1  11
ATOM     11  C   UNL     1       9.261  -5.680  24.990  0.00  0.00    +0.182 C 
BRANCH  11  12
ATOM     12  O   UNL     1      10.353  -5.472  25.888  0.00  0.00    -0.393 OA
ATOM     13  H   UNL     1      10.661  -6.352  26.169  0.00  0.00    +0.209 HD
ENDBRANCH  11  12
ENDBRANCH   1  11
BRANCH   1  14
ATOM     14  C   UNL     1       8.653  -3.257  24.730  0.00  0.00    +0.182 C 
BRANCH  14  15
ATOM     15  O   UNL     1       9.938  -3.389  24.121  0.00  0.00    -0.393 OA
ATOM     16  H   UNL     1       9.775  -3.190  23.175  0.00  0.00    +0.209 HD
ENDBRANCH  14  15
ENDBRANCH   1  14
BRANCH   1  17
ATOM     17  C   UNL     1       7.900  -4.533  26.788  0.00  0.00    +0.182 C 
BRANCH  17  18
ATOM     18  O   UNL     1       7.915  -5.794  27.454  0.00  0.00    -0.393 OA
ATOM     19  H   UNL     1       8.553  -6.359  26.969  0.00  0.00    +0.209 HD
ENDBRANCH  17  18
ENDBRANCH   1  17
TORSDOF 11
ENDMDL
MODEL 2
REMARK VINA RESULT:      -4.4      3.053      4.471
REMARK  Name = 
REMARK  11 active torsions:
REMARK  status: ('A' for Active; 'I' for Inactive)
REMARK    1  A    between atoms: O_1  and  C_2
REMARK    2  A    between atoms: C_2  and  C_3
REMARK    3  A    between atoms: C_3  and  C_4
REMARK    4  A    between atoms: C_3  and  C_6
REMARK    5  A    between atoms: C_3  and  N_8
REMARK    6  A    between atoms: C_4  and  O_5
REMARK    7  A    between atoms: C_6  and  O_7
REMARK    8  A    between atoms: N_8  and  C_9
REMARK    9  A    between atoms: C_9  and  C_10
REMARK   10  A    between atoms: C_10  and  S_11
REMARK   11  A    between atoms: S_11  and  O_12
REMARK                            x       y       z     vdW  Elec       q    Type
REMARK                         _______ _______ _______ _____ _____    ______ ____
ROOT
ATOM      1  C   UNL     1       8.497  -3.859  24.450  0.00  0.00    +0.089 C 
ENDROOT
BRANCH   1   2
ATOM      2  N   UNL     1       9.656  -3.026  23.951  0.00  0.00    -0.303 NA
ATOM      3  H   UNL     1       9.498  -2.911  22.943  0.00  0.00    +0.123 HD
BRANCH   2   4
ATOM      4  C   UNL     1       9.694  -1.680  24.555  0.00  0.00    +0.107 C 
BRANCH   4   5
ATOM      5  C   UNL     1      10.293  -0.631  23.627  0.00  0.00    +0.213 C 
BRANCH   5   6
ATOM      6  S   UNL     1       9.240  -0.483  22.183  0.00  0.00    +0.081 S 
ATOM      7  O   UNL     1       9.536   0.734  21.467  0.00  0.00    -0.147 OA
ATOM      8  O   UNL     1       7.887  -0.868  22.525  0.00  0.00    -0.147 OA
BRANCH   6   9
ATOM      9  O   UNL     1       9.834  -1.717  21.332  0.00  0.00    -0.254 OA
ATOM     10  H   UNL     1       9.843  -1.456  20.386  0.00  0.00    +0.244 HD
ENDBRANCH   6   9
ENDBRANCH   5   6
ENDBRANCH   4   5
ENDBRANCH   2   4
ENDBRANCH   1   2
BRANCH   1  11
ATOM     11  C   UNL     1       7.772  -4.588  23.286  0.00  0.00    +0.182 C 
BRANCH  11  12
ATOM     12  O   UNL     1       7.622  -3.708  22.170  0.00  0.00    -0.393 OA
ATOM     13  H   UNL     1       8.067  -4.130  21.414  0.00  0.00    +0.209 HD
ENDBRANCH  11  12
ENDBRANCH   1  11
BRANCH   1  14
ATOM     14  C   UNL     1       9.112  -4.945  25.380  0.00  0.00    +0.182 C 
BRANCH  14  15
ATOM     15  O   UNL     1      10.453  -5.249  24.988  0.00  0.00    -0.393 OA
ATOM     16  H   UNL     1      10.754  -5.898  25.658  0.00  0.00    +0.209 HD
ENDBRANCH  14  15
ENDBRANCH   1  14
BRANCH   1  17
ATOM     17  C   UNL     1       7.447  -3.036  25.258  0.00  0.00    +0.182 C 
BRANCH  17  18
ATOM     18  O   UNL     1       6.362  -2.558  24.466  0.00  0.00    -0.393 OA
ATOM     19  H   UNL     1       6.136  -3.276  23.838  0.00  0.00    +0.209 HD
ENDBRANCH  17  18
ENDBRANCH   1  17
TORSDOF 11
ENDMDL
MODEL 3
REMARK VINA RESULT:      -4.4      2.469      3.889
REMARK  Name = 
REMARK  11 active torsions:
REMARK  status: ('A' for Active; 'I' for Inactive)
REMARK    1  A    between atoms: O_1  and  C_2
REMARK    2  A    between atoms: C_2  and  C_3
REMARK    3  A    between atoms: C_3  and  C_4
REMARK    4  A    between atoms: C_3  and  C_6
REMARK    5  A    between atoms: C_3  and  N_8
REMARK    6  A    between atoms: C_4  and  O_5
REMARK    7  A    between atoms: C_6  and  O_7
REMARK    8  A    between atoms: N_8  and  C_9
REMARK    9  A    between atoms: C_9  and  C_10
REMARK   10  A    between atoms: C_10  and  S_11
REMARK   11  A    between atoms: S_11  and  O_12
REMARK                            x       y       z     vdW  Elec       q    Type
REMARK                         _______ _______ _______ _____ _____    ______ ____
ROOT
ATOM      1  C   UNL     1       7.860  -4.427  25.831  0.00  0.00    +0.089 C 
ENDROOT
BRANCH   1   2
ATOM      2  N   UNL     1       7.607  -2.976  25.490  0.00  0.00    -0.303 NA
ATOM      3  H   UNL     1       6.771  -2.710  26.024  0.00  0.00    +0.123 HD
BRANCH   2   4
ATOM      4  C   UNL     1       8.710  -2.090  25.913  0.00  0.00    +0.107 C 
BRANCH   4   5
ATOM      5  C   UNL     1       8.970  -0.957  24.929  0.00  0.00    +0.213 C 
BRANCH   5   6
ATOM      6  S   UNL     1       9.628  -1.660  23.416  0.00  0.00    +0.081 S 
ATOM      7  O   UNL     1      10.328  -2.891  23.695  0.00  0.00    -0.147 OA
ATOM      8  O   UNL     1      10.207  -0.611  22.604  0.00  0.00    -0.147 OA
BRANCH   6   9
ATOM      9  O   UNL     1       8.231  -2.033  22.703  0.00  0.00    -0.254 OA
ATOM     10  H   UNL     1       7.987  -2.944  22.974  0.00  0.00    +0.244 HD
ENDBRANCH   6   9
ENDBRANCH   5   6
ENDBRANCH   4   5
ENDBRANCH   2   4
ENDBRANCH   1   2
BRANCH   1  11
ATOM     11  C   UNL     1       6.980  -4.898  27.021  0.00  0.00    +0.182 C 
BRANCH  11  12
ATOM     12  O   UNL     1       7.634  -5.950  27.733  0.00  0.00    -0.393 OA
ATOM     13  H   UNL     1       7.936  -5.575  28.579  0.00  0.00    +0.209 HD
ENDBRANCH  11  12
ENDBRANCH   1  11
BRANCH   1  14
ATOM     14  C   UNL     1       7.438  -5.247  24.576  0.00  0.00    +0.182 C 
BRANCH  14  15
ATOM     15  O   UNL     1       8.277  -4.939  23.462  0.00  0.00    -0.393 OA
ATOM     16  H   UNL     1       7.700  -4.416  22.867  0.00  0.00    +0.209 HD
ENDBRANCH  14  15
ENDBRANCH   1  14
BRANCH   1  17
ATOM     17  C   UNL     1       9.353  -4.735  26.158  0.00  0.00    +0.182 C 
BRANCH  17  18
ATOM     18  O   UNL     1       9.824  -5.955  25.590  0.00  0.00    -0.393 OA
ATOM     19  H   UNL     1       9.313  -6.677  26.013  0.00  0.00    +0.209 HD
ENDBRANCH  17  18
ENDBRANCH   1  17
TORSDOF 11
ENDMDL
MODEL 4
REMARK VINA RESULT:      -4.4      3.846      5.597
REMARK  Name = 
REMARK  11 active torsions:
REMARK  status: ('A' for Active; 'I' for Inactive)
REMARK    1  A    between atoms: O_1  and  C_2
REMARK    2  A    between atoms: C_2  and  C_3
REMARK    3  A    between atoms: C_3  and  C_4
REMARK    4  A    between atoms: C_3  and  C_6
REMARK    5  A    between atoms: C_3  and  N_8
REMARK    6  A    between atoms: C_4  and  O_5
REMARK    7  A    between atoms: C_6  and  O_7
REMARK    8  A    between atoms: N_8  and  C_9
REMARK    9  A    between atoms: C_9  and  C_10
REMARK   10  A    between atoms: C_10  and  S_11
REMARK   11  A    between atoms: S_11  and  O_12
REMARK                            x       y       z     vdW  Elec       q    Type
REMARK                         _______ _______ _______ _____ _____    ______ ____
ROOT
ATOM      1  C   UNL     1       9.299   0.250  22.862  0.00  0.00    +0.089 C 
ENDROOT
BRANCH   1   2
ATOM      2  N   UNL     1       8.157  -0.492  23.518  0.00  0.00    -0.303 NA
ATOM      3  H   UNL     1       7.935  -1.270  22.885  0.00  0.00    +0.123 HD
BRANCH   2   4
ATOM      4  C   UNL     1       8.528  -1.071  24.825  0.00  0.00    +0.107 C 
BRANCH   4   5
ATOM      5  C   UNL     1       7.816  -2.385  25.114  0.00  0.00    +0.213 C 
BRANCH   5   6
ATOM      6  S   UNL     1       8.421  -3.623  23.967  0.00  0.00    +0.081 S 
ATOM      7  O   UNL     1       7.950  -3.345  22.632  0.00  0.00    -0.147 OA
ATOM      8  O   UNL     1       8.312  -4.937  24.566  0.00  0.00    -0.147 OA
BRANCH   6   9
ATOM      9  O   UNL     1       9.989  -3.254  24.028  0.00  0.00    -0.254 OA
ATOM     10  H   UNL     1      10.430  -3.902  24.619  0.00  0.00    +0.244 HD
ENDBRANCH   6   9
ENDBRANCH   5   6
ENDBRANCH   4   5
ENDBRANCH   2   4
ENDBRANCH   1   2
BRANCH   1  11
ATOM     11  C   UNL     1      10.602   0.153  23.702  0.00  0.00    +0.182 C 
BRANCH  11  12
ATOM     12  O   UNL     1      10.980   1.447  24.177  0.00  0.00    -0.393 OA
ATOM     13  H   UNL     1      11.932   1.407  24.382  0.00  0.00    +0.209 HD
ENDBRANCH  11  12
ENDBRANCH   1  11
BRANCH   1  14
ATOM     14  C   UNL     1       9.558  -0.465  21.503  0.00  0.00    +0.182 C 
BRANCH  14  15
ATOM     15  O   UNL     1      10.357  -1.635  21.689  0.00  0.00    -0.393 OA
ATOM     16  H   UNL     1       9.706  -2.334  21.910  0.00  0.00    +0.209 HD
ENDBRANCH  14  15
ENDBRANCH   1  14
BRANCH   1  17
ATOM     17  C   UNL     1       8.986   1.753  22.592  0.00  0.00    +0.182 C 
BRANCH  17  18
ATOM     18  O   UNL     1       9.801   2.334  21.577  0.00  0.00    -0.393 OA
ATOM     19  H   UNL     1       9.197   2.604  20.853  0.00  0.00    +0.209 HD
ENDBRANCH  17  18
ENDBRANCH   1  17
TORSDOF 11
ENDMDL
MODEL 5
REMARK VINA RESULT:      -4.3      2.584      4.725
REMARK  Name = 
REMARK  11 active torsions:
REMARK  status: ('A' for Active; 'I' for Inactive)
REMARK    1  A    between atoms: O_1  and  C_2
REMARK    2  A    between atoms: C_2  and  C_3
REMARK    3  A    between atoms: C_3  and  C_4
REMARK    4  A    between atoms: C_3  and  C_6
REMARK    5  A    between atoms: C_3  and  N_8
REMARK    6  A    between atoms: C_4  and  O_5
REMARK    7  A    between atoms: C_6  and  O_7
REMARK    8  A    between atoms: N_8  and  C_9
REMARK    9  A    between atoms: C_9  and  C_10
REMARK   10  A    between atoms: C_10  and  S_11
REMARK   11  A    between atoms: S_11  and  O_12
REMARK                            x       y       z     vdW  Elec       q    Type
REMARK                         _______ _______ _______ _____ _____    ______ ____
ROOT
ATOM      1  C   UNL     1       6.688  -4.449  22.651  0.00  0.00    +0.089 C 
ENDROOT
BRANCH   1   2
ATOM      2  N   UNL     1       7.765  -3.458  22.270  0.00  0.00    -0.303 NA
ATOM      3  H   UNL     1       7.916  -3.590  21.263  0.00  0.00    +0.123 HD
BRANCH   2   4
ATOM      4  C   UNL     1       7.352  -2.057  22.482  0.00  0.00    +0.107 C 
BRANCH   4   5
ATOM      5  C   UNL     1       8.161  -1.359  23.568  0.00  0.00    +0.213 C 
BRANCH   5   6
ATOM      6  S   UNL     1       9.903  -1.614  23.231  0.00  0.00    +0.081 S 
ATOM      7  O   UNL     1      10.324  -2.910  23.707  0.00  0.00    -0.147 OA
ATOM      8  O   UNL     1      10.640  -0.405  23.533  0.00  0.00    -0.147 OA
BRANCH   6   9
ATOM      9  O   UNL     1       9.825  -1.677  21.622  0.00  0.00    -0.254 OA
ATOM     10  H   UNL     1       9.737  -0.759  21.287  0.00  0.00    +0.244 HD
ENDBRANCH   6   9
ENDBRANCH   5   6
ENDBRANCH   4   5
ENDBRANCH   2   4
ENDBRANCH   1   2
BRANCH   1  11
ATOM     11  C   UNL     1       6.498  -5.537  21.560  0.00  0.00    +0.182 C 
BRANCH  11  12
ATOM     12  O   UNL     1       6.087  -6.768  22.157  0.00  0.00    -0.393 OA
ATOM     13  H   UNL     1       5.607  -6.542  22.973  0.00  0.00    +0.209 HD
ENDBRANCH  11  12
ENDBRANCH   1  11
BRANCH   1  14
ATOM     14  C   UNL     1       7.188  -5.157  23.945  0.00  0.00    +0.182 C 
BRANCH  14  15
ATOM     15  O   UNL     1       8.614  -5.257  23.949  0.00  0.00    -0.393 OA
ATOM     16  H   UNL     1       8.917  -4.326  23.937  0.00  0.00    +0.209 HD
ENDBRANCH  14  15
ENDBRANCH   1  14
BRANCH   1  17
ATOM     17  C   UNL     1       5.309  -3.782  22.940  0.00  0.00    +0.182 C 
BRANCH  17  18
ATOM     18  O   UNL     1       4.194  -4.608  22.614  0.00  0.00    -0.393 OA
ATOM     19  H   UNL     1       4.536  -5.524  22.541  0.00  0.00    +0.209 HD
ENDBRANCH  17  18
ENDBRANCH   1  17
TORSDOF 11
ENDMDL
MODEL 6
REMARK VINA RESULT:      -4.3      3.024      4.377
REMARK  Name = 
REMARK  11 active torsions:
REMARK  status: ('A' for Active; 'I' for Inactive)
REMARK    1  A    between atoms: O_1  and  C_2
REMARK    2  A    between atoms: C_2  and  C_3
REMARK    3  A    between atoms: C_3  and  C_4
REMARK    4  A    between atoms: C_3  and  C_6
REMARK    5  A    between atoms: C_3  and  N_8
REMARK    6  A    between atoms: C_4  and  O_5
REMARK    7  A    between atoms: C_6  and  O_7
REMARK    8  A    between atoms: N_8  and  C_9
REMARK    9  A    between atoms: C_9  and  C_10
REMARK   10  A    between atoms: C_10  and  S_11
REMARK   11  A    between atoms: S_11  and  O_12
REMARK                            x       y       z     vdW  Elec       q    Type
REMARK                         _______ _______ _______ _____ _____    ______ ____
ROOT
ATOM      1  C   UNL     1       8.650  -3.874  24.611  0.00  0.00    +0.089 C 
ENDROOT
BRANCH   1   2
ATOM      2  N   UNL     1       9.771  -3.002  24.092  0.00  0.00    -0.303 NA
ATOM      3  H   UNL     1       9.649  -2.975  23.072  0.00  0.00    +0.123 HD
BRANCH   2   4
ATOM      4  C   UNL     1       9.690  -1.614  24.589  0.00  0.00    +0.107 C 
BRANCH   4   5
ATOM      5  C   UNL     1      10.259  -0.598  23.607  0.00  0.00    +0.213 C 
BRANCH   5   6
ATOM      6  S   UNL     1       9.199  -0.550  22.162  0.00  0.00    +0.081 S 
ATOM      7  O   UNL     1       9.441   0.650  21.400  0.00  0.00    -0.147 OA
ATOM      8  O   UNL     1       7.864  -0.979  22.524  0.00  0.00    -0.147 OA
BRANCH   6   9
ATOM      9  O   UNL     1       9.842  -1.790  21.356  0.00  0.00    -0.254 OA
ATOM     10  H   UNL     1       9.533  -2.619  21.779  0.00  0.00    +0.244 HD
ENDBRANCH   6   9
ENDBRANCH   5   6
ENDBRANCH   4   5
ENDBRANCH   2   4
ENDBRANCH   1   2
BRANCH   1  11
ATOM     11  C   UNL     1       9.164  -4.905  25.654  0.00  0.00    +0.182 C 
BRANCH  11  12
ATOM     12  O   UNL     1      10.387  -5.492  25.205  0.00  0.00    -0.393 OA
ATOM     13  H   UNL     1      10.915  -4.778  24.806  0.00  0.00    +0.209 HD
ENDBRANCH  11  12
ENDBRANCH   1  11
BRANCH   1  14
ATOM     14  C   UNL     1       7.658  -2.919  25.338  0.00  0.00    +0.182 C 
BRANCH  14  15
ATOM     15  O   UNL     1       6.460  -2.757  24.576  0.00  0.00    -0.393 OA
ATOM     16  H   UNL     1       6.762  -2.334  23.746  0.00  0.00    +0.209 HD
ENDBRANCH  14  15
ENDBRANCH   1  14
BRANCH   1  17
ATOM     17  C   UNL     1       7.887  -4.636  23.485  0.00  0.00    +0.182 C 
BRANCH  17  18
ATOM     18  O   UNL     1       7.686  -3.862  22.305  0.00  0.00    -0.393 OA
ATOM     19  H   UNL     1       8.436  -3.232  22.252  0.00  0.00    +0.209 HD
ENDBRANCH  17  18
ENDBRANCH   1  17
TORSDOF 11
ENDMDL
MODEL 7
REMARK VINA RESULT:      -4.3      4.105      5.930
REMARK  Name = 
REMARK  11 active torsions:
REMARK  status: ('A' for Active; 'I' for Inactive)
REMARK    1  A    between atoms: O_1  and  C_2
REMARK    2  A    between atoms: C_2  and  C_3
REMARK    3  A    between atoms: C_3  and  C_4
REMARK    4  A    between atoms: C_3  and  C_6
REMARK    5  A    between atoms: C_3  and  N_8
REMARK    6  A    between atoms: C_4  and  O_5
REMARK    7  A    between atoms: C_6  and  O_7
REMARK    8  A    between atoms: N_8  and  C_9
REMARK    9  A    between atoms: C_9  and  C_10
REMARK   10  A    between atoms: C_10  and  S_11
REMARK   11  A    between atoms: S_11  and  O_12
REMARK                            x       y       z     vdW  Elec       q    Type
REMARK                         _______ _______ _______ _____ _____    ______ ____
ROOT
ATOM      1  C   UNL     1       9.108   0.648  23.207  0.00  0.00    +0.089 C 
ENDROOT
BRANCH   1   2
ATOM      2  N   UNL     1       8.221  -0.570  23.329  0.00  0.00    -0.303 NA
ATOM      3  H   UNL     1       7.263  -0.229  23.183  0.00  0.00    +0.123 HD
BRANCH   2   4
ATOM      4  C   UNL     1       8.499  -1.584  22.293  0.00  0.00    +0.107 C 
BRANCH   4   5
ATOM      5  C   UNL     1       7.956  -2.961  22.651  0.00  0.00    +0.213 C 
BRANCH   5   6
ATOM      6  S   UNL     1       8.768  -3.519  24.150  0.00  0.00    +0.081 S 
ATOM      7  O   UNL     1       8.850  -4.959  24.173  0.00  0.00    -0.147 OA
ATOM      8  O   UNL     1       8.280  -2.756  25.280  0.00  0.00    -0.147 OA
BRANCH   6   9
ATOM      9  O   UNL     1      10.242  -2.942  23.848  0.00  0.00    -0.254 OA
ATOM     10  H   UNL     1      10.144  -2.124  23.315  0.00  0.00    +0.244 HD
ENDBRANCH   6   9
ENDBRANCH   5   6
ENDBRANCH   4   5
ENDBRANCH   2   4
ENDBRANCH   1   2
BRANCH   1  11
ATOM     11  C   UNL     1       8.402   1.926  23.738  0.00  0.00    +0.182 C 
BRANCH  11  12
ATOM     12  O   UNL     1       9.308   2.697  24.529  0.00  0.00    -0.393 OA
ATOM     13  H   UNL     1      10.068   2.915  23.961  0.00  0.00    +0.209 HD
ENDBRANCH  11  12
ENDBRANCH   1  11
BRANCH   1  14
ATOM     14  C   UNL     1      10.343   0.378  24.117  0.00  0.00    +0.182 C 
BRANCH  14  15
ATOM     15  O   UNL     1       9.945  -0.235  25.345  0.00  0.00    -0.393 OA
ATOM     16  H   UNL     1       8.969  -0.291  25.276  0.00  0.00    +0.209 HD
ENDBRANCH  14  15
ENDBRANCH   1  14
BRANCH   1  17
ATOM     17  C   UNL     1       9.599   0.913  21.752  0.00  0.00    +0.182 C 
BRANCH  17  18
ATOM     18  O   UNL     1      10.157   2.211  21.563  0.00  0.00    -0.393 OA
ATOM     19  H   UNL     1      10.269   2.330  20.596  0.00  0.00    +0.209 HD
ENDBRANCH  17  18
ENDBRANCH   1  17
TORSDOF 11
ENDMDL
MODEL 8
REMARK VINA RESULT:      -4.3      3.894      5.547
REMARK  Name = 
REMARK  11 active torsions:
REMARK  status: ('A' for Active; 'I' for Inactive)
REMARK    1  A    between atoms: O_1  and  C_2
REMARK    2  A    between atoms: C_2  and  C_3
REMARK    3  A    between atoms: C_3  and  C_4
REMARK    4  A    between atoms: C_3  and  C_6
REMARK    5  A    between atoms: C_3  and  N_8
REMARK    6  A    between atoms: C_4  and  O_5
REMARK    7  A    between atoms: C_6  and  O_7
REMARK    8  A    between atoms: N_8  and  C_9
REMARK    9  A    between atoms: C_9  and  C_10
REMARK   10  A    between atoms: C_10  and  S_11
REMARK   11  A    between atoms: S_11  and  O_12
REMARK                            x       y       z     vdW  Elec       q    Type
REMARK                         _______ _______ _______ _____ _____    ______ ____
ROOT
ATOM      1  C   UNL     1       9.286   0.299  22.854  0.00  0.00    +0.089 C 
ENDROOT
BRANCH   1   2
ATOM      2  N   UNL     1       8.098  -0.291  23.581  0.00  0.00    -0.303 NA
ATOM      3  H   UNL     1       7.767  -1.061  22.987  0.00  0.00    +0.123 HD
BRANCH   2   4
ATOM      4  C   UNL     1       8.459  -0.861  24.894  0.00  0.00    +0.107 C 
BRANCH   4   5
ATOM      5  C   UNL     1       7.844  -2.234  25.132  0.00  0.00    +0.213 C 
BRANCH   5   6
ATOM      6  S   UNL     1       8.580  -3.393  23.978  0.00  0.00    +0.081 S 
ATOM      7  O   UNL     1      10.016  -3.402  24.120  0.00  0.00    -0.147 OA
ATOM      8  O   UNL     1       7.933  -3.272  22.688  0.00  0.00    -0.147 OA
BRANCH   6   9
ATOM      9  O   UNL     1       8.009  -4.758  24.618  0.00  0.00    -0.254 OA
ATOM     10  H   UNL     1       8.773  -5.292  24.923  0.00  0.00    +0.244 HD
ENDBRANCH   6   9
ENDBRANCH   5   6
ENDBRANCH   4   5
ENDBRANCH   2   4
ENDBRANCH   1   2
BRANCH   1  11
ATOM     11  C   UNL     1       9.100   1.819  22.593  0.00  0.00    +0.182 C 
BRANCH  11  12
ATOM     12  O   UNL     1      10.018   2.263  21.591  0.00  0.00    -0.393 OA
ATOM     13  H   UNL     1       9.576   2.976  21.097  0.00  0.00    +0.209 HD
ENDBRANCH  11  12
ENDBRANCH   1  11
BRANCH   1  14
ATOM     14  C   UNL     1      10.506   0.128  23.808  0.00  0.00    +0.182 C 
BRANCH  14  15
ATOM     15  O   UNL     1      11.018   1.401  24.209  0.00  0.00    -0.393 OA
ATOM     16  H   UNL     1      11.841   1.501  23.687  0.00  0.00    +0.209 HD
ENDBRANCH  14  15
ENDBRANCH   1  14
BRANCH   1  17
ATOM     17  C   UNL     1       9.598  -0.409  21.501  0.00  0.00    +0.182 C 
BRANCH  17  18
ATOM     18  O   UNL     1      10.342  -1.617  21.646  0.00  0.00    -0.393 OA
ATOM     19  H   UNL     1       9.687  -2.344  21.708  0.00  0.00    +0.209 HD
ENDBRANCH  17  18
ENDBRANCH   1  17
TORSDOF 11
ENDMDL
MODEL 9
REMARK VINA RESULT:      -4.3      4.173      5.679
REMARK  Name = 
REMARK  11 active torsions:
REMARK  status: ('A' for Active; 'I' for Inactive)
REMARK    1  A    between atoms: O_1  and  C_2
REMARK    2  A    between atoms: C_2  and  C_3
REMARK    3  A    between atoms: C_3  and  C_4
REMARK    4  A    between atoms: C_3  and  C_6
REMARK    5  A    between atoms: C_3  and  N_8
REMARK    6  A    between atoms: C_4  and  O_5
REMARK    7  A    between atoms: C_6  and  O_7
REMARK    8  A    between atoms: N_8  and  C_9
REMARK    9  A    between atoms: C_9  and  C_10
REMARK   10  A    between atoms: C_10  and  S_11
REMARK   11  A    between atoms: S_11  and  O_12
REMARK                            x       y       z     vdW  Elec       q    Type
REMARK                         _______ _______ _______ _____ _____    ______ ____
ROOT
ATOM      1  C   UNL     1       9.301   0.663  23.354  0.00  0.00    +0.089 C 
ENDROOT
BRANCH   1   2
ATOM      2  N   UNL     1       8.379  -0.532  23.450  0.00  0.00    -0.303 NA
ATOM      3  H   UNL     1       7.429  -0.154  23.358  0.00  0.00    +0.123 HD
BRANCH   2   4
ATOM      4  C   UNL     1       8.584  -1.500  22.354  0.00  0.00    +0.107 C 
BRANCH   4   5
ATOM      5  C   UNL     1       7.976  -2.865  22.648  0.00  0.00    +0.213 C 
BRANCH   5   6
ATOM      6  S   UNL     1       8.753  -3.527  24.123  0.00  0.00    +0.081 S 
ATOM      7  O   UNL     1       8.769  -4.969  24.080  0.00  0.00    -0.147 OA
ATOM      8  O   UNL     1       8.295  -2.795  25.285  0.00  0.00    -0.147 OA
BRANCH   6   9
ATOM      9  O   UNL     1      10.254  -3.005  23.852  0.00  0.00    -0.254 OA
ATOM     10  H   UNL     1      10.847  -3.786  23.830  0.00  0.00    +0.244 HD
ENDBRANCH   6   9
ENDBRANCH   5   6
ENDBRANCH   4   5
ENDBRANCH   2   4
ENDBRANCH   1   2
BRANCH   1  11
ATOM     11  C   UNL     1      10.586   0.464  24.204  0.00  0.00    +0.182 C 
BRANCH  11  12
ATOM     12  O   UNL     1      10.249   0.359  25.589  0.00  0.00    -0.393 OA
ATOM     13  H   UNL     1      10.869  -0.280  25.984  0.00  0.00    +0.209 HD
ENDBRANCH  11  12
ENDBRANCH   1  11
BRANCH   1  14
ATOM     14  C   UNL     1       9.732   0.759  21.860  0.00  0.00    +0.182 C 
BRANCH  14  15
ATOM     15  O   UNL     1       9.998   2.114  21.495  0.00  0.00    -0.393 OA
ATOM     16  H   UNL     1       9.408   2.637  22.078  0.00  0.00    +0.209 HD
ENDBRANCH  14  15
ENDBRANCH   1  14
BRANCH   1  17
ATOM     17  C   UNL     1       8.623   2.002  23.773  0.00  0.00    +0.182 C 
BRANCH  17  18
ATOM     18  O   UNL     1       9.533   2.962  24.305  0.00  0.00    -0.393 OA
ATOM     19  H   UNL     1       9.121   3.318  25.121  0.00  0.00    +0.209 HD
ENDBRANCH  17  18
ENDBRANCH   1  17
TORSDOF 11
ENDMDL
