MODEL 1
REMARK VINA RESULT:      -6.0      0.000      0.000
REMARK  Name = 
REMARK  7 active torsions:
REMARK  status: ('A' for Active; 'I' for Inactive)
REMARK    1  A    between atoms: C_1  and  C_2
REMARK    2  A    between atoms: C_2  and  C_3
REMARK    3  A    between atoms: C_2  and  C_4
REMARK    4  A    between atoms: C_4  and  C_6
REMARK    5  A    between atoms: C_14  and  C_15
REMARK    6  A    between atoms: C_15  and  C_16
REMARK    7  A    between atoms: C_15  and  C_17
REMARK                            x       y       z     vdW  Elec       q    Type
REMARK                         _______ _______ _______ _____ _____    ______ ____
ROOT
ATOM      1  C   UNL     1       8.872  -3.478  24.000  0.00  0.00    +0.066 A 
ATOM      2  C   UNL     1       7.880  -3.869  23.045  0.00  0.00    +0.077 A 
ATOM      3  N   UNL     1       7.706  -2.947  22.094  0.00  0.00    -0.170 NA
ATOM      4  N   UNL     1       8.556  -1.945  22.400  0.00  0.00    -0.239 N 
ATOM      5  C   UNL     1       8.680  -0.734  21.715  0.00  0.00    +0.113 A 
ATOM      6  C   UNL     1       9.567   0.187  22.118  0.00  0.00    +0.020 A 
ATOM      7  C   UNL     1      10.404  -0.115  23.259  0.00  0.00    +0.004 A 
ATOM      8  C   UNL     1      10.292  -1.276  23.933  0.00  0.00    +0.028 A 
ATOM      9  C   UNL     1       9.327  -2.254  23.530  0.00  0.00    +0.078 A 
ENDROOT
BRANCH   2  10
ATOM     10  C   UNL     1       7.073  -5.149  23.007  0.00  0.00    +0.034 C 
ATOM     11  C   UNL     1       6.920  -5.715  21.590  0.00  0.00    +0.014 C 
ATOM     12  C   UNL     1       5.694  -4.962  23.643  0.00  0.00    +0.014 C 
ENDBRANCH   2  10
BRANCH   1  13
ATOM     13  C   UNL     1       9.249  -4.226  25.202  0.00  0.00    +0.170 C 
ATOM     14  O   UNL     1      10.204  -5.005  25.155  0.00  0.00    -0.292 OA
BRANCH  13  16
ATOM     15  C   UNL     1       7.567  -2.813  26.446  0.00  0.00    +0.015 C 
ATOM     16  C   UNL     1       8.497  -4.027  26.520  0.00  0.00    +0.054 C 
ATOM     17  C   UNL     1       7.697  -5.281  26.863  0.00  0.00    +0.015 C 
ENDBRANCH  13  16
ENDBRANCH   1  13
TORSDOF 3
ENDMDL
MODEL 2
REMARK VINA RESULT:      -5.8      2.123      4.857
REMARK  Name = 
REMARK  7 active torsions:
REMARK  status: ('A' for Active; 'I' for Inactive)
REMARK    1  A    between atoms: C_1  and  C_2
REMARK    2  A    between atoms: C_2  and  C_3
REMARK    3  A    between atoms: C_2  and  C_4
REMARK    4  A    between atoms: C_4  and  C_6
REMARK    5  A    between atoms: C_14  and  C_15
REMARK    6  A    between atoms: C_15  and  C_16
REMARK    7  A    between atoms: C_15  and  C_17
REMARK                            x       y       z     vdW  Elec       q    Type
REMARK                         _______ _______ _______ _____ _____    ______ ____
ROOT
ATOM      1  C   UNL     1       7.697  -4.771  24.877  0.00  0.00    +0.066 A 
ATOM      2  C   UNL     1       6.854  -5.054  23.755  0.00  0.00    +0.077 A 
ATOM      3  N   UNL     1       5.739  -5.697  24.114  0.00  0.00    -0.170 NA
ATOM      4  N   UNL     1       5.825  -5.855  25.450  0.00  0.00    -0.239 N 
ATOM      5  C   UNL     1       4.908  -6.531  26.259  0.00  0.00    +0.113 A 
ATOM      6  C   UNL     1       5.105  -6.619  27.583  0.00  0.00    +0.020 A 
ATOM      7  C   UNL     1       6.271  -5.979  28.150  0.00  0.00    +0.004 A 
ATOM      8  C   UNL     1       7.167  -5.329  27.382  0.00  0.00    +0.028 A 
ATOM      9  C   UNL     1       6.984  -5.255  25.964  0.00  0.00    +0.078 A 
ENDROOT
BRANCH   2  10
ATOM     10  C   UNL     1       7.086  -4.707  22.300  0.00  0.00    +0.034 C 
ATOM     11  C   UNL     1       6.312  -3.460  21.854  0.00  0.00    +0.014 C 
ATOM     12  C   UNL     1       6.750  -5.883  21.382  0.00  0.00    +0.014 C 
ENDBRANCH   2  10
BRANCH   1  13
ATOM     13  C   UNL     1       9.019  -4.143  24.820  0.00  0.00    +0.170 C 
ATOM     14  O   UNL     1      10.027  -4.853  24.812  0.00  0.00    -0.292 OA
BRANCH  13  16
ATOM     15  C   UNL     1       9.702  -2.195  23.365  0.00  0.00    +0.015 C 
ATOM     16  C   UNL     1       9.164  -2.621  24.734  0.00  0.00    +0.054 C 
ATOM     17  C   UNL     1       7.818  -1.951  25.001  0.00  0.00    +0.015 C 
ENDBRANCH  13  16
ENDBRANCH   1  13
TORSDOF 3
ENDMDL
MODEL 3
REMARK VINA RESULT:      -5.8      1.206      1.523
REMARK  Name = 
REMARK  7 active torsions:
REMARK  status: ('A' for Active; 'I' for Inactive)
REMARK    1  A    between atoms: C_1  and  C_2
REMARK    2  A    between atoms: C_2  and  C_3
REMARK    3  A    between atoms: C_2  and  C_4
REMARK    4  A    between atoms: C_4  and  C_6
REMARK    5  A    between atoms: C_14  and  C_15
REMARK    6  A    between atoms: C_15  and  C_16
REMARK    7  A    between atoms: C_15  and  C_17
REMARK                            x       y       z     vdW  Elec       q    Type
REMARK                         _______ _______ _______ _____ _____    ______ ____
ROOT
ATOM      1  C   UNL     1       8.283  -2.745  24.506  0.00  0.00    +0.066 A 
ATOM      2  C   UNL     1       7.641  -3.378  23.394  0.00  0.00    +0.077 A 
ATOM      3  N   UNL     1       7.939  -2.782  22.235  0.00  0.00    -0.170 NA
ATOM      4  N   UNL     1       8.760  -1.761  22.554  0.00  0.00    -0.239 N 
ATOM      5  C   UNL     1       9.282  -0.818  21.664  0.00  0.00    +0.113 A 
ATOM      6  C   UNL     1      10.093   0.155  22.105  0.00  0.00    +0.020 A 
ATOM      7  C   UNL     1      10.430   0.188  23.511  0.00  0.00    +0.004 A 
ATOM      8  C   UNL     1       9.930  -0.710  24.381  0.00  0.00    +0.028 A 
ATOM      9  C   UNL     1       9.039  -1.735  23.928  0.00  0.00    +0.078 A 
ENDROOT
BRANCH   2  10
ATOM     10  C   UNL     1       6.727  -4.584  23.405  0.00  0.00    +0.034 C 
ATOM     11  C   UNL     1       7.179  -5.683  22.435  0.00  0.00    +0.014 C 
ATOM     12  C   UNL     1       5.278  -4.194  23.108  0.00  0.00    +0.014 C 
ENDBRANCH   2  10
BRANCH   1  13
ATOM     13  C   UNL     1       8.110  -3.106  25.916  0.00  0.00    +0.170 C 
ATOM     14  O   UNL     1       7.387  -2.412  26.633  0.00  0.00    -0.292 OA
BRANCH  13  16
ATOM     15  C   UNL     1       7.749  -5.397  26.913  0.00  0.00    +0.015 C 
ATOM     16  C   UNL     1       8.786  -4.350  26.496  0.00  0.00    +0.054 C 
ATOM     17  C   UNL     1       9.753  -4.946  25.477  0.00  0.00    +0.015 C 
ENDBRANCH  13  16
ENDBRANCH   1  13
TORSDOF 3
ENDMDL
MODEL 4
REMARK VINA RESULT:      -5.3      2.031      3.743
REMARK  Name = 
REMARK  7 active torsions:
REMARK  status: ('A' for Active; 'I' for Inactive)
REMARK    1  A    between atoms: C_1  and  C_2
REMARK    2  A    between atoms: C_2  and  C_3
REMARK    3  A    between atoms: C_2  and  C_4
REMARK    4  A    between atoms: C_4  and  C_6
REMARK    5  A    between atoms: C_14  and  C_15
REMARK    6  A    between atoms: C_15  and  C_16
REMARK    7  A    between atoms: C_15  and  C_17
REMARK                            x       y       z     vdW  Elec       q    Type
REMARK                         _______ _______ _______ _____ _____    ______ ____
ROOT
ATOM      1  C   UNL     1       7.172  -3.133  23.472  0.00  0.00    +0.066 A 
ATOM      2  C   UNL     1       7.272  -3.221  24.897  0.00  0.00    +0.077 A 
ATOM      3  N   UNL     1       8.252  -2.451  25.380  0.00  0.00    -0.170 NA
ATOM      4  N   UNL     1       8.810  -1.858  24.305  0.00  0.00    -0.239 N 
ATOM      5  C   UNL     1       9.918  -1.006  24.321  0.00  0.00    +0.113 A 
ATOM      6  C   UNL     1      10.381  -0.474  23.180  0.00  0.00    +0.020 A 
ATOM      7  C   UNL     1       9.694  -0.786  21.946  0.00  0.00    +0.004 A 
ATOM      8  C   UNL     1       8.629  -1.610  21.915  0.00  0.00    +0.028 A 
ATOM      9  C   UNL     1       8.144  -2.207  23.122  0.00  0.00    +0.078 A 
ENDROOT
BRANCH   2  10
ATOM     10  C   UNL     1       6.423  -4.040  25.845  0.00  0.00    +0.034 C 
ATOM     11  C   UNL     1       5.960  -3.243  27.071  0.00  0.00    +0.014 C 
ATOM     12  C   UNL     1       7.150  -5.309  26.295  0.00  0.00    +0.014 C 
ENDBRANCH   2  10
BRANCH   1  13
ATOM     13  C   UNL     1       6.253  -3.901  22.627  0.00  0.00    +0.170 C 
ATOM     14  O   UNL     1       5.380  -3.309  21.989  0.00  0.00    -0.292 OA
BRANCH  13  16
ATOM     15  C   UNL     1       5.201  -6.136  23.151  0.00  0.00    +0.015 C 
ATOM     16  C   UNL     1       6.388  -5.421  22.499  0.00  0.00    +0.054 C 
ATOM     17  C   UNL     1       6.496  -5.815  21.028  0.00  0.00    +0.015 C 
ENDBRANCH  13  16
ENDBRANCH   1  13
TORSDOF 3
ENDMDL
MODEL 5
REMARK VINA RESULT:      -5.3      1.567      3.227
REMARK  Name = 
REMARK  7 active torsions:
REMARK  status: ('A' for Active; 'I' for Inactive)
REMARK    1  A    between atoms: C_1  and  C_2
REMARK    2  A    between atoms: C_2  and  C_3
REMARK    3  A    between atoms: C_2  and  C_4
REMARK    4  A    between atoms: C_4  and  C_6
REMARK    5  A    between atoms: C_14  and  C_15
REMARK    6  A    between atoms: C_15  and  C_16
REMARK    7  A    between atoms: C_15  and  C_17
REMARK                            x       y       z     vdW  Elec       q    Type
REMARK                         _______ _______ _______ _____ _____    ______ ____
ROOT
ATOM      1  C   UNL     1       8.083  -3.346  23.976  0.00  0.00    +0.066 A 
ATOM      2  C   UNL     1       7.999  -3.030  25.370  0.00  0.00    +0.077 A 
ATOM      3  N   UNL     1       8.602  -1.873  25.659  0.00  0.00    -0.170 NA
ATOM      4  N   UNL     1       9.092  -1.416  24.488  0.00  0.00    -0.239 N 
ATOM      5  C   UNL     1       9.857  -0.260  24.313  0.00  0.00    +0.113 A 
ATOM      6  C   UNL     1      10.286   0.092  23.092  0.00  0.00    +0.020 A 
ATOM      7  C   UNL     1       9.920  -0.740  21.967  0.00  0.00    +0.004 A 
ATOM      8  C   UNL     1       9.189  -1.861  22.121  0.00  0.00    +0.028 A 
ATOM      9  C   UNL     1       8.750  -2.262  23.424  0.00  0.00    +0.078 A 
ENDROOT
BRANCH   2  10
ATOM     10  C   UNL     1       7.328  -3.823  26.470  0.00  0.00    +0.034 C 
ATOM     11  C   UNL     1       7.947  -5.212  26.666  0.00  0.00    +0.014 C 
ATOM     12  C   UNL     1       5.823  -3.954  26.228  0.00  0.00    +0.014 C 
ENDBRANCH   2  10
BRANCH   1  13
ATOM     13  C   UNL     1       7.589  -4.572  23.343  0.00  0.00    +0.170 C 
ATOM     14  O   UNL     1       8.310  -5.571  23.315  0.00  0.00    -0.292 OA
BRANCH  13  16
ATOM     15  C   UNL     1       5.642  -3.234  22.451  0.00  0.00    +0.015 C 
ATOM     16  C   UNL     1       6.179  -4.637  22.751  0.00  0.00    +0.054 C 
ATOM     17  C   UNL     1       6.183  -5.480  21.478  0.00  0.00    +0.015 C 
ENDBRANCH  13  16
ENDBRANCH   1  13
TORSDOF 3
ENDMDL
MODEL 6
REMARK VINA RESULT:      -5.2      4.357      6.311
REMARK  Name = 
REMARK  7 active torsions:
REMARK  status: ('A' for Active; 'I' for Inactive)
REMARK    1  A    between atoms: C_1  and  C_2
REMARK    2  A    between atoms: C_2  and  C_3
REMARK    3  A    between atoms: C_2  and  C_4
REMARK    4  A    between atoms: C_4  and  C_6
REMARK    5  A    between atoms: C_14  and  C_15
REMARK    6  A    between atoms: C_15  and  C_16
REMARK    7  A    between atoms: C_15  and  C_17
REMARK                            x       y       z     vdW  Elec       q    Type
REMARK                         _______ _______ _______ _____ _____    ______ ____
ROOT
ATOM      1  C   UNL     1       9.668   2.054  24.133  0.00  0.00    +0.066 A 
ATOM      2  C   UNL     1       8.396   2.312  24.738  0.00  0.00    +0.077 A 
ATOM      3  N   UNL     1       8.182   3.619  24.919  0.00  0.00    -0.170 NA
ATOM      4  N   UNL     1       9.287   4.236  24.454  0.00  0.00    -0.239 N 
ATOM      5  C   UNL     1       9.540   5.610  24.494  0.00  0.00    +0.113 A 
ATOM      6  C   UNL     1      10.682   6.105  23.996  0.00  0.00    +0.020 A 
ATOM      7  C   UNL     1      11.628   5.188  23.399  0.00  0.00    +0.004 A 
ATOM      8  C   UNL     1      11.401   3.861  23.359  0.00  0.00    +0.028 A 
ATOM      9  C   UNL     1      10.200   3.318  23.915  0.00  0.00    +0.078 A 
ENDROOT
BRANCH   2  10
ATOM     10  C   UNL     1       7.339   1.313  25.153  0.00  0.00    +0.034 C 
ATOM     11  C   UNL     1       6.436   0.883  23.990  0.00  0.00    +0.014 C 
ATOM     12  C   UNL     1       6.484   1.845  26.305  0.00  0.00    +0.014 C 
ENDBRANCH   2  10
BRANCH   1  13
ATOM     13  C   UNL     1      10.238   0.732  23.864  0.00  0.00    +0.170 C 
ATOM     14  O   UNL     1      10.715   0.078  24.794  0.00  0.00    -0.292 OA
BRANCH  13  16
ATOM     15  C   UNL     1       9.822  -1.342  22.484  0.00  0.00    +0.015 C 
ATOM     16  C   UNL     1      10.215   0.138  22.453  0.00  0.00    +0.054 C 
ATOM     17  C   UNL     1       9.246   0.920  21.571  0.00  0.00    +0.015 C 
ENDBRANCH  13  16
ENDBRANCH   1  13
TORSDOF 3
ENDMDL
MODEL 7
REMARK VINA RESULT:      -5.2      2.479      5.418
REMARK  Name = 
REMARK  7 active torsions:
REMARK  status: ('A' for Active; 'I' for Inactive)
REMARK    1  A    between atoms: C_1  and  C_2
REMARK    2  A    between atoms: C_2  and  C_3
REMARK    3  A    between atoms: C_2  and  C_4
REMARK    4  A    between atoms: C_4  and  C_6
REMARK    5  A    between atoms: C_14  and  C_15
REMARK    6  A    between atoms: C_15  and  C_16
REMARK    7  A    between atoms: C_15  and  C_17
REMARK                            x       y       z     vdW  Elec       q    Type
REMARK                         _______ _______ _______ _____ _____    ______ ____
ROOT
ATOM      1  C   UNL     1       7.833  -1.370  23.411  0.00  0.00    +0.066 A 
ATOM      2  C   UNL     1       8.203  -1.427  24.793  0.00  0.00    +0.077 A 
ATOM      3  N   UNL     1       7.996  -2.639  25.319  0.00  0.00    -0.170 NA
ATOM      4  N   UNL     1       7.488  -3.387  24.318  0.00  0.00    -0.239 N 
ATOM      5  C   UNL     1       7.059  -4.713  24.419  0.00  0.00    +0.113 A 
ATOM      6  C   UNL     1       6.571  -5.353  23.346  0.00  0.00    +0.020 A 
ATOM      7  C   UNL     1       6.523  -4.646  22.085  0.00  0.00    +0.004 A 
ATOM      8  C   UNL     1       6.927  -3.365  21.974  0.00  0.00    +0.028 A 
ATOM      9  C   UNL     1       7.421  -2.663  23.119  0.00  0.00    +0.078 A 
ENDROOT
BRANCH   2  10
ATOM     10  C   UNL     1       8.780  -0.324  25.653  0.00  0.00    +0.034 C 
ATOM     11  C   UNL     1      10.202   0.074  25.238  0.00  0.00    +0.014 C 
ATOM     12  C   UNL     1       8.757  -0.698  27.136  0.00  0.00    +0.014 C 
ENDBRANCH   2  10
BRANCH   1  13
ATOM     13  C   UNL     1       7.868  -0.176  22.563  0.00  0.00    +0.170 C 
ATOM     14  O   UNL     1       6.952   0.646  22.636  0.00  0.00    -0.292 OA
BRANCH  13  16
ATOM     15  C   UNL     1       9.672   1.451  21.876  0.00  0.00    +0.015 C 
ATOM     16  C   UNL     1       9.042   0.080  21.615  0.00  0.00    +0.054 C 
ATOM     17  C   UNL     1      10.091  -1.018  21.771  0.00  0.00    +0.015 C 
ENDBRANCH  13  16
ENDBRANCH   1  13
TORSDOF 3
ENDMDL
MODEL 8
REMARK VINA RESULT:      -5.1      2.075      3.550
REMARK  Name = 
REMARK  7 active torsions:
REMARK  status: ('A' for Active; 'I' for Inactive)
REMARK    1  A    between atoms: C_1  and  C_2
REMARK    2  A    between atoms: C_2  and  C_3
REMARK    3  A    between atoms: C_2  and  C_4
REMARK    4  A    between atoms: C_4  and  C_6
REMARK    5  A    between atoms: C_14  and  C_15
REMARK    6  A    between atoms: C_15  and  C_16
REMARK    7  A    between atoms: C_15  and  C_17
REMARK                            x       y       z     vdW  Elec       q    Type
REMARK                         _______ _______ _______ _____ _____    ______ ____
ROOT
ATOM      1  C   UNL     1       7.235  -2.210  23.899  0.00  0.00    +0.066 A 
ATOM      2  C   UNL     1       8.250  -3.053  24.454  0.00  0.00    +0.077 A 
ATOM      3  N   UNL     1       9.479  -2.580  24.220  0.00  0.00    -0.170 NA
ATOM      4  N   UNL     1       9.302  -1.444  23.515  0.00  0.00    -0.239 N 
ATOM      5  C   UNL     1      10.315  -0.635  22.993  0.00  0.00    +0.113 A 
ATOM      6  C   UNL     1      10.010   0.476  22.306  0.00  0.00    +0.020 A 
ATOM      7  C   UNL     1       8.616   0.824  22.142  0.00  0.00    +0.004 A 
ATOM      8  C   UNL     1       7.629   0.051  22.634  0.00  0.00    +0.028 A 
ATOM      9  C   UNL     1       7.941  -1.153  23.342  0.00  0.00    +0.078 A 
ENDROOT
BRANCH   2  10
ATOM     10  C   UNL     1       8.076  -4.335  25.238  0.00  0.00    +0.034 C 
ATOM     11  C   UNL     1       7.633  -4.093  26.686  0.00  0.00    +0.014 C 
ATOM     12  C   UNL     1       9.349  -5.183  25.218  0.00  0.00    +0.014 C 
ENDBRANCH   2  10
BRANCH   1  13
ATOM     13  C   UNL     1       5.794  -2.477  23.916  0.00  0.00    +0.170 C 
ATOM     14  O   UNL     1       5.082  -1.901  24.740  0.00  0.00    -0.292 OA
BRANCH  13  16
ATOM     15  C   UNL     1       6.089  -3.661  21.705  0.00  0.00    +0.015 C 
ATOM     16  C   UNL     1       5.161  -3.433  22.901  0.00  0.00    +0.054 C 
ATOM     17  C   UNL     1       4.830  -4.764  23.571  0.00  0.00    +0.015 C 
ENDBRANCH  13  16
ENDBRANCH   1  13
TORSDOF 3
ENDMDL
MODEL 9
REMARK VINA RESULT:      -5.0      2.635      5.316
REMARK  Name = 
REMARK  7 active torsions:
REMARK  status: ('A' for Active; 'I' for Inactive)
REMARK    1  A    between atoms: C_1  and  C_2
REMARK    2  A    between atoms: C_2  and  C_3
REMARK    3  A    between atoms: C_2  and  C_4
REMARK    4  A    between atoms: C_4  and  C_6
REMARK    5  A    between atoms: C_14  and  C_15
REMARK    6  A    between atoms: C_15  and  C_16
REMARK    7  A    between atoms: C_15  and  C_17
REMARK                            x       y       z     vdW  Elec       q    Type
REMARK                         _______ _______ _______ _____ _____    ______ ____
ROOT
ATOM      1  C   UNL     1       8.424  -0.723  24.046  0.00  0.00    +0.066 A 
ATOM      2  C   UNL     1       7.101  -0.175  24.041  0.00  0.00    +0.077 A 
ATOM      3  N   UNL     1       6.164  -1.125  24.115  0.00  0.00    -0.170 NA
ATOM      4  N   UNL     1       6.835  -2.294  24.163  0.00  0.00    -0.239 N 
ATOM      5  C   UNL     1       6.264  -3.569  24.186  0.00  0.00    +0.113 A 
ATOM      6  C   UNL     1       7.041  -4.661  24.235  0.00  0.00    +0.020 A 
ATOM      7  C   UNL     1       8.476  -4.483  24.287  0.00  0.00    +0.004 A 
ATOM      8  C   UNL     1       9.041  -3.261  24.260  0.00  0.00    +0.028 A 
ATOM      9  C   UNL     1       8.222  -2.089  24.177  0.00  0.00    +0.078 A 
ENDROOT
BRANCH   2  10
ATOM     10  C   UNL     1       6.692   1.280  23.974  0.00  0.00    +0.034 C 
ATOM     11  C   UNL     1       5.426   1.582  24.786  0.00  0.00    +0.014 C 
ATOM     12  C   UNL     1       6.504   1.745  22.529  0.00  0.00    +0.014 C 
ENDBRANCH   2  10
BRANCH   1  13
ATOM     13  C   UNL     1       9.668   0.038  23.905  0.00  0.00    +0.170 C 
ATOM     14  O   UNL     1      10.307   0.346  24.913  0.00  0.00    -0.292 OA
BRANCH  13  16
ATOM     15  C   UNL     1       9.438  -0.309  21.415  0.00  0.00    +0.015 C 
ATOM     16  C   UNL     1      10.201   0.423  22.522  0.00  0.00    +0.054 C 
ATOM     17  C   UNL     1      10.098   1.932  22.322  0.00  0.00    +0.015 C 
ENDBRANCH  13  16
ENDBRANCH   1  13
TORSDOF 3
ENDMDL
