MODEL 1
REMARK VINA RESULT:      -5.3      0.000      0.000
REMARK  Name = 
REMARK  5 active torsions:
REMARK  status: ('A' for Active; 'I' for Inactive)
REMARK    1  A    between atoms: N_1  and  CA_2
REMARK    2  A    between atoms: CA_2  and  C_4
REMARK    3  A    between atoms: CA_2  and  C_7
REMARK    4  A    between atoms: C_4  and  O_5
REMARK    5  A    between atoms: C_11  and  O_12
REMARK                            x       y       z     vdW  Elec       q    Type
REMARK                         _______ _______ _______ _____ _____    ______ ____
ROOT
ATOM      1  C   UNL     1       6.834  -4.719  23.624  0.00  0.00    -0.018 A 
ATOM      2  C   UNL     1       5.857  -5.016  24.594  0.00  0.00    +0.009 A 
ATOM      3  C   UNL     1       6.221  -5.358  25.900  0.00  0.00    +0.047 A 
ATOM      4  C   UNL     1       7.563  -5.408  26.250  0.00  0.00    +0.135 A 
ATOM      5  C   UNL     1       8.547  -5.080  25.318  0.00  0.00    +0.083 A 
ATOM      6 CL   UNL     1      10.214  -5.133  25.751  0.00  0.00    -0.080 Cl
ATOM      7  C   UNL     1       8.185  -4.722  24.016  0.00  0.00    +0.029 A 
ENDROOT
BRANCH   4   8
ATOM      8  O   UNL     1       7.870  -5.807  27.521  0.00  0.00    -0.505 OA
ATOM      9  H   UNL     1       8.785  -6.143  27.507  0.00  0.00    +0.292 HD
ENDBRANCH   4   8
BRANCH   1  10
ATOM     10  CA  UNL     1       6.400  -4.440  22.191  0.00  0.00    +0.191 C 
BRANCH  10  11
ATOM     11  N   UNL     1       5.171  -3.615  22.137  0.00  0.00    -0.315 NA
ATOM     12  H1  UNL     1       4.936  -3.374  23.105  0.00  0.00    +0.119 HD
ATOM     13  H2  UNL     1       5.399  -2.714  21.716  0.00  0.00    +0.119 HD
ENDBRANCH  10  11
BRANCH  10  14
ATOM     14  C   UNL     1       6.227  -5.671  21.268  0.00  0.00    +0.326 C 
ATOM     15  OXT UNL     1       5.965  -5.556  20.074  0.00  0.00    -0.249 OA
BRANCH  14  16
ATOM     16  O   UNL     1       6.358  -6.888  21.836  0.00  0.00    -0.479 OA
ATOM     17  H   UNL     1       5.532  -7.395  21.944  0.00  0.00    +0.295 HD
ENDBRANCH  14  16
ENDBRANCH  10  14
ENDBRANCH   1  10
TORSDOF 5
ENDMDL
MODEL 2
REMARK VINA RESULT:      -5.2      3.786      5.110
REMARK  Name = 
REMARK  5 active torsions:
REMARK  status: ('A' for Active; 'I' for Inactive)
REMARK    1  A    between atoms: N_1  and  CA_2
REMARK    2  A    between atoms: CA_2  and  C_4
REMARK    3  A    between atoms: CA_2  and  C_7
REMARK    4  A    between atoms: C_4  and  O_5
REMARK    5  A    between atoms: C_11  and  O_12
REMARK                            x       y       z     vdW  Elec       q    Type
REMARK                         _______ _______ _______ _____ _____    ______ ____
ROOT
ATOM      1  C   UNL     1       9.061  -3.320  25.515  0.00  0.00    -0.018 A 
ATOM      2  C   UNL     1       8.476  -2.263  26.239  0.00  0.00    +0.009 A 
ATOM      3  C   UNL     1       8.446  -0.966  25.718  0.00  0.00    +0.047 A 
ATOM      4  C   UNL     1       9.000  -0.711  24.472  0.00  0.00    +0.135 A 
ATOM      5  C   UNL     1       9.549  -1.748  23.720  0.00  0.00    +0.083 A 
ATOM      6 CL   UNL     1      10.231  -1.437  22.168  0.00  0.00    -0.080 Cl
ATOM      7  C   UNL     1       9.566  -3.049  24.230  0.00  0.00    +0.029 A 
ENDROOT
BRANCH   4   8
ATOM      8  O   UNL     1       9.000   0.584  24.034  0.00  0.00    -0.505 OA
ATOM      9  H   UNL     1       8.955   1.157  24.823  0.00  0.00    +0.292 HD
ENDBRANCH   4   8
BRANCH   1  10
ATOM     10  CA  UNL     1       9.155  -4.700  26.155  0.00  0.00    +0.191 C 
BRANCH  10  11
ATOM     11  N   UNL     1      10.012  -5.615  25.366  0.00  0.00    -0.315 NA
ATOM     12  H1  UNL     1      10.958  -5.221  25.384  0.00  0.00    +0.119 HD
ATOM     13  H2  UNL     1      10.111  -6.493  25.876  0.00  0.00    +0.119 HD
ENDBRANCH  10  11
BRANCH  10  14
ATOM     14  C   UNL     1       7.816  -5.407  26.475  0.00  0.00    +0.326 C 
ATOM     15  OXT UNL     1       6.895  -5.452  25.663  0.00  0.00    -0.249 OA
BRANCH  14  16
ATOM     16  O   UNL     1       7.692  -5.963  27.698  0.00  0.00    -0.479 OA
ATOM     17  H   UNL     1       7.209  -6.809  27.730  0.00  0.00    +0.295 HD
ENDBRANCH  14  16
ENDBRANCH  10  14
ENDBRANCH   1  10
TORSDOF 5
ENDMDL
MODEL 3
REMARK VINA RESULT:      -5.1      2.720      4.631
REMARK  Name = 
REMARK  5 active torsions:
REMARK  status: ('A' for Active; 'I' for Inactive)
REMARK    1  A    between atoms: N_1  and  CA_2
REMARK    2  A    between atoms: CA_2  and  C_4
REMARK    3  A    between atoms: CA_2  and  C_7
REMARK    4  A    between atoms: C_4  and  O_5
REMARK    5  A    between atoms: C_11  and  O_12
REMARK                            x       y       z     vdW  Elec       q    Type
REMARK                         _______ _______ _______ _____ _____    ______ ____
ROOT
ATOM      1  C   UNL     1       7.340  -4.638  24.141  0.00  0.00    -0.018 A 
ATOM      2  C   UNL     1       6.207  -4.946  24.918  0.00  0.00    +0.009 A 
ATOM      3  C   UNL     1       5.066  -5.506  24.336  0.00  0.00    +0.047 A 
ATOM      4  C   UNL     1       5.044  -5.762  22.972  0.00  0.00    +0.135 A 
ATOM      5  C   UNL     1       6.168  -5.503  22.189  0.00  0.00    +0.083 A 
ATOM      6 CL   UNL     1       6.147  -5.827  20.496  0.00  0.00    -0.080 Cl
ATOM      7  C   UNL     1       7.315  -4.958  22.771  0.00  0.00    +0.029 A 
ENDROOT
BRANCH   4   8
ATOM      8  O   UNL     1       3.884  -6.254  22.441  0.00  0.00    -0.505 OA
ATOM      9  H   UNL     1       4.012  -6.317  21.476  0.00  0.00    +0.292 HD
ENDBRANCH   4   8
BRANCH   1  10
ATOM     10  CA  UNL     1       8.528  -3.945  24.795  0.00  0.00    +0.191 C 
BRANCH  10  11
ATOM     11  N   UNL     1       9.460  -3.381  23.791  0.00  0.00    -0.315 NA
ATOM     12  H1  UNL     1       9.368  -3.958  22.949  0.00  0.00    +0.119 HD
ATOM     13  H2  UNL     1       9.110  -2.471  23.494  0.00  0.00    +0.119 HD
ENDBRANCH  10  11
BRANCH  10  14
ATOM     14  C   UNL     1       9.333  -4.776  25.824  0.00  0.00    +0.326 C 
ATOM     15  OXT UNL     1       9.132  -4.685  27.032  0.00  0.00    -0.249 OA
BRANCH  14  16
ATOM     16  O   UNL     1      10.285  -5.599  25.339  0.00  0.00    -0.479 OA
ATOM     17  H   UNL     1      10.780  -6.112  26.005  0.00  0.00    +0.295 HD
ENDBRANCH  14  16
ENDBRANCH  10  14
ENDBRANCH   1  10
TORSDOF 5
ENDMDL
MODEL 4
REMARK VINA RESULT:      -5.0      4.153      5.603
REMARK  Name = 
REMARK  5 active torsions:
REMARK  status: ('A' for Active; 'I' for Inactive)
REMARK    1  A    between atoms: N_1  and  CA_2
REMARK    2  A    between atoms: CA_2  and  C_4
REMARK    3  A    between atoms: CA_2  and  C_7
REMARK    4  A    between atoms: C_4  and  O_5
REMARK    5  A    between atoms: C_11  and  O_12
REMARK                            x       y       z     vdW  Elec       q    Type
REMARK                         _______ _______ _______ _____ _____    ______ ____
ROOT
ATOM      1  C   UNL     1       9.009  -2.576  23.588  0.00  0.00    -0.018 A 
ATOM      2  C   UNL     1       8.710  -2.264  22.248  0.00  0.00    +0.009 A 
ATOM      3  C   UNL     1       9.111  -1.049  21.685  0.00  0.00    +0.047 A 
ATOM      4  C   UNL     1       9.814  -0.132  22.455  0.00  0.00    +0.135 A 
ATOM      5  C   UNL     1      10.157  -0.435  23.772  0.00  0.00    +0.083 A 
ATOM      6 CL   UNL     1      11.036   0.697  24.729  0.00  0.00    -0.080 Cl
ATOM      7  C   UNL     1       9.771  -1.656  24.332  0.00  0.00    +0.029 A 
ENDROOT
BRANCH   4   8
ATOM      8  O   UNL     1      10.131   1.066  21.878  0.00  0.00    -0.505 OA
ATOM      9  H   UNL     1      10.854   0.900  21.244  0.00  0.00    +0.292 HD
ENDBRANCH   4   8
BRANCH   1  10
ATOM     10  CA  UNL     1       8.476  -3.870  24.190  0.00  0.00    +0.191 C 
BRANCH  10  11
ATOM     11  N   UNL     1       7.073  -3.729  24.645  0.00  0.00    -0.315 NA
ATOM     12  H1  UNL     1       7.052  -4.024  25.626  0.00  0.00    +0.119 HD
ATOM     13  H2  UNL     1       6.841  -2.736  24.690  0.00  0.00    +0.119 HD
ENDBRANCH  10  11
BRANCH  10  14
ATOM     14  C   UNL     1       9.317  -4.503  25.324  0.00  0.00    +0.326 C 
ATOM     15  OXT UNL     1       9.027  -4.354  26.508  0.00  0.00    -0.249 OA
BRANCH  14  16
ATOM     16  O   UNL     1      10.402  -5.218  24.960  0.00  0.00    -0.479 OA
ATOM     17  H   UNL     1      10.683  -5.114  24.031  0.00  0.00    +0.295 HD
ENDBRANCH  14  16
ENDBRANCH  10  14
ENDBRANCH   1  10
TORSDOF 5
ENDMDL
MODEL 5
REMARK VINA RESULT:      -5.0      2.327      2.815
REMARK  Name = 
REMARK  5 active torsions:
REMARK  status: ('A' for Active; 'I' for Inactive)
REMARK    1  A    between atoms: N_1  and  CA_2
REMARK    2  A    between atoms: CA_2  and  C_4
REMARK    3  A    between atoms: CA_2  and  C_7
REMARK    4  A    between atoms: C_4  and  O_5
REMARK    5  A    between atoms: C_11  and  O_12
REMARK                            x       y       z     vdW  Elec       q    Type
REMARK                         _______ _______ _______ _____ _____    ______ ____
ROOT
ATOM      1  C   UNL     1       7.638  -4.316  23.900  0.00  0.00    -0.018 A 
ATOM      2  C   UNL     1       8.789  -4.234  24.706  0.00  0.00    +0.009 A 
ATOM      3  C   UNL     1       8.815  -4.800  25.984  0.00  0.00    +0.047 A 
ATOM      4  C   UNL     1       7.690  -5.452  26.471  0.00  0.00    +0.135 A 
ATOM      5  C   UNL     1       6.552  -5.581  25.676  0.00  0.00    +0.083 A 
ATOM      6 CL   UNL     1       5.157  -6.398  26.273  0.00  0.00    -0.080 Cl
ATOM      7  C   UNL     1       6.530  -5.030  24.392  0.00  0.00    +0.029 A 
ENDROOT
BRANCH   4   8
ATOM      8  O   UNL     1       7.744  -5.935  27.749  0.00  0.00    -0.505 OA
ATOM      9  H   UNL     1       7.848  -6.904  27.688  0.00  0.00    +0.292 HD
ENDBRANCH   4   8
BRANCH   1  10
ATOM     10  CA  UNL     1       7.619  -3.609  22.551  0.00  0.00    +0.191 C 
BRANCH  10  11
ATOM     11  N   UNL     1       8.549  -2.456  22.521  0.00  0.00    -0.315 NA
ATOM     12  H1  UNL     1       8.306  -1.861  23.319  0.00  0.00    +0.119 HD
ATOM     13  H2  UNL     1       9.488  -2.786  22.747  0.00  0.00    +0.119 HD
ENDBRANCH  10  11
BRANCH  10  14
ATOM     14  C   UNL     1       6.235  -3.159  22.025  0.00  0.00    +0.326 C 
ATOM     15  OXT UNL     1       5.648  -3.771  21.137  0.00  0.00    -0.249 OA
BRANCH  14  16
ATOM     16  O   UNL     1       5.701  -2.048  22.572  0.00  0.00    -0.479 OA
ATOM     17  H   UNL     1       6.226  -1.632  23.281  0.00  0.00    +0.295 HD
ENDBRANCH  14  16
ENDBRANCH  10  14
ENDBRANCH   1  10
TORSDOF 5
ENDMDL
MODEL 6
REMARK VINA RESULT:      -4.9      5.034      5.903
REMARK  Name = 
REMARK  5 active torsions:
REMARK  status: ('A' for Active; 'I' for Inactive)
REMARK    1  A    between atoms: N_1  and  CA_2
REMARK    2  A    between atoms: CA_2  and  C_4
REMARK    3  A    between atoms: CA_2  and  C_7
REMARK    4  A    between atoms: C_4  and  O_5
REMARK    5  A    between atoms: C_11  and  O_12
REMARK                            x       y       z     vdW  Elec       q    Type
REMARK                         _______ _______ _______ _____ _____    ______ ____
ROOT
ATOM      1  C   UNL     1       8.922  -1.530  23.357  0.00  0.00    -0.018 A 
ATOM      2  C   UNL     1       9.211  -1.468  21.980  0.00  0.00    +0.009 A 
ATOM      3  C   UNL     1       9.554  -0.257  21.372  0.00  0.00    +0.047 A 
ATOM      4  C   UNL     1       9.609   0.904  22.131  0.00  0.00    +0.135 A 
ATOM      5  C   UNL     1       9.366   0.860  23.503  0.00  0.00    +0.083 A 
ATOM      6 CL   UNL     1       9.442   2.297  24.451  0.00  0.00    -0.080 Cl
ATOM      7  C   UNL     1       9.039  -0.352  24.117  0.00  0.00    +0.029 A 
ENDROOT
BRANCH   4   8
ATOM      8  O   UNL     1       9.889   2.072  21.479  0.00  0.00    -0.505 OA
ATOM      9  H   UNL     1      10.215   2.705  22.146  0.00  0.00    +0.292 HD
ENDBRANCH   4   8
BRANCH   1  10
ATOM     10  CA  UNL     1       8.464  -2.851  23.964  0.00  0.00    +0.191 C 
BRANCH  10  11
ATOM     11  N   UNL     1       9.605  -3.755  24.239  0.00  0.00    -0.315 NA
ATOM     12  H1  UNL     1       9.270  -4.455  24.908  0.00  0.00    +0.119 HD
ATOM     13  H2  UNL     1       9.800  -4.302  23.401  0.00  0.00    +0.119 HD
ENDBRANCH  10  11
BRANCH  10  14
ATOM     14  C   UNL     1       7.375  -3.629  23.187  0.00  0.00    +0.326 C 
ATOM     15  OXT UNL     1       7.582  -4.746  22.723  0.00  0.00    -0.249 OA
BRANCH  14  16
ATOM     16  O   UNL     1       6.183  -3.019  23.024  0.00  0.00    -0.479 OA
ATOM     17  H   UNL     1       5.939  -2.809  22.103  0.00  0.00    +0.295 HD
ENDBRANCH  14  16
ENDBRANCH  10  14
ENDBRANCH   1  10
TORSDOF 5
ENDMDL
MODEL 7
REMARK VINA RESULT:      -4.9      6.315      7.026
REMARK  Name = 
REMARK  5 active torsions:
REMARK  status: ('A' for Active; 'I' for Inactive)
REMARK    1  A    between atoms: N_1  and  CA_2
REMARK    2  A    between atoms: CA_2  and  C_4
REMARK    3  A    between atoms: CA_2  and  C_7
REMARK    4  A    between atoms: C_4  and  O_5
REMARK    5  A    between atoms: C_11  and  O_12
REMARK                            x       y       z     vdW  Elec       q    Type
REMARK                         _______ _______ _______ _____ _____    ______ ____
ROOT
ATOM      1  C   UNL     1       9.263   0.461  23.168  0.00  0.00    -0.018 A 
ATOM      2  C   UNL     1       9.944  -0.395  22.281  0.00  0.00    +0.009 A 
ATOM      3  C   UNL     1      10.204  -1.725  22.623  0.00  0.00    +0.047 A 
ATOM      4  C   UNL     1       9.789  -2.213  23.855  0.00  0.00    +0.135 A 
ATOM      5  C   UNL     1       9.079  -1.396  24.733  0.00  0.00    +0.083 A 
ATOM      6 CL   UNL     1       8.555  -2.000  26.259  0.00  0.00    -0.080 Cl
ATOM      7  C   UNL     1       8.803  -0.070  24.386  0.00  0.00    +0.029 A 
ENDROOT
BRANCH   4   8
ATOM      8  O   UNL     1      10.121  -3.502  24.167  0.00  0.00    -0.505 OA
ATOM      9  H   UNL     1      10.617  -3.478  25.007  0.00  0.00    +0.292 HD
ENDBRANCH   4   8
BRANCH   1  10
ATOM     10  CA  UNL     1       9.079   1.927  22.796  0.00  0.00    +0.191 C 
BRANCH  10  11
ATOM     11  N   UNL     1       8.941   2.111  21.332  0.00  0.00    -0.315 NA
ATOM     12  H1  UNL     1       7.941   2.032  21.119  0.00  0.00    +0.119 HD
ATOM     13  H2  UNL     1       9.156   3.082  21.102  0.00  0.00    +0.119 HD
ENDBRANCH  10  11
BRANCH  10  14
ATOM     14  C   UNL     1      10.141   2.917  23.334  0.00  0.00    +0.326 C 
ATOM     15  OXT UNL     1      11.192   2.530  23.837  0.00  0.00    -0.249 OA
BRANCH  14  16
ATOM     16  O   UNL     1       9.857   4.232  23.244  0.00  0.00    -0.479 OA
ATOM     17  H   UNL     1       9.936   4.739  24.074  0.00  0.00    +0.295 HD
ENDBRANCH  14  16
ENDBRANCH  10  14
ENDBRANCH   1  10
TORSDOF 5
ENDMDL
MODEL 8
REMARK VINA RESULT:      -4.8      3.851      5.020
REMARK  Name = 
REMARK  5 active torsions:
REMARK  status: ('A' for Active; 'I' for Inactive)
REMARK    1  A    between atoms: N_1  and  CA_2
REMARK    2  A    between atoms: CA_2  and  C_4
REMARK    3  A    between atoms: CA_2  and  C_7
REMARK    4  A    between atoms: C_4  and  O_5
REMARK    5  A    between atoms: C_11  and  O_12
REMARK                            x       y       z     vdW  Elec       q    Type
REMARK                         _______ _______ _______ _____ _____    ______ ____
ROOT
ATOM      1  C   UNL     1       8.792  -2.918  24.529  0.00  0.00    -0.018 A 
ATOM      2  C   UNL     1       8.581  -2.323  25.788  0.00  0.00    +0.009 A 
ATOM      3  C   UNL     1       8.874  -0.974  26.004  0.00  0.00    +0.047 A 
ATOM      4  C   UNL     1       9.384  -0.205  24.966  0.00  0.00    +0.135 A 
ATOM      5  C   UNL     1       9.564  -0.762  23.701  0.00  0.00    +0.083 A 
ATOM      6 CL   UNL     1      10.188   0.192  22.408  0.00  0.00    -0.080 Cl
ATOM      7  C   UNL     1       9.256  -2.106  23.478  0.00  0.00    +0.029 A 
ENDROOT
BRANCH   4   8
ATOM      8  O   UNL     1       9.711   1.093  25.244  0.00  0.00    -0.505 OA
ATOM      9  H   UNL     1       9.162   1.659  24.670  0.00  0.00    +0.292 HD
ENDBRANCH   4   8
BRANCH   1  10
ATOM     10  CA  UNL     1       8.546  -4.412  24.359  0.00  0.00    +0.191 C 
BRANCH  10  11
ATOM     11  N   UNL     1       7.150  -4.698  23.953  0.00  0.00    -0.315 NA
ATOM     12  H1  UNL     1       6.847  -5.512  24.496  0.00  0.00    +0.119 HD
ATOM     13  H2  UNL     1       6.549  -3.947  24.295  0.00  0.00    +0.119 HD
ENDBRANCH  10  11
BRANCH  10  14
ATOM     14  C   UNL     1       8.922  -5.316  25.557  0.00  0.00    +0.326 C 
ATOM     15  OXT UNL     1       8.072  -5.772  26.318  0.00  0.00    -0.249 OA
BRANCH  14  16
ATOM     16  O   UNL     1      10.233  -5.573  25.746  0.00  0.00    -0.479 OA
ATOM     17  H   UNL     1      10.472  -6.516  25.819  0.00  0.00    +0.295 HD
ENDBRANCH  14  16
ENDBRANCH  10  14
ENDBRANCH   1  10
TORSDOF 5
ENDMDL
MODEL 9
REMARK VINA RESULT:      -4.8      6.765      7.585
REMARK  Name = 
REMARK  5 active torsions:
REMARK  status: ('A' for Active; 'I' for Inactive)
REMARK    1  A    between atoms: N_1  and  CA_2
REMARK    2  A    between atoms: CA_2  and  C_4
REMARK    3  A    between atoms: CA_2  and  C_7
REMARK    4  A    between atoms: C_4  and  O_5
REMARK    5  A    between atoms: C_11  and  O_12
REMARK                            x       y       z     vdW  Elec       q    Type
REMARK                         _______ _______ _______ _____ _____    ______ ____
ROOT
ATOM      1  C   UNL     1       9.881   0.377  23.031  0.00  0.00    -0.018 A 
ATOM      2  C   UNL     1      10.737   1.246  23.735  0.00  0.00    +0.009 A 
ATOM      3  C   UNL     1      10.466   2.615  23.813  0.00  0.00    +0.047 A 
ATOM      4  C   UNL     1       9.339   3.131  23.187  0.00  0.00    +0.135 A 
ATOM      5  C   UNL     1       8.456   2.285  22.518  0.00  0.00    +0.083 A 
ATOM      6 CL   UNL     1       7.052   2.920  21.748  0.00  0.00    -0.080 Cl
ATOM      7  C   UNL     1       8.716   0.914  22.453  0.00  0.00    +0.029 A 
ENDROOT
BRANCH   4   8
ATOM      8  O   UNL     1       9.151   4.484  23.241  0.00  0.00    -0.505 OA
ATOM      9  H   UNL     1       9.932   4.902  22.832  0.00  0.00    +0.292 HD
ENDBRANCH   4   8
BRANCH   1  10
ATOM     10  CA  UNL     1      10.259  -1.092  22.893  0.00  0.00    +0.191 C 
BRANCH  10  11
ATOM     11  N   UNL     1       9.926  -1.623  21.550  0.00  0.00    -0.315 NA
ATOM     12  H1  UNL     1       9.111  -1.096  21.221  0.00  0.00    +0.119 HD
ATOM     13  H2  UNL     1      10.663  -1.352  20.899  0.00  0.00    +0.119 HD
ENDBRANCH  10  11
BRANCH  10  14
ATOM     14  C   UNL     1       9.704  -2.054  23.971  0.00  0.00    +0.326 C 
ATOM     15  OXT UNL     1       8.879  -1.688  24.804  0.00  0.00    -0.249 OA
BRANCH  14  16
ATOM     16  O   UNL     1      10.180  -3.316  23.972  0.00  0.00    -0.479 OA
ATOM     17  H   UNL     1      11.147  -3.403  23.881  0.00  0.00    +0.295 HD
ENDBRANCH  14  16
ENDBRANCH  10  14
ENDBRANCH   1  10
TORSDOF 5
ENDMDL
