MODEL 1
REMARK VINA RESULT:      -5.4      0.000      0.000
REMARK  Name = 
REMARK  5 active torsions:
REMARK  status: ('A' for Active; 'I' for Inactive)
REMARK    1  A    between atoms: C_5  and  C_7
REMARK    2  A    between atoms: C_7  and  C_8
REMARK    3  A    between atoms: C_8  and  C_9
REMARK    4  A    between atoms: C_9  and  C_10
REMARK    5  A    between atoms: C_10  and  O_11
REMARK                            x       y       z     vdW  Elec       q    Type
REMARK                         _______ _______ _______ _____ _____    ______ ____
ROOT
ATOM      1  C   UNL     1       7.080  -4.896  23.928  0.00  0.00    +0.105 C 
ATOM      2  N   UNL     1       7.184  -5.390  22.575  0.00  0.00    -0.294 N 
ATOM      3  H   UNL     1       7.443  -6.329  22.300  0.00  0.00    +0.151 HD
ATOM      4  C   UNL     1       6.260  -4.714  21.784  0.00  0.00    +0.300 C 
ATOM      5  O   UNL     1       5.910  -5.022  20.662  0.00  0.00    -0.253 OA
ATOM      6  N   UNL     1       5.812  -3.622  22.513  0.00  0.00    -0.294 N 
ATOM      7  H   UNL     1       5.146  -2.967  22.123  0.00  0.00    +0.151 HD
ATOM      8  C   UNL     1       6.606  -3.457  23.706  0.00  0.00    +0.108 C 
ATOM      9  C   UNL     1       7.851  -2.544  23.539  0.00  0.00    +0.069 C 
ATOM     10  S   UNL     1       9.217  -3.374  24.443  0.00  0.00    -0.154 S 
ATOM     11  C   UNL     1       8.332  -4.914  24.774  0.00  0.00    +0.093 C 
ENDROOT
BRANCH   9  12
ATOM     12  C   UNL     1       8.369  -2.211  22.123  0.00  0.00    +0.016 C 
BRANCH  12  13
ATOM     13  C   UNL     1       9.648  -1.363  22.024  0.00  0.00    +0.012 C 
BRANCH  13  14
ATOM     14  C   UNL     1       9.439   0.002  21.381  0.00  0.00    +0.120 C 
BRANCH  14  15
ATOM     15  C   UNL     1       9.997   1.119  22.226  0.00  0.00    +0.305 C 
ATOM     16  O   UNL     1      10.304   0.981  23.402  0.00  0.00    -0.251 OA
BRANCH  15  17
ATOM     17  O   UNL     1      10.141   2.287  21.571  0.00  0.00    -0.481 OA
ATOM     18  H   UNL     1      10.608   2.218  20.719  0.00  0.00    +0.295 HD
ENDBRANCH  15  17
ENDBRANCH  14  15
ENDBRANCH  13  14
ENDBRANCH  12  13
ENDBRANCH   9  12
TORSDOF 5
ENDMDL
MODEL 2
REMARK VINA RESULT:      -5.3      3.522      5.102
REMARK  Name = 
REMARK  5 active torsions:
REMARK  status: ('A' for Active; 'I' for Inactive)
REMARK    1  A    between atoms: C_5  and  C_7
REMARK    2  A    between atoms: C_7  and  C_8
REMARK    3  A    between atoms: C_8  and  C_9
REMARK    4  A    between atoms: C_9  and  C_10
REMARK    5  A    between atoms: C_10  and  O_11
REMARK                            x       y       z     vdW  Elec       q    Type
REMARK                         _______ _______ _______ _____ _____    ______ ____
ROOT
ATOM      1  C   UNL     1       7.820  -0.852  24.508  0.00  0.00    +0.105 C 
ATOM      2  N   UNL     1       6.870  -1.564  25.330  0.00  0.00    -0.294 N 
ATOM      3  H   UNL     1       6.771  -1.483  26.334  0.00  0.00    +0.151 HD
ATOM      4  C   UNL     1       5.720  -1.793  24.581  0.00  0.00    +0.300 C 
ATOM      5  O   UNL     1       4.642  -2.155  25.008  0.00  0.00    -0.253 OA
ATOM      6  N   UNL     1       6.033  -1.533  23.254  0.00  0.00    -0.294 N 
ATOM      7  H   UNL     1       5.348  -1.658  22.518  0.00  0.00    +0.151 HD
ATOM      8  C   UNL     1       7.454  -1.339  23.103  0.00  0.00    +0.108 C 
ATOM      9  C   UNL     1       8.259  -2.631  22.799  0.00  0.00    +0.069 C 
ATOM     10  S   UNL     1       9.781  -2.537  23.823  0.00  0.00    -0.154 S 
ATOM     11  C   UNL     1       9.289  -1.086  24.780  0.00  0.00    +0.093 C 
ENDROOT
BRANCH   9  12
ATOM     12  C   UNL     1       7.613  -4.011  23.055  0.00  0.00    +0.016 C 
BRANCH  12  13
ATOM     13  C   UNL     1       8.218  -4.872  24.176  0.00  0.00    +0.012 C 
BRANCH  13  14
ATOM     14  C   UNL     1       7.261  -5.150  25.329  0.00  0.00    +0.120 C 
BRANCH  14  15
ATOM     15  C   UNL     1       7.889  -4.861  26.669  0.00  0.00    +0.305 C 
ATOM     16  O   UNL     1       8.378  -3.779  26.961  0.00  0.00    -0.251 OA
BRANCH  15  17
ATOM     17  O   UNL     1       7.854  -5.898  27.528  0.00  0.00    -0.481 OA
ATOM     18  H   UNL     1       8.607  -6.511  27.454  0.00  0.00    +0.295 HD
ENDBRANCH  15  17
ENDBRANCH  14  15
ENDBRANCH  13  14
ENDBRANCH  12  13
ENDBRANCH   9  12
TORSDOF 5
ENDMDL
MODEL 3
REMARK VINA RESULT:      -5.3      2.981      3.654
REMARK  Name = 
REMARK  5 active torsions:
REMARK  status: ('A' for Active; 'I' for Inactive)
REMARK    1  A    between atoms: C_5  and  C_7
REMARK    2  A    between atoms: C_7  and  C_8
REMARK    3  A    between atoms: C_8  and  C_9
REMARK    4  A    between atoms: C_9  and  C_10
REMARK    5  A    between atoms: C_10  and  O_11
REMARK                            x       y       z     vdW  Elec       q    Type
REMARK                         _______ _______ _______ _____ _____    ______ ____
ROOT
ATOM      1  C   UNL     1       7.484  -1.785  22.910  0.00  0.00    +0.105 C 
ATOM      2  N   UNL     1       6.801  -0.516  23.007  0.00  0.00    -0.294 N 
ATOM      3  H   UNL     1       6.334  -0.030  22.252  0.00  0.00    +0.151 HD
ATOM      4  C   UNL     1       6.262  -0.400  24.285  0.00  0.00    +0.300 C 
ATOM      5  O   UNL     1       5.439   0.417  24.649  0.00  0.00    -0.253 OA
ATOM      6  N   UNL     1       6.839  -1.389  25.069  0.00  0.00    -0.294 N 
ATOM      7  H   UNL     1       6.613  -1.481  26.051  0.00  0.00    +0.151 HD
ATOM      8  C   UNL     1       7.923  -2.022  24.358  0.00  0.00    +0.108 C 
ATOM      9  C   UNL     1       9.313  -1.365  24.570  0.00  0.00    +0.069 C 
ATOM     10  S   UNL     1      10.120  -1.333  22.920  0.00  0.00    -0.154 S 
ATOM     11  C   UNL     1       8.672  -1.866  21.979  0.00  0.00    +0.093 C 
ENDROOT
BRANCH   9  12
ATOM     12  C   UNL     1       9.402   0.061  25.157  0.00  0.00    +0.016 C 
BRANCH  12  13
ATOM     13  C   UNL     1      10.109   1.129  24.304  0.00  0.00    +0.012 C 
BRANCH  13  14
ATOM     14  C   UNL     1       9.177   2.201  23.755  0.00  0.00    +0.120 C 
BRANCH  14  15
ATOM     15  C   UNL     1       9.042   2.122  22.256  0.00  0.00    +0.305 C 
ATOM     16  O   UNL     1       7.970   1.968  21.686  0.00  0.00    -0.251 OA
BRANCH  15  17
ATOM     17  O   UNL     1      10.206   2.247  21.590  0.00  0.00    -0.481 OA
ATOM     18  H   UNL     1      10.132   2.155  20.624  0.00  0.00    +0.295 HD
ENDBRANCH  15  17
ENDBRANCH  14  15
ENDBRANCH  13  14
ENDBRANCH  12  13
ENDBRANCH   9  12
TORSDOF 5
ENDMDL
MODEL 4
REMARK VINA RESULT:      -5.3      2.934      4.812
REMARK  Name = 
REMARK  5 active torsions:
REMARK  status: ('A' for Active; 'I' for Inactive)
REMARK    1  A    between atoms: C_5  and  C_7
REMARK    2  A    between atoms: C_7  and  C_8
REMARK    3  A    between atoms: C_8  and  C_9
REMARK    4  A    between atoms: C_9  and  C_10
REMARK    5  A    between atoms: C_10  and  O_11
REMARK                            x       y       z     vdW  Elec       q    Type
REMARK                         _______ _______ _______ _____ _____    ______ ____
ROOT
ATOM      1  C   UNL     1       6.391  -3.815  21.668  0.00  0.00    +0.105 C 
ATOM      2  N   UNL     1       7.608  -3.268  22.219  0.00  0.00    -0.294 N 
ATOM      3  H   UNL     1       8.538  -3.371  21.833  0.00  0.00    +0.151 HD
ATOM      4  C   UNL     1       7.304  -2.075  22.869  0.00  0.00    +0.300 C 
ATOM      5  O   UNL     1       8.098  -1.236  23.245  0.00  0.00    -0.253 OA
ATOM      6  N   UNL     1       5.924  -2.021  23.008  0.00  0.00    -0.294 N 
ATOM      7  H   UNL     1       5.473  -1.246  23.478  0.00  0.00    +0.151 HD
ATOM      8  C   UNL     1       5.334  -3.285  22.641  0.00  0.00    +0.108 C 
ATOM      9  C   UNL     1       5.181  -4.297  23.808  0.00  0.00    +0.069 C 
ATOM     10  S   UNL     1       5.672  -5.933  23.134  0.00  0.00    -0.154 S 
ATOM     11  C   UNL     1       6.294  -5.319  21.552  0.00  0.00    +0.093 C 
ENDROOT
BRANCH   9  12
ATOM     12  C   UNL     1       5.974  -4.078  25.116  0.00  0.00    +0.016 C 
BRANCH  12  13
ATOM     13  C   UNL     1       6.986  -5.166  25.513  0.00  0.00    +0.012 C 
BRANCH  13  14
ATOM     14  C   UNL     1       8.244  -4.628  26.183  0.00  0.00    +0.120 C 
BRANCH  14  15
ATOM     15  C   UNL     1       9.457  -4.752  25.296  0.00  0.00    +0.305 C 
ATOM     16  O   UNL     1       9.645  -4.047  24.314  0.00  0.00    -0.251 OA
BRANCH  15  17
ATOM     17  O   UNL     1      10.328  -5.702  25.685  0.00  0.00    -0.481 OA
ATOM     18  H   UNL     1      10.078  -6.609  25.433  0.00  0.00    +0.295 HD
ENDBRANCH  15  17
ENDBRANCH  14  15
ENDBRANCH  13  14
ENDBRANCH  12  13
ENDBRANCH   9  12
TORSDOF 5
ENDMDL
MODEL 5
REMARK VINA RESULT:      -5.3      4.419      5.906
REMARK  Name = 
REMARK  5 active torsions:
REMARK  status: ('A' for Active; 'I' for Inactive)
REMARK    1  A    between atoms: C_5  and  C_7
REMARK    2  A    between atoms: C_7  and  C_8
REMARK    3  A    between atoms: C_8  and  C_9
REMARK    4  A    between atoms: C_9  and  C_10
REMARK    5  A    between atoms: C_10  and  O_11
REMARK                            x       y       z     vdW  Elec       q    Type
REMARK                         _______ _______ _______ _____ _____    ______ ____
ROOT
ATOM      1  C   UNL     1       7.105   1.222  22.455  0.00  0.00    +0.105 C 
ATOM      2  N   UNL     1       8.001   0.124  22.732  0.00  0.00    -0.294 N 
ATOM      3  H   UNL     1       7.736  -0.792  23.073  0.00  0.00    +0.151 HD
ATOM      4  C   UNL     1       9.084   0.205  21.862  0.00  0.00    +0.300 C 
ATOM      5  O   UNL     1       9.906  -0.664  21.652  0.00  0.00    -0.253 OA
ATOM      6  N   UNL     1       9.050   1.463  21.277  0.00  0.00    -0.294 N 
ATOM      7  H   UNL     1       9.763   1.756  20.620  0.00  0.00    +0.151 HD
ATOM      8  C   UNL     1       8.065   2.291  21.927  0.00  0.00    +0.108 C 
ATOM      9  C   UNL     1       8.598   3.117  23.128  0.00  0.00    +0.069 C 
ATOM     10  S   UNL     1       7.313   3.008  24.435  0.00  0.00    -0.154 S 
ATOM     11  C   UNL     1       6.293   1.766  23.609  0.00  0.00    +0.093 C 
ENDROOT
BRANCH   9  12
ATOM     12  C   UNL     1       9.949   2.738  23.775  0.00  0.00    +0.016 C 
BRANCH  12  13
ATOM     13  C   UNL     1      11.198   3.489  23.284  0.00  0.00    +0.012 C 
BRANCH  13  14
ATOM     14  C   UNL     1      11.206   4.972  23.631  0.00  0.00    +0.120 C 
BRANCH  14  15
ATOM     15  C   UNL     1      12.598   5.552  23.611  0.00  0.00    +0.305 C 
ATOM     16  O   UNL     1      13.411   5.315  22.728  0.00  0.00    -0.251 OA
BRANCH  15  17
ATOM     17  O   UNL     1      12.869   6.368  24.647  0.00  0.00    -0.481 OA
ATOM     18  H   UNL     1      12.910   5.925  25.513  0.00  0.00    +0.295 HD
ENDBRANCH  15  17
ENDBRANCH  14  15
ENDBRANCH  13  14
ENDBRANCH  12  13
ENDBRANCH   9  12
TORSDOF 5
ENDMDL
MODEL 6
REMARK VINA RESULT:      -5.2      3.885      4.998
REMARK  Name = 
REMARK  5 active torsions:
REMARK  status: ('A' for Active; 'I' for Inactive)
REMARK    1  A    between atoms: C_5  and  C_7
REMARK    2  A    between atoms: C_7  and  C_8
REMARK    3  A    between atoms: C_8  and  C_9
REMARK    4  A    between atoms: C_9  and  C_10
REMARK    5  A    between atoms: C_10  and  O_11
REMARK                            x       y       z     vdW  Elec       q    Type
REMARK                         _______ _______ _______ _____ _____    ______ ____
ROOT
ATOM      1  C   UNL     1       7.507   1.969  24.415  0.00  0.00    +0.105 C 
ATOM      2  N   UNL     1       7.518   0.532  24.561  0.00  0.00    -0.294 N 
ATOM      3  H   UNL     1       7.685   0.020  25.418  0.00  0.00    +0.151 HD
ATOM      4  C   UNL     1       6.626  -0.013  23.642  0.00  0.00    +0.300 C 
ATOM      5  O   UNL     1       6.209  -1.154  23.633  0.00  0.00    -0.253 OA
ATOM      6  N   UNL     1       6.301   0.987  22.738  0.00  0.00    -0.294 N 
ATOM      7  H   UNL     1       5.679   0.810  21.959  0.00  0.00    +0.151 HD
ATOM      8  C   UNL     1       7.150   2.136  22.935  0.00  0.00    +0.108 C 
ATOM      9  C   UNL     1       8.461   2.129  22.104  0.00  0.00    +0.069 C 
ATOM     10  S   UNL     1       9.784   2.720  23.232  0.00  0.00    -0.154 S 
ATOM     11  C   UNL     1       8.784   2.711  24.736  0.00  0.00    +0.093 C 
ENDROOT
BRANCH   9  12
ATOM     12  C   UNL     1       8.952   0.811  21.465  0.00  0.00    +0.016 C 
BRANCH  12  13
ATOM     13  C   UNL     1      10.135   0.099  22.144  0.00  0.00    +0.012 C 
BRANCH  13  14
ATOM     14  C   UNL     1       9.992  -1.416  22.208  0.00  0.00    +0.120 C 
BRANCH  14  15
ATOM     15  C   UNL     1      10.026  -1.930  23.625  0.00  0.00    +0.305 C 
ATOM     16  O   UNL     1      10.136  -3.115  23.906  0.00  0.00    -0.251 OA
BRANCH  15  17
ATOM     17  O   UNL     1       9.936  -0.967  24.562  0.00  0.00    -0.481 OA
ATOM     18  H   UNL     1      10.686  -0.933  25.181  0.00  0.00    +0.295 HD
ENDBRANCH  15  17
ENDBRANCH  14  15
ENDBRANCH  13  14
ENDBRANCH  12  13
ENDBRANCH   9  12
TORSDOF 5
ENDMDL
MODEL 7
REMARK VINA RESULT:      -5.2      2.964      3.595
REMARK  Name = 
REMARK  5 active torsions:
REMARK  status: ('A' for Active; 'I' for Inactive)
REMARK    1  A    between atoms: C_5  and  C_7
REMARK    2  A    between atoms: C_7  and  C_8
REMARK    3  A    between atoms: C_8  and  C_9
REMARK    4  A    between atoms: C_9  and  C_10
REMARK    5  A    between atoms: C_10  and  O_11
REMARK                            x       y       z     vdW  Elec       q    Type
REMARK                         _______ _______ _______ _____ _____    ______ ____
ROOT
ATOM      1  C   UNL     1       8.480  -2.498  24.667  0.00  0.00    +0.105 C 
ATOM      2  N   UNL     1       9.770  -2.407  24.026  0.00  0.00    -0.294 N 
ATOM      3  H   UNL     1      10.514  -3.091  24.081  0.00  0.00    +0.151 HD
ATOM      4  C   UNL     1       9.625  -1.700  22.836  0.00  0.00    +0.300 C 
ATOM      5  O   UNL     1      10.438  -1.628  21.936  0.00  0.00    -0.253 OA
ATOM      6  N   UNL     1       8.378  -1.091  22.866  0.00  0.00    -0.294 N 
ATOM      7  H   UNL     1       8.063  -0.499  22.108  0.00  0.00    +0.151 HD
ATOM      8  C   UNL     1       7.789  -1.222  24.177  0.00  0.00    +0.108 C 
ATOM      9  C   UNL     1       8.122  -0.067  25.159  0.00  0.00    +0.069 C 
ATOM     10  S   UNL     1       8.464  -0.858  26.780  0.00  0.00    -0.154 S 
ATOM     11  C   UNL     1       8.456  -2.562  26.178  0.00  0.00    +0.093 C 
ENDROOT
BRANCH   9  12
ATOM     12  C   UNL     1       9.300   0.883  24.849  0.00  0.00    +0.016 C 
BRANCH  12  13
ATOM     13  C   UNL     1       8.967   2.369  24.635  0.00  0.00    +0.012 C 
BRANCH  13  14
ATOM     14  C   UNL     1       9.368   2.904  23.267  0.00  0.00    +0.120 C 
BRANCH  14  15
ATOM     15  C   UNL     1       8.839   2.047  22.145  0.00  0.00    +0.305 C 
ATOM     16  O   UNL     1       7.647   1.924  21.900  0.00  0.00    -0.251 OA
BRANCH  15  17
ATOM     17  O   UNL     1       9.795   1.433  21.422  0.00  0.00    -0.481 OA
ATOM     18  H   UNL     1       9.830   1.700  20.487  0.00  0.00    +0.295 HD
ENDBRANCH  15  17
ENDBRANCH  14  15
ENDBRANCH  13  14
ENDBRANCH  12  13
ENDBRANCH   9  12
TORSDOF 5
ENDMDL
MODEL 8
REMARK VINA RESULT:      -5.2      4.026      4.843
REMARK  Name = 
REMARK  5 active torsions:
REMARK  status: ('A' for Active; 'I' for Inactive)
REMARK    1  A    between atoms: C_5  and  C_7
REMARK    2  A    between atoms: C_7  and  C_8
REMARK    3  A    between atoms: C_8  and  C_9
REMARK    4  A    between atoms: C_9  and  C_10
REMARK    5  A    between atoms: C_10  and  O_11
REMARK                            x       y       z     vdW  Elec       q    Type
REMARK                         _______ _______ _______ _____ _____    ______ ____
ROOT
ATOM      1  C   UNL     1       4.425  -5.012  23.190  0.00  0.00    +0.105 C 
ATOM      2  N   UNL     1       5.238  -6.094  22.688  0.00  0.00    -0.294 N 
ATOM      3  H   UNL     1       4.916  -6.876  22.130  0.00  0.00    +0.151 HD
ATOM      4  C   UNL     1       6.520  -5.609  22.445  0.00  0.00    +0.300 C 
ATOM      5  O   UNL     1       7.395  -6.168  21.813  0.00  0.00    -0.253 OA
ATOM      6  N   UNL     1       6.615  -4.369  23.060  0.00  0.00    -0.294 N 
ATOM      7  H   UNL     1       7.475  -3.835  23.036  0.00  0.00    +0.151 HD
ATOM      8  C   UNL     1       5.462  -4.133  23.893  0.00  0.00    +0.108 C 
ATOM      9  C   UNL     1       5.609  -4.615  25.361  0.00  0.00    +0.069 C 
ATOM     10  S   UNL     1       4.010  -5.403  25.803  0.00  0.00    -0.154 S 
ATOM     11  C   UNL     1       3.304  -5.368  24.140  0.00  0.00    +0.093 C 
ENDROOT
BRANCH   9  12
ATOM     12  C   UNL     1       6.732  -5.610  25.729  0.00  0.00    +0.016 C 
BRANCH  12  13
ATOM     13  C   UNL     1       7.688  -5.202  26.863  0.00  0.00    +0.012 C 
BRANCH  13  14
ATOM     14  C   UNL     1       8.722  -4.160  26.458  0.00  0.00    +0.120 C 
BRANCH  14  15
ATOM     15  C   UNL     1       9.505  -4.580  25.240  0.00  0.00    +0.305 C 
ATOM     16  O   UNL     1       9.459  -3.982  24.174  0.00  0.00    -0.251 OA
BRANCH  15  17
ATOM     17  O   UNL     1      10.274  -5.670  25.429  0.00  0.00    -0.481 OA
ATOM     18  H   UNL     1      10.164  -6.098  26.296  0.00  0.00    +0.295 HD
ENDBRANCH  15  17
ENDBRANCH  14  15
ENDBRANCH  13  14
ENDBRANCH  12  13
ENDBRANCH   9  12
TORSDOF 5
ENDMDL
MODEL 9
REMARK VINA RESULT:      -5.1      3.362      4.554
REMARK  Name = 
REMARK  5 active torsions:
REMARK  status: ('A' for Active; 'I' for Inactive)
REMARK    1  A    between atoms: C_5  and  C_7
REMARK    2  A    between atoms: C_7  and  C_8
REMARK    3  A    between atoms: C_8  and  C_9
REMARK    4  A    between atoms: C_9  and  C_10
REMARK    5  A    between atoms: C_10  and  O_11
REMARK                            x       y       z     vdW  Elec       q    Type
REMARK                         _______ _______ _______ _____ _____    ______ ____
ROOT
ATOM      1  C   UNL     1       9.317  -1.398  21.880  0.00  0.00    +0.105 C 
ATOM      2  N   UNL     1       8.160  -1.799  22.645  0.00  0.00    -0.294 N 
ATOM      3  H   UNL     1       7.219  -1.915  22.289  0.00  0.00    +0.151 HD
ATOM      4  C   UNL     1       8.576  -2.646  23.668  0.00  0.00    +0.300 C 
ATOM      5  O   UNL     1       7.863  -3.349  24.357  0.00  0.00    -0.253 OA
ATOM      6  N   UNL     1       9.957  -2.540  23.756  0.00  0.00    -0.294 N 
ATOM      7  H   UNL     1      10.480  -3.053  24.454  0.00  0.00    +0.151 HD
ATOM      8  C   UNL     1      10.429  -1.455  22.931  0.00  0.00    +0.108 C 
ATOM      9  C   UNL     1      10.508  -0.079  23.646  0.00  0.00    +0.069 C 
ATOM     10  S   UNL     1       9.867   1.156  22.448  0.00  0.00    -0.154 S 
ATOM     11  C   UNL     1       9.280  -0.037  21.224  0.00  0.00    +0.093 C 
ENDROOT
BRANCH   9  12
ATOM     12  C   UNL     1       9.754   0.133  24.978  0.00  0.00    +0.016 C 
BRANCH  12  13
ATOM     13  C   UNL     1       8.490   1.007  24.937  0.00  0.00    +0.012 C 
BRANCH  13  14
ATOM     14  C   UNL     1       7.253   0.337  25.522  0.00  0.00    +0.120 C 
BRANCH  14  15
ATOM     15  C   UNL     1       6.051   0.483  24.625  0.00  0.00    +0.305 C 
ATOM     16  O   UNL     1       4.923   0.701  25.046  0.00  0.00    -0.251 OA
BRANCH  15  17
ATOM     17  O   UNL     1       6.325   0.365  23.312  0.00  0.00    -0.481 OA
ATOM     18  H   UNL     1       6.366  -0.552  22.988  0.00  0.00    +0.295 HD
ENDBRANCH  15  17
ENDBRANCH  14  15
ENDBRANCH  13  14
ENDBRANCH  12  13
ENDBRANCH   9  12
TORSDOF 5
ENDMDL
