MODEL 1
REMARK VINA RESULT:      -6.3      0.000      0.000
REMARK  Name = 
REMARK  2 active torsions:
REMARK  status: ('A' for Active; 'I' for Inactive)
REMARK    1  A    between atoms: C_1  and  N_2
REMARK    2  A    between atoms: N_10  and  C_11
REMARK                            x       y       z     vdW  Elec       q    Type
REMARK                         _______ _______ _______ _____ _____    ______ ____
ROOT
ATOM      1  C   UNL     1       8.783  -2.780  23.918  0.00  0.00    +0.138 C 
ATOM      2  N   UNL     1       8.458  -4.154  24.252  0.00  0.00    -0.272 N 
ATOM      3  C   UNL     1       9.280  -4.780  25.167  0.00  0.00    +0.228 C 
ATOM      4  O   UNL     1      10.414  -5.141  24.839  0.00  0.00    -0.275 OA
ATOM      5  C   UNL     1       8.896  -4.733  26.611  0.00  0.00    +0.192 C 
ATOM      6  C   UNL     1       7.498  -5.084  27.003  0.00  0.00    +0.233 C 
ATOM      7  O   UNL     1       7.284  -5.852  27.942  0.00  0.00    -0.274 OA
ATOM      8  N   UNL     1       6.506  -4.319  26.389  0.00  0.00    -0.238 N 
ATOM      9  C   UNL     1       6.180  -4.702  25.056  0.00  0.00    +0.064 A 
ATOM     10  C   UNL     1       4.923  -5.252  24.745  0.00  0.00    +0.045 A 
ATOM     11  C   UNL     1       4.617  -5.627  23.437  0.00  0.00    +0.043 A 
ATOM     12  C   UNL     1       5.546  -5.454  22.416  0.00  0.00    +0.022 A 
ATOM     13  C   UNL     1       6.799  -4.926  22.712  0.00  0.00    +0.027 A 
ATOM     14 CL   UNL     1       3.085  -6.325  23.082  0.00  0.00    -0.083 Cl
ATOM     15  C   UNL     1       7.133  -4.584  24.034  0.00  0.00    +0.058 A 
ENDROOT
BRANCH   8  16
ATOM     16  C   UNL     1       5.580  -3.532  27.169  0.00  0.00    +0.041 A 
ATOM     17  C   UNL     1       4.667  -4.109  28.071  0.00  0.00    +0.024 A 
ATOM     18  C   UNL     1       3.740  -3.329  28.774  0.00  0.00    +0.002 A 
ATOM     19  C   UNL     1       3.668  -1.959  28.553  0.00  0.00    +0.000 A 
ATOM     20  C   UNL     1       4.515  -1.371  27.623  0.00  0.00    +0.002 A 
ATOM     21  C   UNL     1       5.454  -2.150  26.937  0.00  0.00    +0.024 A 
ENDBRANCH   8  16
TORSDOF 1
ENDMDL
MODEL 2
REMARK VINA RESULT:      -6.3      2.679      4.030
REMARK  Name = 
REMARK  2 active torsions:
REMARK  status: ('A' for Active; 'I' for Inactive)
REMARK    1  A    between atoms: C_1  and  N_2
REMARK    2  A    between atoms: N_10  and  C_11
REMARK                            x       y       z     vdW  Elec       q    Type
REMARK                         _______ _______ _______ _____ _____    ______ ____
ROOT
ATOM      1  C   UNL     1       4.311  -4.809  23.140  0.00  0.00    +0.138 C 
ATOM      2  N   UNL     1       5.439  -5.552  23.669  0.00  0.00    -0.272 N 
ATOM      3  C   UNL     1       6.518  -5.722  22.826  0.00  0.00    +0.228 C 
ATOM      4  O   UNL     1       6.452  -6.517  21.883  0.00  0.00    -0.275 OA
ATOM      5  C   UNL     1       7.629  -4.722  22.887  0.00  0.00    +0.192 C 
ATOM      6  C   UNL     1       8.197  -4.350  24.217  0.00  0.00    +0.233 C 
ATOM      7  O   UNL     1       9.416  -4.311  24.390  0.00  0.00    -0.274 OA
ATOM      8  N   UNL     1       7.271  -3.849  25.132  0.00  0.00    -0.238 N 
ATOM      9  C   UNL     1       6.480  -4.830  25.797  0.00  0.00    +0.064 A 
ATOM     10  C   UNL     1       6.620  -5.062  27.177  0.00  0.00    +0.045 A 
ATOM     11  C   UNL     1       5.842  -6.029  27.816  0.00  0.00    +0.043 A 
ATOM     12  C   UNL     1       4.908  -6.771  27.100  0.00  0.00    +0.022 A 
ATOM     13  C   UNL     1       4.770  -6.562  25.731  0.00  0.00    +0.027 A 
ATOM     14 CL   UNL     1       6.048  -6.319  29.498  0.00  0.00    -0.083 Cl
ATOM     15  C   UNL     1       5.578  -5.621  25.070  0.00  0.00    +0.058 A 
ENDROOT
BRANCH   8  16
ATOM     16  C   UNL     1       7.418  -2.527  25.695  0.00  0.00    +0.041 A 
ATOM     17  C   UNL     1       8.592  -2.106  26.348  0.00  0.00    +0.024 A 
ATOM     18  C   UNL     1       8.689  -0.838  26.935  0.00  0.00    +0.002 A 
ATOM     19  C   UNL     1       7.596   0.021  26.930  0.00  0.00    +0.000 A 
ATOM     20  C   UNL     1       6.406  -0.391  26.346  0.00  0.00    +0.002 A 
ATOM     21  C   UNL     1       6.318  -1.651  25.743  0.00  0.00    +0.024 A 
ENDBRANCH   8  16
TORSDOF 1
ENDMDL
MODEL 3
REMARK VINA RESULT:      -6.2      2.640      4.764
REMARK  Name = 
REMARK  2 active torsions:
REMARK  status: ('A' for Active; 'I' for Inactive)
REMARK    1  A    between atoms: C_1  and  N_2
REMARK    2  A    between atoms: N_10  and  C_11
REMARK                            x       y       z     vdW  Elec       q    Type
REMARK                         _______ _______ _______ _____ _____    ______ ____
ROOT
ATOM      1  C   UNL     1       9.833  -4.988  25.464  0.00  0.00    +0.138 C 
ATOM      2  N   UNL     1       8.408  -4.729  25.376  0.00  0.00    -0.272 N 
ATOM      3  C   UNL     1       7.793  -4.256  26.518  0.00  0.00    +0.228 C 
ATOM      4  O   UNL     1       7.585  -5.013  27.471  0.00  0.00    -0.275 OA
ATOM      5  C   UNL     1       7.671  -2.776  26.695  0.00  0.00    +0.192 C 
ATOM      6  C   UNL     1       7.141  -1.952  25.569  0.00  0.00    +0.233 C 
ATOM      7  O   UNL     1       6.275  -1.099  25.769  0.00  0.00    -0.274 OA
ATOM      8  N   UNL     1       7.848  -2.067  24.373  0.00  0.00    -0.238 N 
ATOM      9  C   UNL     1       7.553  -3.229  23.600  0.00  0.00    +0.064 A 
ATOM     10  C   UNL     1       6.903  -3.128  22.357  0.00  0.00    +0.045 A 
ATOM     11  C   UNL     1       6.615  -4.272  21.613  0.00  0.00    +0.043 A 
ATOM     12  C   UNL     1       6.976  -5.531  22.083  0.00  0.00    +0.022 A 
ATOM     13  C   UNL     1       7.605  -5.646  23.319  0.00  0.00    +0.027 A 
ATOM     14 CL   UNL     1       5.794  -4.131  20.108  0.00  0.00    -0.083 Cl
ATOM     15  C   UNL     1       7.861  -4.504  24.096  0.00  0.00    +0.058 A 
ENDROOT
BRANCH   8  16
ATOM     16  C   UNL     1       8.460  -0.916  23.752  0.00  0.00    +0.041 A 
ATOM     17  C   UNL     1       7.742  -0.021  22.939  0.00  0.00    +0.024 A 
ATOM     18  C   UNL     1       8.370   1.057  22.303  0.00  0.00    +0.002 A 
ATOM     19  C   UNL     1       9.744   1.235  22.422  0.00  0.00    +0.000 A 
ATOM     20  C   UNL     1      10.488   0.332  23.168  0.00  0.00    +0.002 A 
ATOM     21  C   UNL     1       9.853  -0.732  23.819  0.00  0.00    +0.024 A 
ENDBRANCH   8  16
TORSDOF 1
ENDMDL
MODEL 4
REMARK VINA RESULT:      -6.1      4.879      6.820
REMARK  Name = 
REMARK  2 active torsions:
REMARK  status: ('A' for Active; 'I' for Inactive)
REMARK    1  A    between atoms: C_1  and  N_2
REMARK    2  A    between atoms: N_10  and  C_11
REMARK                            x       y       z     vdW  Elec       q    Type
REMARK                         _______ _______ _______ _____ _____    ______ ____
ROOT
ATOM      1  C   UNL     1       7.440  -2.273  22.898  0.00  0.00    +0.138 C 
ATOM      2  N   UNL     1       8.287  -1.897  24.013  0.00  0.00    -0.272 N 
ATOM      3  C   UNL     1       9.650  -1.968  23.808  0.00  0.00    +0.228 C 
ATOM      4  O   UNL     1      10.216  -3.064  23.763  0.00  0.00    -0.275 OA
ATOM      5  C   UNL     1      10.360  -0.738  23.338  0.00  0.00    +0.192 C 
ATOM      6  C   UNL     1      10.115   0.555  24.044  0.00  0.00    +0.233 C 
ATOM      7  O   UNL     1      11.056   1.278  24.374  0.00  0.00    -0.274 OA
ATOM      8  N   UNL     1       8.781   0.959  24.085  0.00  0.00    -0.238 N 
ATOM      9  C   UNL     1       7.981   0.319  25.077  0.00  0.00    +0.064 A 
ATOM     10  C   UNL     1       7.471   1.039  26.173  0.00  0.00    +0.045 A 
ATOM     11  C   UNL     1       6.693   0.400  27.139  0.00  0.00    +0.043 A 
ATOM     12  C   UNL     1       6.401  -0.956  27.029  0.00  0.00    +0.022 A 
ATOM     13  C   UNL     1       6.913  -1.683  25.958  0.00  0.00    +0.027 A 
ATOM     14 CL   UNL     1       6.102   1.290  28.487  0.00  0.00    -0.083 Cl
ATOM     15  C   UNL     1       7.733  -1.059  25.002  0.00  0.00    +0.058 A 
ENDROOT
BRANCH   8  16
ATOM     16  C   UNL     1       8.363   2.217  23.512  0.00  0.00    +0.041 A 
ATOM     17  C   UNL     1       8.845   3.457  23.971  0.00  0.00    +0.024 A 
ATOM     18  C   UNL     1       8.381   4.666  23.437  0.00  0.00    +0.002 A 
ATOM     19  C   UNL     1       7.386   4.666  22.466  0.00  0.00    +0.000 A 
ATOM     20  C   UNL     1       6.849   3.460  22.038  0.00  0.00    +0.002 A 
ATOM     21  C   UNL     1       7.328   2.252  22.560  0.00  0.00    +0.024 A 
ENDBRANCH   8  16
TORSDOF 1
ENDMDL
MODEL 5
REMARK VINA RESULT:      -6.1      3.179      5.819
REMARK  Name = 
REMARK  2 active torsions:
REMARK  status: ('A' for Active; 'I' for Inactive)
REMARK    1  A    between atoms: C_1  and  N_2
REMARK    2  A    between atoms: N_10  and  C_11
REMARK                            x       y       z     vdW  Elec       q    Type
REMARK                         _______ _______ _______ _____ _____    ______ ____
ROOT
ATOM      1  C   UNL     1       4.949  -3.389  23.025  0.00  0.00    +0.138 C 
ATOM      2  N   UNL     1       5.794  -3.674  24.169  0.00  0.00    -0.272 N 
ATOM      3  C   UNL     1       6.632  -4.766  24.064  0.00  0.00    +0.228 C 
ATOM      4  O   UNL     1       6.174  -5.910  24.133  0.00  0.00    -0.275 OA
ATOM      5  C   UNL     1       8.024  -4.544  23.565  0.00  0.00    +0.192 C 
ATOM      6  C   UNL     1       8.844  -3.449  24.165  0.00  0.00    +0.233 C 
ATOM      7  O   UNL     1      10.008  -3.655  24.510  0.00  0.00    -0.274 OA
ATOM      8  N   UNL     1       8.276  -2.178  24.086  0.00  0.00    -0.238 N 
ATOM      9  C   UNL     1       7.273  -1.898  25.059  0.00  0.00    +0.064 A 
ATOM     10  C   UNL     1       7.487  -0.939  26.066  0.00  0.00    +0.045 A 
ATOM     11  C   UNL     1       6.500  -0.677  27.017  0.00  0.00    +0.043 A 
ATOM     12  C   UNL     1       5.284  -1.351  26.977  0.00  0.00    +0.022 A 
ATOM     13  C   UNL     1       5.065  -2.313  25.995  0.00  0.00    +0.027 A 
ATOM     14 CL   UNL     1       6.792   0.477  28.258  0.00  0.00    -0.083 Cl
ATOM     15  C   UNL     1       6.068  -2.615  25.059  0.00  0.00    +0.058 A 
ENDROOT
BRANCH   8  16
ATOM     16  C   UNL     1       8.950  -1.099  23.403  0.00  0.00    +0.041 A 
ATOM     17  C   UNL     1       9.874  -0.254  24.045  0.00  0.00    +0.024 A 
ATOM     18  C   UNL     1      10.472   0.820  23.375  0.00  0.00    +0.002 A 
ATOM     19  C   UNL     1      10.122   1.108  22.061  0.00  0.00    +0.000 A 
ATOM     20  C   UNL     1       9.169   0.328  21.422  0.00  0.00    +0.002 A 
ATOM     21  C   UNL     1       8.587  -0.757  22.087  0.00  0.00    +0.024 A 
ENDBRANCH   8  16
TORSDOF 1
ENDMDL
MODEL 6
REMARK VINA RESULT:      -6.0      2.717      5.084
REMARK  Name = 
REMARK  2 active torsions:
REMARK  status: ('A' for Active; 'I' for Inactive)
REMARK    1  A    between atoms: C_1  and  N_2
REMARK    2  A    between atoms: N_10  and  C_11
REMARK                            x       y       z     vdW  Elec       q    Type
REMARK                         _______ _______ _______ _____ _____    ______ ____
ROOT
ATOM      1  C   UNL     1       8.447  -4.275  26.637  0.00  0.00    +0.138 C 
ATOM      2  N   UNL     1       7.133  -4.013  26.082  0.00  0.00    -0.272 N 
ATOM      3  C   UNL     1       6.304  -3.188  26.815  0.00  0.00    +0.228 C 
ATOM      4  O   UNL     1       5.771  -3.602  27.849  0.00  0.00    -0.275 OA
ATOM      5  C   UNL     1       6.313  -1.724  26.511  0.00  0.00    +0.192 C 
ATOM      6  C   UNL     1       6.190  -1.277  25.092  0.00  0.00    +0.233 C 
ATOM      7  O   UNL     1       5.407  -0.378  24.782  0.00  0.00    -0.274 OA
ATOM      8  N   UNL     1       7.164  -1.783  24.230  0.00  0.00    -0.238 N 
ATOM      9  C   UNL     1       6.944  -3.117  23.780  0.00  0.00    +0.064 A 
ATOM     10  C   UNL     1       6.653  -3.390  22.431  0.00  0.00    +0.045 A 
ATOM     11  C   UNL     1       6.436  -4.701  22.004  0.00  0.00    +0.043 A 
ATOM     12  C   UNL     1       6.514  -5.759  22.903  0.00  0.00    +0.022 A 
ATOM     13  C   UNL     1       6.786  -5.502  24.244  0.00  0.00    +0.027 A 
ATOM     14 CL   UNL     1       6.052  -5.011  20.357  0.00  0.00    -0.083 Cl
ATOM     15  C   UNL     1       6.965  -4.182  24.692  0.00  0.00    +0.058 A 
ENDROOT
BRANCH   8  16
ATOM     16  C   UNL     1       8.044  -0.903  23.498  0.00  0.00    +0.041 A 
ATOM     17  C   UNL     1       7.569   0.154  22.699  0.00  0.00    +0.024 A 
ATOM     18  C   UNL     1       8.440   0.958  21.954  0.00  0.00    +0.002 A 
ATOM     19  C   UNL     1       9.805   0.694  21.950  0.00  0.00    +0.000 A 
ATOM     20  C   UNL     1      10.295  -0.379  22.681  0.00  0.00    +0.002 A 
ATOM     21  C   UNL     1       9.424  -1.169  23.440  0.00  0.00    +0.024 A 
ENDBRANCH   8  16
TORSDOF 1
ENDMDL
MODEL 7
REMARK VINA RESULT:      -6.0      3.581      5.510
REMARK  Name = 
REMARK  2 active torsions:
REMARK  status: ('A' for Active; 'I' for Inactive)
REMARK    1  A    between atoms: C_1  and  N_2
REMARK    2  A    between atoms: N_10  and  C_11
REMARK                            x       y       z     vdW  Elec       q    Type
REMARK                         _______ _______ _______ _____ _____    ______ ____
ROOT
ATOM      1  C   UNL     1      10.590   0.397  24.382  0.00  0.00    +0.138 C 
ATOM      2  N   UNL     1       9.326   0.427  23.670  0.00  0.00    -0.272 N 
ATOM      3  C   UNL     1       9.348   0.023  22.351  0.00  0.00    +0.228 C 
ATOM      4  O   UNL     1       9.839   0.752  21.484  0.00  0.00    -0.275 OA
ATOM      5  C   UNL     1       9.058  -1.412  22.046  0.00  0.00    +0.192 C 
ATOM      6  C   UNL     1       7.855  -2.055  22.654  0.00  0.00    +0.233 C 
ATOM      7  O   UNL     1       7.088  -2.731  21.967  0.00  0.00    -0.274 OA
ATOM      8  N   UNL     1       7.809  -2.014  24.048  0.00  0.00    -0.238 N 
ATOM      9  C   UNL     1       7.375  -0.778  24.608  0.00  0.00    +0.064 A 
ATOM     10  C   UNL     1       6.152  -0.681  25.295  0.00  0.00    +0.045 A 
ATOM     11  C   UNL     1       5.736   0.536  25.834  0.00  0.00    +0.043 A 
ATOM     12  C   UNL     1       6.529   1.672  25.711  0.00  0.00    +0.022 A 
ATOM     13  C   UNL     1       7.735   1.595  25.020  0.00  0.00    +0.027 A 
ATOM     14 CL   UNL     1       4.223   0.641  26.646  0.00  0.00    -0.083 Cl
ATOM     15  C   UNL     1       8.143   0.384  24.436  0.00  0.00    +0.058 A 
ENDROOT
BRANCH   8  16
ATOM     16  C   UNL     1       7.752  -3.227  24.829  0.00  0.00    +0.041 A 
ATOM     17  C   UNL     1       6.689  -4.144  24.730  0.00  0.00    +0.024 A 
ATOM     18  C   UNL     1       6.628  -5.286  25.539  0.00  0.00    +0.002 A 
ATOM     19  C   UNL     1       7.603  -5.512  26.504  0.00  0.00    +0.000 A 
ATOM     20  C   UNL     1       8.630  -4.593  26.666  0.00  0.00    +0.002 A 
ATOM     21  C   UNL     1       8.699  -3.463  25.842  0.00  0.00    +0.024 A 
ENDBRANCH   8  16
TORSDOF 1
ENDMDL
MODEL 8
REMARK VINA RESULT:      -5.9      7.478      9.696
REMARK  Name = 
REMARK  2 active torsions:
REMARK  status: ('A' for Active; 'I' for Inactive)
REMARK    1  A    between atoms: C_1  and  N_2
REMARK    2  A    between atoms: N_10  and  C_11
REMARK                            x       y       z     vdW  Elec       q    Type
REMARK                         _______ _______ _______ _____ _____    ______ ____
ROOT
ATOM      1  C   UNL     1       5.882   4.953  22.610  0.00  0.00    +0.138 C 
ATOM      2  N   UNL     1       6.645   4.914  23.843  0.00  0.00    -0.272 N 
ATOM      3  C   UNL     1       6.011   4.380  24.947  0.00  0.00    +0.228 C 
ATOM      4  O   UNL     1       5.129   5.020  25.528  0.00  0.00    -0.275 OA
ATOM      5  C   UNL     1       6.189   2.922  25.229  0.00  0.00    +0.192 C 
ATOM      6  C   UNL     1       7.566   2.344  25.224  0.00  0.00    +0.233 C 
ATOM      7  O   UNL     1       7.939   1.604  26.135  0.00  0.00    -0.274 OA
ATOM      8  N   UNL     1       8.273   2.523  24.035  0.00  0.00    -0.238 N 
ATOM      9  C   UNL     1       8.862   3.810  23.864  0.00  0.00    +0.064 A 
ATOM     10  C   UNL     1      10.259   3.975  23.865  0.00  0.00    +0.045 A 
ATOM     11  C   UNL     1      10.823   5.241  23.702  0.00  0.00    +0.043 A 
ATOM     12  C   UNL     1      10.014   6.358  23.525  0.00  0.00    +0.022 A 
ATOM     13  C   UNL     1       8.630   6.211  23.538  0.00  0.00    +0.027 A 
ATOM     14 CL   UNL     1      12.533   5.426  23.735  0.00  0.00    -0.083 Cl
ATOM     15  C   UNL     1       8.051   4.947  23.744  0.00  0.00    +0.058 A 
ENDROOT
BRANCH   8  16
ATOM     16  C   UNL     1       8.758   1.394  23.278  0.00  0.00    +0.041 A 
ATOM     17  C   UNL     1       9.579   0.399  23.840  0.00  0.00    +0.024 A 
ATOM     18  C   UNL     1      10.083  -0.657  23.070  0.00  0.00    +0.002 A 
ATOM     19  C   UNL     1       9.820  -0.715  21.706  0.00  0.00    +0.000 A 
ATOM     20  C   UNL     1       9.064   0.285  21.112  0.00  0.00    +0.002 A 
ATOM     21  C   UNL     1       8.545   1.328  21.889  0.00  0.00    +0.024 A 
ENDBRANCH   8  16
TORSDOF 1
ENDMDL
MODEL 9
REMARK VINA RESULT:      -5.9      4.300      6.200
REMARK  Name = 
REMARK  2 active torsions:
REMARK  status: ('A' for Active; 'I' for Inactive)
REMARK    1  A    between atoms: C_1  and  N_2
REMARK    2  A    between atoms: N_10  and  C_11
REMARK                            x       y       z     vdW  Elec       q    Type
REMARK                         _______ _______ _______ _____ _____    ______ ____
ROOT
ATOM      1  C   UNL     1       7.361  -2.977  22.961  0.00  0.00    +0.138 C 
ATOM      2  N   UNL     1       8.079  -2.599  24.163  0.00  0.00    -0.272 N 
ATOM      3  C   UNL     1       9.457  -2.648  24.103  0.00  0.00    +0.228 C 
ATOM      4  O   UNL     1      10.042  -3.736  24.110  0.00  0.00    -0.275 OA
ATOM      5  C   UNL     1      10.193  -1.403  23.722  0.00  0.00    +0.192 C 
ATOM      6  C   UNL     1       9.855  -0.121  24.409  0.00  0.00    +0.233 C 
ATOM      7  O   UNL     1      10.744   0.612  24.843  0.00  0.00    -0.274 OA
ATOM      8  N   UNL     1       8.517   0.262  24.311  0.00  0.00    -0.238 N 
ATOM      9  C   UNL     1       7.627  -0.399  25.207  0.00  0.00    +0.064 A 
ATOM     10  C   UNL     1       6.992   0.302  26.248  0.00  0.00    +0.045 A 
ATOM     11  C   UNL     1       6.126  -0.358  27.121  0.00  0.00    +0.043 A 
ATOM     12  C   UNL     1       5.869  -1.716  26.970  0.00  0.00    +0.022 A 
ATOM     13  C   UNL     1       6.503  -2.425  25.953  0.00  0.00    +0.027 A 
ATOM     14 CL   UNL     1       5.382   0.510  28.406  0.00  0.00    -0.083 Cl
ATOM     15  C   UNL     1       7.409  -1.780  25.095  0.00  0.00    +0.058 A 
ENDROOT
BRANCH   8  16
ATOM     16  C   UNL     1       8.143   1.519  23.708  0.00  0.00    +0.041 A 
ATOM     17  C   UNL     1       7.494   1.599  22.461  0.00  0.00    +0.024 A 
ATOM     18  C   UNL     1       7.192   2.833  21.871  0.00  0.00    +0.002 A 
ATOM     19  C   UNL     1       7.577   4.017  22.488  0.00  0.00    +0.000 A 
ATOM     20  C   UNL     1       8.272   3.967  23.688  0.00  0.00    +0.002 A 
ATOM     21  C   UNL     1       8.555   2.734  24.286  0.00  0.00    +0.024 A 
ENDBRANCH   8  16
TORSDOF 1
ENDMDL
