MODEL 1
REMARK VINA RESULT:      -5.6      0.000      0.000
REMARK  Name = 
REMARK  1 active torsions:
REMARK  status: ('A' for Active; 'I' for Inactive)
REMARK    1  A    between atoms: C_6  and  N_7
REMARK                            x       y       z     vdW  Elec       q    Type
REMARK                         _______ _______ _______ _____ _____    ______ ____
ROOT
ATOM      1  N   UNL     1       8.646  -4.893  25.183  0.00  0.00    -0.286 N 
ATOM      2  H   UNL     1       9.334  -5.618  25.000  0.00  0.00    +0.155 HD
ATOM      3  C   UNL     1       7.871  -4.984  26.295  0.00  0.00    +0.236 A 
ATOM      4  N   UNL     1       7.992  -6.027  27.174  0.00  0.00    -0.227 N 
ATOM      5  H   UNL     1       8.610  -6.824  27.154  0.00  0.00    +0.194 HD
ATOM      6  N   UNL     1       7.123  -5.893  28.186  0.00  0.00    -0.045 NA
ATOM      7  N   UNL     1       6.472  -4.770  27.928  0.00  0.00    -0.022 NA
ATOM      8  N   UNL     1       6.923  -4.199  26.764  0.00  0.00    -0.092 NA
ENDROOT
BRANCH   1  12
ATOM      9  O   UNL     1      10.576  -1.095  23.182  0.00  0.00    -0.293 OA
ATOM     10  C   UNL     1       9.636  -1.888  23.149  0.00  0.00    +0.158 C 
ATOM     11  C   UNL     1       9.600  -2.966  24.151  0.00  0.00    +0.065 C 
ATOM     12  C   UNL     1       8.632  -3.892  24.206  0.00  0.00    +0.014 C 
ATOM     13  C   UNL     1       7.491  -3.887  23.213  0.00  0.00    +0.051 C 
ATOM     14  C   UNL     1       7.459  -2.818  22.126  0.00  0.00    +0.014 C 
ATOM     15  C   UNL     1       8.544  -1.758  22.123  0.00  0.00    +0.079 C 
ENDBRANCH   1  12
TORSDOF 1
ENDMDL
MODEL 2
REMARK VINA RESULT:      -5.5      2.757      3.755
REMARK  Name = 
REMARK  1 active torsions:
REMARK  status: ('A' for Active; 'I' for Inactive)
REMARK    1  A    between atoms: C_6  and  N_7
REMARK                            x       y       z     vdW  Elec       q    Type
REMARK                         _______ _______ _______ _____ _____    ______ ____
ROOT
ATOM      1  N   UNL     1       7.730  -2.824  22.916  0.00  0.00    -0.286 N 
ATOM      2  H   UNL     1       6.859  -3.190  22.541  0.00  0.00    +0.155 HD
ATOM      3  C   UNL     1       8.534  -3.645  23.641  0.00  0.00    +0.236 A 
ATOM      4  N   UNL     1       8.201  -4.952  23.880  0.00  0.00    -0.227 N 
ATOM      5  H   UNL     1       7.390  -5.478  23.592  0.00  0.00    +0.194 HD
ATOM      6  N   UNL     1       9.148  -5.552  24.613  0.00  0.00    -0.045 NA
ATOM      7  N   UNL     1      10.061  -4.617  24.823  0.00  0.00    -0.022 NA
ATOM      8  N   UNL     1       9.694  -3.435  24.229  0.00  0.00    -0.092 NA
ENDROOT
BRANCH   1  12
ATOM      9  O   UNL     1       6.437   1.696  23.147  0.00  0.00    -0.293 OA
ATOM     10  C   UNL     1       7.267   0.903  22.704  0.00  0.00    +0.158 C 
ATOM     11  C   UNL     1       7.097  -0.526  23.014  0.00  0.00    +0.065 C 
ATOM     12  C   UNL     1       7.943  -1.479  22.595  0.00  0.00    +0.014 C 
ATOM     13  C   UNL     1       9.156  -1.133  21.760  0.00  0.00    +0.051 C 
ATOM     14  C   UNL     1       9.422   0.327  21.410  0.00  0.00    +0.014 C 
ATOM     15  C   UNL     1       8.420   1.373  21.860  0.00  0.00    +0.079 C 
ENDBRANCH   1  12
TORSDOF 1
ENDMDL
MODEL 3
REMARK VINA RESULT:      -5.4      3.242      3.719
REMARK  Name = 
REMARK  1 active torsions:
REMARK  status: ('A' for Active; 'I' for Inactive)
REMARK    1  A    between atoms: C_6  and  N_7
REMARK                            x       y       z     vdW  Elec       q    Type
REMARK                         _______ _______ _______ _____ _____    ______ ____
ROOT
ATOM      1  N   UNL     1       4.861  -6.265  25.470  0.00  0.00    -0.286 N 
ATOM      2  H   UNL     1       4.000  -6.792  25.352  0.00  0.00    +0.155 HD
ATOM      3  C   UNL     1       5.560  -6.393  26.628  0.00  0.00    +0.236 A 
ATOM      4  N   UNL     1       5.135  -7.214  27.638  0.00  0.00    -0.227 N 
ATOM      5  H   UNL     1       4.318  -7.803  27.696  0.00  0.00    +0.194 HD
ATOM      6  N   UNL     1       5.989  -7.171  28.670  0.00  0.00    -0.045 NA
ATOM      7  N   UNL     1       6.935  -6.327  28.294  0.00  0.00    -0.022 NA
ATOM      8  N   UNL     1       6.683  -5.839  27.036  0.00  0.00    -0.092 NA
ENDROOT
BRANCH   1  12
ATOM      9  O   UNL     1       6.282  -5.844  21.003  0.00  0.00    -0.293 OA
ATOM     10  C   UNL     1       5.928  -5.237  22.013  0.00  0.00    +0.158 C 
ATOM     11  C   UNL     1       5.581  -6.021  23.209  0.00  0.00    +0.065 C 
ATOM     12  C   UNL     1       5.174  -5.470  24.362  0.00  0.00    +0.014 C 
ATOM     13  C   UNL     1       5.039  -3.971  24.504  0.00  0.00    +0.051 C 
ATOM     14  C   UNL     1       5.357  -3.081  23.307  0.00  0.00    +0.014 C 
ATOM     15  C   UNL     1       5.860  -3.735  22.035  0.00  0.00    +0.079 C 
ENDBRANCH   1  12
TORSDOF 1
ENDMDL
MODEL 4
REMARK VINA RESULT:      -5.4      2.464      3.581
REMARK  Name = 
REMARK  1 active torsions:
REMARK  status: ('A' for Active; 'I' for Inactive)
REMARK    1  A    between atoms: C_6  and  N_7
REMARK                            x       y       z     vdW  Elec       q    Type
REMARK                         _______ _______ _______ _____ _____    ______ ____
ROOT
ATOM      1  N   UNL     1       8.692  -1.441  24.868  0.00  0.00    -0.286 N 
ATOM      2  H   UNL     1       8.016  -1.076  25.533  0.00  0.00    +0.155 HD
ATOM      3  C   UNL     1       9.069  -2.743  24.956  0.00  0.00    +0.236 A 
ATOM      4  N   UNL     1       8.561  -3.576  25.918  0.00  0.00    -0.227 N 
ATOM      5  H   UNL     1       7.892  -3.390  26.650  0.00  0.00    +0.194 HD
ATOM      6  N   UNL     1       9.083  -4.805  25.800  0.00  0.00    -0.045 NA
ATOM      7  N   UNL     1       9.908  -4.726  24.768  0.00  0.00    -0.022 NA
ATOM      8  N   UNL     1       9.909  -3.460  24.238  0.00  0.00    -0.092 NA
ENDROOT
BRANCH   1  12
ATOM      9  O   UNL     1      11.003   2.536  23.868  0.00  0.00    -0.293 OA
ATOM     10  C   UNL     1      10.332   1.613  23.408  0.00  0.00    +0.158 C 
ATOM     11  C   UNL     1       9.853   0.573  24.333  0.00  0.00    +0.065 C 
ATOM     12  C   UNL     1       9.124  -0.483  23.944  0.00  0.00    +0.014 C 
ATOM     13  C   UNL     1       8.744  -0.676  22.493  0.00  0.00    +0.051 C 
ATOM     14  C   UNL     1       9.216   0.343  21.462  0.00  0.00    +0.014 C 
ATOM     15  C   UNL     1       9.998   1.550  21.943  0.00  0.00    +0.079 C 
ENDBRANCH   1  12
TORSDOF 1
ENDMDL
MODEL 5
REMARK VINA RESULT:      -5.3      1.576      2.114
REMARK  Name = 
REMARK  1 active torsions:
REMARK  status: ('A' for Active; 'I' for Inactive)
REMARK    1  A    between atoms: C_6  and  N_7
REMARK                            x       y       z     vdW  Elec       q    Type
REMARK                         _______ _______ _______ _____ _____    ______ ____
ROOT
ATOM      1  N   UNL     1       7.167  -3.868  24.987  0.00  0.00    -0.286 N 
ATOM      2  H   UNL     1       6.493  -3.949  24.231  0.00  0.00    +0.155 HD
ATOM      3  C   UNL     1       7.087  -4.725  26.039  0.00  0.00    +0.236 A 
ATOM      4  N   UNL     1       6.121  -5.694  26.106  0.00  0.00    -0.227 N 
ATOM      5  H   UNL     1       5.381  -5.918  25.458  0.00  0.00    +0.194 HD
ATOM      6  N   UNL     1       6.249  -6.409  27.232  0.00  0.00    -0.045 NA
ATOM      7  N   UNL     1       7.291  -5.880  27.854  0.00  0.00    -0.022 NA
ATOM      8  N   UNL     1       7.817  -4.840  27.129  0.00  0.00    -0.092 NA
ENDROOT
BRANCH   1  12
ATOM      9  O   UNL     1      10.645  -1.917  22.488  0.00  0.00    -0.293 OA
ATOM     10  C   UNL     1       9.930  -1.806  23.483  0.00  0.00    +0.158 C 
ATOM     11  C   UNL     1       8.933  -2.858  23.742  0.00  0.00    +0.065 C 
ATOM     12  C   UNL     1       8.093  -2.839  24.787  0.00  0.00    +0.014 C 
ATOM     13  C   UNL     1       8.119  -1.705  25.787  0.00  0.00    +0.051 C 
ATOM     14  C   UNL     1       9.107  -0.561  25.585  0.00  0.00    +0.014 C 
ATOM     15  C   UNL     1      10.073  -0.638  24.419  0.00  0.00    +0.079 C 
ENDBRANCH   1  12
TORSDOF 1
ENDMDL
MODEL 6
REMARK VINA RESULT:      -5.3      3.793      4.445
REMARK  Name = 
REMARK  1 active torsions:
REMARK  status: ('A' for Active; 'I' for Inactive)
REMARK    1  A    between atoms: C_6  and  N_7
REMARK                            x       y       z     vdW  Elec       q    Type
REMARK                         _______ _______ _______ _____ _____    ______ ____
ROOT
ATOM      1  N   UNL     1       8.743  -2.602  22.453  0.00  0.00    -0.286 N 
ATOM      2  H   UNL     1       9.477  -3.242  22.163  0.00  0.00    +0.155 HD
ATOM      3  C   UNL     1       7.445  -2.978  22.311  0.00  0.00    +0.236 A 
ATOM      4  N   UNL     1       7.102  -4.195  21.785  0.00  0.00    -0.227 N 
ATOM      5  H   UNL     1       7.686  -4.946  21.449  0.00  0.00    +0.194 HD
ATOM      6  N   UNL     1       5.769  -4.333  21.748  0.00  0.00    -0.045 NA
ATOM      7  N   UNL     1       5.296  -3.203  22.249  0.00  0.00    -0.022 NA
ATOM      8  N   UNL     1       6.320  -2.358  22.600  0.00  0.00    -0.092 NA
ENDROOT
BRANCH   1  12
ATOM      9  O   UNL     1      10.238   1.817  21.830  0.00  0.00    -0.293 OA
ATOM     10  C   UNL     1      10.032   0.926  22.653  0.00  0.00    +0.158 C 
ATOM     11  C   UNL     1       9.508  -0.361  22.166  0.00  0.00    +0.065 C 
ATOM     12  C   UNL     1       9.236  -1.400  22.970  0.00  0.00    +0.014 C 
ATOM     13  C   UNL     1       9.454  -1.307  24.464  0.00  0.00    +0.051 C 
ATOM     14  C   UNL     1       9.974  -0.002  25.057  0.00  0.00    +0.014 C 
ATOM     15  C   UNL     1      10.316   1.135  24.115  0.00  0.00    +0.079 C 
ENDBRANCH   1  12
TORSDOF 1
ENDMDL
MODEL 7
REMARK VINA RESULT:      -5.2      7.072      8.424
REMARK  Name = 
REMARK  1 active torsions:
REMARK  status: ('A' for Active; 'I' for Inactive)
REMARK    1  A    between atoms: C_6  and  N_7
REMARK                            x       y       z     vdW  Elec       q    Type
REMARK                         _______ _______ _______ _____ _____    ______ ____
ROOT
ATOM      1  N   UNL     1       9.921   3.540  23.312  0.00  0.00    -0.286 N 
ATOM      2  H   UNL     1       9.012   3.995  23.300  0.00  0.00    +0.155 HD
ATOM      3  C   UNL     1      11.040   4.304  23.405  0.00  0.00    +0.236 A 
ATOM      4  N   UNL     1      10.975   5.670  23.482  0.00  0.00    -0.227 N 
ATOM      5  H   UNL     1      10.174   6.283  23.484  0.00  0.00    +0.194 HD
ATOM      6  N   UNL     1      12.206   6.196  23.566  0.00  0.00    -0.045 NA
ATOM      7  N   UNL     1      13.022   5.155  23.541  0.00  0.00    -0.022 NA
ATOM      8  N   UNL     1      12.317   3.982  23.441  0.00  0.00    -0.092 NA
ENDROOT
BRANCH   1  12
ATOM      9  O   UNL     1       9.588  -0.676  25.377  0.00  0.00    -0.293 OA
ATOM     10  C   UNL     1       9.669  -0.079  24.304  0.00  0.00    +0.158 C 
ATOM     11  C   UNL     1       9.756   1.390  24.331  0.00  0.00    +0.065 C 
ATOM     12  C   UNL     1       9.837   2.146  23.227  0.00  0.00    +0.014 C 
ATOM     13  C   UNL     1       9.842   1.518  21.851  0.00  0.00    +0.051 C 
ATOM     14  C   UNL     1       9.735   0.003  21.728  0.00  0.00    +0.014 C 
ATOM     15  C   UNL     1       9.692  -0.824  22.998  0.00  0.00    +0.079 C 
ENDBRANCH   1  12
TORSDOF 1
ENDMDL
MODEL 8
REMARK VINA RESULT:      -5.2      3.121      4.294
REMARK  Name = 
REMARK  1 active torsions:
REMARK  status: ('A' for Active; 'I' for Inactive)
REMARK    1  A    between atoms: C_6  and  N_7
REMARK                            x       y       z     vdW  Elec       q    Type
REMARK                         _______ _______ _______ _____ _____    ______ ____
ROOT
ATOM      1  N   UNL     1       8.388  -3.760  23.382  0.00  0.00    -0.286 N 
ATOM      2  H   UNL     1       8.903  -4.585  23.674  0.00  0.00    +0.155 HD
ATOM      3  C   UNL     1       7.332  -3.903  22.539  0.00  0.00    +0.236 A 
ATOM      4  N   UNL     1       6.946  -5.131  22.072  0.00  0.00    -0.227 N 
ATOM      5  H   UNL     1       7.334  -6.045  22.251  0.00  0.00    +0.194 HD
ATOM      6  N   UNL     1       5.886  -5.014  21.261  0.00  0.00    -0.045 NA
ATOM      7  N   UNL     1       5.622  -3.718  21.231  0.00  0.00    -0.022 NA
ATOM      8  N   UNL     1       6.507  -3.021  22.015  0.00  0.00    -0.092 NA
ENDROOT
BRANCH   1  12
ATOM      9  O   UNL     1       8.802  -0.785  27.007  0.00  0.00    -0.293 OA
ATOM     10  C   UNL     1       9.109  -1.000  25.835  0.00  0.00    +0.158 C 
ATOM     11  C   UNL     1       8.612  -2.233  25.201  0.00  0.00    +0.065 C 
ATOM     12  C   UNL     1       8.890  -2.577  23.935  0.00  0.00    +0.014 C 
ATOM     13  C   UNL     1       9.755  -1.697  23.061  0.00  0.00    +0.051 C 
ATOM     14  C   UNL     1      10.330  -0.410  23.642  0.00  0.00    +0.014 C 
ATOM     15  C   UNL     1       9.957  -0.029  25.062  0.00  0.00    +0.079 C 
ENDBRANCH   1  12
TORSDOF 1
ENDMDL
MODEL 9
REMARK VINA RESULT:      -5.1      3.453      4.286
REMARK  Name = 
REMARK  1 active torsions:
REMARK  status: ('A' for Active; 'I' for Inactive)
REMARK    1  A    between atoms: C_6  and  N_7
REMARK                            x       y       z     vdW  Elec       q    Type
REMARK                         _______ _______ _______ _____ _____    ______ ____
ROOT
ATOM      1  N   UNL     1       8.073  -3.192  22.976  0.00  0.00    -0.286 N 
ATOM      2  H   UNL     1       8.703  -3.481  23.720  0.00  0.00    +0.155 HD
ATOM      3  C   UNL     1       7.251  -4.114  22.412  0.00  0.00    +0.236 A 
ATOM      4  N   UNL     1       7.250  -5.422  22.818  0.00  0.00    -0.227 N 
ATOM      5  H   UNL     1       7.798  -5.882  23.529  0.00  0.00    +0.194 HD
ATOM      6  N   UNL     1       6.357  -6.133  22.114  0.00  0.00    -0.045 NA
ATOM      7  N   UNL     1       5.812  -5.263  21.280  0.00  0.00    -0.022 NA
ATOM      8  N   UNL     1       6.354  -4.014  21.452  0.00  0.00    -0.092 NA
ENDROOT
BRANCH   1  12
ATOM      9  O   UNL     1       6.444   1.215  23.258  0.00  0.00    -0.293 OA
ATOM     10  C   UNL     1       7.328   0.491  22.801  0.00  0.00    +0.158 C 
ATOM     11  C   UNL     1       7.269  -0.950  23.100  0.00  0.00    +0.065 C 
ATOM     12  C   UNL     1       8.180  -1.832  22.665  0.00  0.00    +0.014 C 
ATOM     13  C   UNL     1       9.355  -1.389  21.821  0.00  0.00    +0.051 C 
ATOM     14  C   UNL     1       9.506   0.090  21.481  0.00  0.00    +0.014 C 
ATOM     15  C   UNL     1       8.433   1.053  21.949  0.00  0.00    +0.079 C 
ENDBRANCH   1  12
TORSDOF 1
ENDMDL
