MODEL 1
REMARK VINA RESULT:      -7.2      0.000      0.000
REMARK  Name = 
REMARK  6 active torsions:
REMARK  status: ('A' for Active; 'I' for Inactive)
REMARK    1  A    between atoms: C_1  and  C_2
REMARK    2  A    between atoms: C_4  and  N_26
REMARK    3  A    between atoms: C_9  and  C_11
REMARK    4  A    between atoms: C_12  and  N_13
REMARK    5  A    between atoms: N_13  and  C_14
REMARK    6  A    between atoms: C_14  and  C_15
REMARK                            x       y       z     vdW  Elec       q    Type
REMARK                         _______ _______ _______ _____ _____    ______ ____
ROOT
ATOM      1  C   UNL     1       6.922   3.121  23.281  0.00  0.00    +0.102 A 
ATOM      2  C   UNL     1       5.761   3.749  22.547  0.00  0.00    +0.261 A 
ATOM      3  O   UNL     1       4.732   3.130  22.286  0.00  0.00    -0.267 OA
ATOM      4  N   UNL     1       5.902   5.063  22.177  0.00  0.00    -0.328 N 
ATOM      5  H   UNL     1       5.125   5.466  21.667  0.00  0.00    +0.168 HD
ATOM      6  C   UNL     1       7.001   5.817  22.470  0.00  0.00    +0.088 A 
ATOM      7  C   UNL     1       8.019   5.283  23.153  0.00  0.00    +0.041 A 
ATOM      8  C   UNL     1       8.004   3.888  23.577  0.00  0.00    +0.045 A 
ENDROOT
BRANCH   1  13
ATOM      9  C   UNL     1       6.845  -0.961  27.103  0.00  0.00    +0.046 C 
ATOM     10  C   UNL     1       6.702  -1.208  25.631  0.00  0.00    -0.021 A 
ATOM     11  C   UNL     1       6.749  -0.162  24.693  0.00  0.00    +0.092 A 
ATOM     12  N   UNL     1       6.921   1.191  24.891  0.00  0.00    -0.227 NA
ATOM     13  C   UNL     1       6.861   1.749  23.690  0.00  0.00    +0.146 A 
ATOM     14  N   UNL     1       6.687   0.772  22.732  0.00  0.00    -0.338 N 
ATOM     15  H   UNL     1       6.623   0.951  21.736  0.00  0.00    +0.167 HD
ATOM     16  C   UNL     1       6.595  -0.446  23.345  0.00  0.00    +0.069 A 
ATOM     17  C   UNL     1       6.392  -1.731  22.834  0.00  0.00    +0.054 A 
ATOM     18  C   UNL     1       6.349  -2.786  23.761  0.00  0.00    +0.050 A 
ATOM     19  C   UNL     1       6.499  -2.518  25.135  0.00  0.00    +0.031 A 
BRANCH  18  20
ATOM     20  N   UNL     1       6.159  -4.126  23.303  0.00  0.00    -0.306 N 
ATOM     21  C   UNL     1       5.440  -5.131  23.917  0.00  0.00    +0.204 A 
ATOM     22  N   UNL     1       5.471  -6.264  23.250  0.00  0.00    -0.244 NA
ATOM     23  C   UNL     1       6.235  -6.005  22.151  0.00  0.00    +0.130 A 
ATOM     24  C   UNL     1       6.665  -4.700  22.154  0.00  0.00    +0.112 A 
ENDBRANCH  18  20
ENDBRANCH   1  13
BRANCH   8  25
ATOM     25  N   UNL     1       9.173   3.448  24.218  0.00  0.00    -0.338 N 
ATOM     26  H   UNL     1       9.558   4.255  24.724  0.00  0.00    +0.146 HD
BRANCH  25  27
ATOM     27  C   UNL     1      10.291   2.921  23.405  0.00  0.00    +0.157 C 
BRANCH  27  28
ATOM     28  C   UNL     1      10.193   1.420  23.182  0.00  0.00    +0.058 A 
ATOM     29  C   UNL     1      10.407   0.523  24.230  0.00  0.00    +0.025 A 
ATOM     30  C   UNL     1      10.332  -0.847  23.978  0.00  0.00    +0.003 A 
ATOM     31  C   UNL     1      10.061  -1.290  22.691  0.00  0.00    +0.020 A 
ATOM     32  C   UNL     1       9.881  -0.340  21.702  0.00  0.00    +0.111 A 
ATOM     33  N   UNL     1       9.947   0.994  21.914  0.00  0.00    -0.258 NA
ENDBRANCH  27  28
ENDBRANCH  25  27
ENDBRANCH   8  25
TORSDOF 5
ENDMDL
MODEL 2
REMARK VINA RESULT:      -7.1      2.527      4.118
REMARK  Name = 
REMARK  6 active torsions:
REMARK  status: ('A' for Active; 'I' for Inactive)
REMARK    1  A    between atoms: C_1  and  C_2
REMARK    2  A    between atoms: C_4  and  N_26
REMARK    3  A    between atoms: C_9  and  C_11
REMARK    4  A    between atoms: C_12  and  N_13
REMARK    5  A    between atoms: N_13  and  C_14
REMARK    6  A    between atoms: C_14  and  C_15
REMARK                            x       y       z     vdW  Elec       q    Type
REMARK                         _______ _______ _______ _____ _____    ______ ____
ROOT
ATOM      1  C   UNL     1       9.141   0.182  23.254  0.00  0.00    +0.102 A 
ATOM      2  C   UNL     1       9.526   0.593  21.853  0.00  0.00    +0.261 A 
ATOM      3  O   UNL     1       9.423  -0.166  20.891  0.00  0.00    -0.267 OA
ATOM      4  N   UNL     1      10.004   1.869  21.692  0.00  0.00    -0.328 N 
ATOM      5  H   UNL     1      10.278   2.124  20.750  0.00  0.00    +0.168 HD
ATOM      6  C   UNL     1      10.107   2.772  22.710  0.00  0.00    +0.088 A 
ATOM      7  C   UNL     1       9.733   2.432  23.948  0.00  0.00    +0.041 A 
ATOM      8  C   UNL     1       9.237   1.096  24.256  0.00  0.00    +0.045 A 
ENDROOT
BRANCH   1  13
ATOM      9  C   UNL     1       9.554  -5.004  25.304  0.00  0.00    +0.046 C 
ATOM     10  C   UNL     1       8.315  -4.474  24.649  0.00  0.00    -0.021 A 
ATOM     11  C   UNL     1       8.250  -3.172  24.122  0.00  0.00    +0.092 A 
ATOM     12  N   UNL     1       9.213  -2.187  24.090  0.00  0.00    -0.227 NA
ATOM     13  C   UNL     1       8.647  -1.137  23.512  0.00  0.00    +0.146 A 
ATOM     14  N   UNL     1       7.353  -1.449  23.148  0.00  0.00    -0.338 N 
ATOM     15  H   UNL     1       6.720  -0.811  22.679  0.00  0.00    +0.167 HD
ATOM     16  C   UNL     1       7.073  -2.729  23.541  0.00  0.00    +0.069 A 
ATOM     17  C   UNL     1       5.913  -3.500  23.435  0.00  0.00    +0.054 A 
ATOM     18  C   UNL     1       5.966  -4.805  23.952  0.00  0.00    +0.050 A 
ATOM     19  C   UNL     1       7.151  -5.274  24.551  0.00  0.00    +0.031 A 
BRANCH  18  20
ATOM     20  N   UNL     1       4.818  -5.652  23.863  0.00  0.00    -0.306 N 
ATOM     21  C   UNL     1       4.618  -6.867  24.486  0.00  0.00    +0.204 A 
ATOM     22  N   UNL     1       3.459  -7.412  24.186  0.00  0.00    -0.244 NA
ATOM     23  C   UNL     1       2.865  -6.528  23.335  0.00  0.00    +0.130 A 
ATOM     24  C   UNL     1       3.672  -5.437  23.124  0.00  0.00    +0.112 A 
ENDBRANCH  18  20
ENDBRANCH   1  13
BRANCH   8  25
ATOM     25  N   UNL     1       8.955   0.863  25.611  0.00  0.00    -0.338 N 
ATOM     26  H   UNL     1       9.072  -0.146  25.772  0.00  0.00    +0.146 HD
BRANCH  25  27
ATOM     27  C   UNL     1       7.615   1.194  26.141  0.00  0.00    +0.157 C 
BRANCH  27  28
ATOM     28  C   UNL     1       6.751  -0.040  26.352  0.00  0.00    +0.058 A 
ATOM     29  C   UNL     1       7.260  -1.174  26.986  0.00  0.00    +0.025 A 
ATOM     30  C   UNL     1       6.442  -2.294  27.139  0.00  0.00    +0.003 A 
ATOM     31  C   UNL     1       5.145  -2.263  26.645  0.00  0.00    +0.020 A 
ATOM     32  C   UNL     1       4.720  -1.109  26.010  0.00  0.00    +0.111 A 
ATOM     33  N   UNL     1       5.487  -0.008  25.848  0.00  0.00    -0.258 NA
ENDBRANCH  27  28
ENDBRANCH  25  27
ENDBRANCH   8  25
TORSDOF 5
ENDMDL
MODEL 3
REMARK VINA RESULT:      -7.0      1.877      6.668
REMARK  Name = 
REMARK  6 active torsions:
REMARK  status: ('A' for Active; 'I' for Inactive)
REMARK    1  A    between atoms: C_1  and  C_2
REMARK    2  A    between atoms: C_4  and  N_26
REMARK    3  A    between atoms: C_9  and  C_11
REMARK    4  A    between atoms: C_12  and  N_13
REMARK    5  A    between atoms: N_13  and  C_14
REMARK    6  A    between atoms: C_14  and  C_15
REMARK                            x       y       z     vdW  Elec       q    Type
REMARK                         _______ _______ _______ _____ _____    ______ ____
ROOT
ATOM      1  C   UNL     1       6.916  -2.423  24.102  0.00  0.00    +0.102 A 
ATOM      2  C   UNL     1       5.658  -3.236  23.904  0.00  0.00    +0.261 A 
ATOM      3  O   UNL     1       4.539  -2.728  23.896  0.00  0.00    -0.267 OA
ATOM      4  N   UNL     1       5.817  -4.588  23.730  0.00  0.00    -0.328 N 
ATOM      5  H   UNL     1       4.964  -5.124  23.620  0.00  0.00    +0.168 HD
ATOM      6  C   UNL     1       7.032  -5.207  23.691  0.00  0.00    +0.088 A 
ATOM      7  C   UNL     1       8.154  -4.493  23.827  0.00  0.00    +0.041 A 
ATOM      8  C   UNL     1       8.119  -3.052  24.047  0.00  0.00    +0.045 A 
ENDROOT
BRANCH   1  13
ATOM      9  C   UNL     1       7.203   2.210  27.221  0.00  0.00    +0.046 C 
ATOM     10  C   UNL     1       6.949   2.226  25.743  0.00  0.00    -0.021 A 
ATOM     11  C   UNL     1       6.859   1.042  24.991  0.00  0.00    +0.092 A 
ATOM     12  N   UNL     1       6.971  -0.270  25.397  0.00  0.00    -0.227 NA
ATOM     13  C   UNL     1       6.838  -1.007  24.304  0.00  0.00    +0.146 A 
ATOM     14  N   UNL     1       6.611  -0.188  23.217  0.00  0.00    -0.338 N 
ATOM     15  H   UNL     1       6.466  -0.519  22.269  0.00  0.00    +0.167 HD
ATOM     16  C   UNL     1       6.638   1.117  23.624  0.00  0.00    +0.069 A 
ATOM     17  C   UNL     1       6.493   2.314  22.919  0.00  0.00    +0.054 A 
ATOM     18  C   UNL     1       6.575   3.504  23.661  0.00  0.00    +0.050 A 
ATOM     19  C   UNL     1       6.803   3.451  25.049  0.00  0.00    +0.031 A 
BRANCH  18  20
ATOM     20  N   UNL     1       6.420   4.763  23.002  0.00  0.00    -0.306 N 
ATOM     21  C   UNL     1       7.349   5.426  22.226  0.00  0.00    +0.204 A 
ATOM     22  N   UNL     1       6.908   6.580  21.773  0.00  0.00    -0.244 NA
ATOM     23  C   UNL     1       5.641   6.688  22.262  0.00  0.00    +0.130 A 
ATOM     24  C   UNL     1       5.312   5.587  23.015  0.00  0.00    +0.112 A 
ENDBRANCH  18  20
ENDBRANCH   1  13
BRANCH   8  25
ATOM     25  N   UNL     1       9.371  -2.449  24.247  0.00  0.00    -0.338 N 
ATOM     26  H   UNL     1       9.220  -1.643  24.866  0.00  0.00    +0.146 HD
BRANCH  25  27
ATOM     27  C   UNL     1      10.115  -1.919  23.084  0.00  0.00    +0.157 C 
BRANCH  27  28
ATOM     28  C   UNL     1      10.166  -0.400  23.068  0.00  0.00    +0.058 A 
ATOM     29  C   UNL     1      10.479   0.321  24.221  0.00  0.00    +0.025 A 
ATOM     30  C   UNL     1      10.491   1.715  24.170  0.00  0.00    +0.003 A 
ATOM     31  C   UNL     1      10.178   2.357  22.979  0.00  0.00    +0.020 A 
ATOM     32  C   UNL     1       9.859   1.573  21.885  0.00  0.00    +0.111 A 
ATOM     33  N   UNL     1       9.840   0.222  21.902  0.00  0.00    -0.258 NA
ENDBRANCH  27  28
ENDBRANCH  25  27
ENDBRANCH   8  25
TORSDOF 5
ENDMDL
MODEL 4
REMARK VINA RESULT:      -7.0      3.291      8.145
REMARK  Name = 
REMARK  6 active torsions:
REMARK  status: ('A' for Active; 'I' for Inactive)
REMARK    1  A    between atoms: C_1  and  C_2
REMARK    2  A    between atoms: C_4  and  N_26
REMARK    3  A    between atoms: C_9  and  C_11
REMARK    4  A    between atoms: C_12  and  N_13
REMARK    5  A    between atoms: N_13  and  C_14
REMARK    6  A    between atoms: C_14  and  C_15
REMARK                            x       y       z     vdW  Elec       q    Type
REMARK                         _______ _______ _______ _____ _____    ______ ____
ROOT
ATOM      1  C   UNL     1       4.293  -5.398  26.677  0.00  0.00    +0.102 A 
ATOM      2  C   UNL     1       3.631  -4.934  27.954  0.00  0.00    +0.261 A 
ATOM      3  O   UNL     1       4.103  -4.040  28.653  0.00  0.00    -0.267 OA
ATOM      4  N   UNL     1       2.463  -5.560  28.307  0.00  0.00    -0.328 N 
ATOM      5  H   UNL     1       2.041  -5.253  29.176  0.00  0.00    +0.168 HD
ATOM      6  C   UNL     1       1.867  -6.531  27.556  0.00  0.00    +0.088 A 
ATOM      7  C   UNL     1       2.423  -6.923  26.404  0.00  0.00    +0.041 A 
ATOM      8  C   UNL     1       3.681  -6.356  25.933  0.00  0.00    +0.045 A 
ENDROOT
BRANCH   1  13
ATOM      9  C   UNL     1       9.674  -5.583  25.169  0.00  0.00    +0.046 C 
ATOM     10  C   UNL     1       8.857  -4.326  25.150  0.00  0.00    -0.021 A 
ATOM     11  C   UNL     1       7.511  -4.309  25.558  0.00  0.00    +0.092 A 
ATOM     12  N   UNL     1       6.718  -5.335  26.022  0.00  0.00    -0.227 NA
ATOM     13  C   UNL     1       5.523  -4.807  26.243  0.00  0.00    +0.146 A 
ATOM     14  N   UNL     1       5.552  -3.457  25.959  0.00  0.00    -0.338 N 
ATOM     15  H   UNL     1       4.760  -2.832  26.060  0.00  0.00    +0.167 HD
ATOM     16  C   UNL     1       6.798  -3.121  25.505  0.00  0.00    +0.069 A 
ATOM     17  C   UNL     1       7.330  -1.906  25.066  0.00  0.00    +0.054 A 
ATOM     18  C   UNL     1       8.676  -1.910  24.661  0.00  0.00    +0.050 A 
ATOM     19  C   UNL     1       9.418  -3.106  24.703  0.00  0.00    +0.031 A 
BRANCH  18  20
ATOM     20  N   UNL     1       9.286  -0.698  24.214  0.00  0.00    -0.306 N 
ATOM     21  C   UNL     1       9.218  -0.135  22.955  0.00  0.00    +0.204 A 
ATOM     22  N   UNL     1       9.906   0.980  22.855  0.00  0.00    -0.244 NA
ATOM     23  C   UNL     1      10.450   1.171  24.090  0.00  0.00    +0.130 A 
ATOM     24  C   UNL     1      10.082   0.160  24.946  0.00  0.00    +0.112 A 
ENDBRANCH  18  20
ENDBRANCH   1  13
BRANCH   8  25
ATOM     25  N   UNL     1       4.181  -6.920  24.748  0.00  0.00    -0.338 N 
ATOM     26  H   UNL     1       5.205  -6.836  24.785  0.00  0.00    +0.146 HD
BRANCH  25  27
ATOM     27  C   UNL     1       3.785  -6.341  23.446  0.00  0.00    +0.157 C 
BRANCH  27  28
ATOM     28  C   UNL     1       4.871  -5.464  22.843  0.00  0.00    +0.058 A 
ATOM     29  C   UNL     1       6.113  -5.997  22.494  0.00  0.00    +0.025 A 
ATOM     30  C   UNL     1       7.091  -5.154  21.966  0.00  0.00    +0.003 A 
ATOM     31  C   UNL     1       6.816  -3.803  21.812  0.00  0.00    +0.020 A 
ATOM     32  C   UNL     1       5.568  -3.346  22.200  0.00  0.00    +0.111 A 
ATOM     33  N   UNL     1       4.600  -4.137  22.714  0.00  0.00    -0.258 NA
ENDBRANCH  27  28
ENDBRANCH  25  27
ENDBRANCH   8  25
TORSDOF 5
ENDMDL
MODEL 5
REMARK VINA RESULT:      -6.8      2.855      4.978
REMARK  Name = 
REMARK  6 active torsions:
REMARK  status: ('A' for Active; 'I' for Inactive)
REMARK    1  A    between atoms: C_1  and  C_2
REMARK    2  A    between atoms: C_4  and  N_26
REMARK    3  A    between atoms: C_9  and  C_11
REMARK    4  A    between atoms: C_12  and  N_13
REMARK    5  A    between atoms: N_13  and  C_14
REMARK    6  A    between atoms: C_14  and  C_15
REMARK                            x       y       z     vdW  Elec       q    Type
REMARK                         _______ _______ _______ _____ _____    ______ ____
ROOT
ATOM      1  C   UNL     1       8.561  -0.697  23.317  0.00  0.00    +0.102 A 
ATOM      2  C   UNL     1       9.312  -0.129  22.135  0.00  0.00    +0.261 A 
ATOM      3  O   UNL     1       9.230  -0.613  21.008  0.00  0.00    -0.267 OA
ATOM      4  N   UNL     1      10.102   0.967  22.374  0.00  0.00    -0.328 N 
ATOM      5  H   UNL     1      10.617   1.324  21.577  0.00  0.00    +0.168 HD
ATOM      6  C   UNL     1      10.207   1.573  23.591  0.00  0.00    +0.088 A 
ATOM      7  C   UNL     1       9.517   1.103  24.636  0.00  0.00    +0.041 A 
ATOM      8  C   UNL     1       8.665  -0.074  24.520  0.00  0.00    +0.045 A 
ENDROOT
BRANCH   1  13
ATOM      9  C   UNL     1       7.625  -6.067  22.069  0.00  0.00    +0.046 C 
ATOM     10  C   UNL     1       6.559  -5.140  22.568  0.00  0.00    -0.021 A 
ATOM     11  C   UNL     1       6.821  -3.788  22.851  0.00  0.00    +0.092 A 
ATOM     12  N   UNL     1       7.997  -3.078  22.743  0.00  0.00    -0.227 NA
ATOM     13  C   UNL     1       7.725  -1.848  23.158  0.00  0.00    +0.146 A 
ATOM     14  N   UNL     1       6.390  -1.757  23.494  0.00  0.00    -0.338 N 
ATOM     15  H   UNL     1       5.939  -0.912  23.829  0.00  0.00    +0.167 HD
ATOM     16  C   UNL     1       5.800  -2.979  23.326  0.00  0.00    +0.069 A 
ATOM     17  C   UNL     1       4.493  -3.419  23.549  0.00  0.00    +0.054 A 
ATOM     18  C   UNL     1       4.217  -4.767  23.265  0.00  0.00    +0.050 A 
ATOM     19  C   UNL     1       5.240  -5.606  22.786  0.00  0.00    +0.031 A 
BRANCH  18  20
ATOM     20  N   UNL     1       2.896  -5.276  23.458  0.00  0.00    -0.306 N 
ATOM     21  C   UNL     1       1.894  -4.743  24.244  0.00  0.00    +0.204 A 
ATOM     22  N   UNL     1       0.793  -5.461  24.227  0.00  0.00    -0.244 NA
ATOM     23  C   UNL     1       1.067  -6.507  23.398  0.00  0.00    +0.130 A 
ATOM     24  C   UNL     1       2.347  -6.417  22.907  0.00  0.00    +0.112 A 
ENDBRANCH  18  20
ENDBRANCH   1  13
BRANCH   8  25
ATOM     25  N   UNL     1       8.064  -0.494  25.717  0.00  0.00    -0.338 N 
ATOM     26  H   UNL     1       7.967   0.339  26.312  0.00  0.00    +0.146 HD
BRANCH  25  27
ATOM     27  C   UNL     1       8.748  -1.500  26.558  0.00  0.00    +0.157 C 
BRANCH  27  28
ATOM     28  C   UNL     1       8.071  -2.861  26.506  0.00  0.00    +0.058 A 
ATOM     29  C   UNL     1       8.787  -4.008  26.159  0.00  0.00    +0.025 A 
ATOM     30  C   UNL     1       8.123  -5.233  26.100  0.00  0.00    +0.003 A 
ATOM     31  C   UNL     1       6.763  -5.285  26.372  0.00  0.00    +0.020 A 
ATOM     32  C   UNL     1       6.118  -4.102  26.688  0.00  0.00    +0.111 A 
ATOM     33  N   UNL     1       6.734  -2.900  26.755  0.00  0.00    -0.258 NA
ENDBRANCH  27  28
ENDBRANCH  25  27
ENDBRANCH   8  25
TORSDOF 5
ENDMDL
MODEL 6
REMARK VINA RESULT:      -6.7      2.974      7.947
REMARK  Name = 
REMARK  6 active torsions:
REMARK  status: ('A' for Active; 'I' for Inactive)
REMARK    1  A    between atoms: C_1  and  C_2
REMARK    2  A    between atoms: C_4  and  N_26
REMARK    3  A    between atoms: C_9  and  C_11
REMARK    4  A    between atoms: C_12  and  N_13
REMARK    5  A    between atoms: N_13  and  C_14
REMARK    6  A    between atoms: C_14  and  C_15
REMARK                            x       y       z     vdW  Elec       q    Type
REMARK                         _______ _______ _______ _____ _____    ______ ____
ROOT
ATOM      1  C   UNL     1       7.954  -3.484  25.920  0.00  0.00    +0.102 A 
ATOM      2  C   UNL     1       8.847  -4.643  26.295  0.00  0.00    +0.261 A 
ATOM      3  O   UNL     1      10.029  -4.700  25.962  0.00  0.00    -0.267 OA
ATOM      4  N   UNL     1       8.278  -5.648  27.035  0.00  0.00    -0.328 N 
ATOM      5  H   UNL     1       8.882  -6.429  27.261  0.00  0.00    +0.168 HD
ATOM      6  C   UNL     1       6.984  -5.628  27.468  0.00  0.00    +0.088 A 
ATOM      7  C   UNL     1       6.194  -4.589  27.175  0.00  0.00    +0.041 A 
ATOM      8  C   UNL     1       6.672  -3.471  26.370  0.00  0.00    +0.045 A 
ENDROOT
BRANCH   1  13
ATOM      9  C   UNL     1       9.685  -1.139  21.147  0.00  0.00    +0.046 C 
ATOM     10  C   UNL     1       9.590  -0.393  22.444  0.00  0.00    -0.021 A 
ATOM     11  C   UNL     1       9.173  -1.018  23.632  0.00  0.00    +0.092 A 
ATOM     12  N   UNL     1       8.797  -2.325  23.855  0.00  0.00    -0.227 NA
ATOM     13  C   UNL     1       8.467  -2.400  25.137  0.00  0.00    +0.146 A 
ATOM     14  N   UNL     1       8.658  -1.173  25.738  0.00  0.00    -0.338 N 
ATOM     15  H   UNL     1       8.485  -0.981  26.719  0.00  0.00    +0.167 HD
ATOM     16  C   UNL     1       9.088  -0.275  24.800  0.00  0.00    +0.069 A 
ATOM     17  C   UNL     1       9.396   1.085  24.887  0.00  0.00    +0.054 A 
ATOM     18  C   UNL     1       9.819   1.719  23.707  0.00  0.00    +0.050 A 
ATOM     19  C   UNL     1       9.908   0.984  22.509  0.00  0.00    +0.031 A 
BRANCH  18  20
ATOM     20  N   UNL     1      10.163   3.106  23.731  0.00  0.00    -0.306 N 
ATOM     21  C   UNL     1      11.374   3.678  23.399  0.00  0.00    +0.204 A 
ATOM     22  N   UNL     1      11.379   4.986  23.544  0.00  0.00    -0.244 NA
ATOM     23  C   UNL     1      10.127   5.296  23.984  0.00  0.00    +0.130 A 
ATOM     24  C   UNL     1       9.357   4.164  24.102  0.00  0.00    +0.112 A 
ENDBRANCH  18  20
ENDBRANCH   1  13
BRANCH   8  25
ATOM     25  N   UNL     1       5.709  -2.492  26.081  0.00  0.00    -0.338 N 
ATOM     26  H   UNL     1       5.284  -2.217  26.976  0.00  0.00    +0.146 HD
BRANCH  25  27
ATOM     27  C   UNL     1       4.576  -2.828  25.193  0.00  0.00    +0.157 C 
BRANCH  27  28
ATOM     28  C   UNL     1       5.022  -3.521  23.915  0.00  0.00    +0.058 A 
ATOM     29  C   UNL     1       4.923  -4.907  23.777  0.00  0.00    +0.025 A 
ATOM     30  C   UNL     1       5.365  -5.507  22.598  0.00  0.00    +0.003 A 
ATOM     31  C   UNL     1       5.908  -4.717  21.594  0.00  0.00    +0.020 A 
ATOM     32  C   UNL     1       5.991  -3.354  21.813  0.00  0.00    +0.111 A 
ATOM     33  N   UNL     1       5.570  -2.743  22.943  0.00  0.00    -0.258 NA
ENDBRANCH  27  28
ENDBRANCH  25  27
ENDBRANCH   8  25
TORSDOF 5
ENDMDL
MODEL 7
REMARK VINA RESULT:      -6.7      2.249      7.282
REMARK  Name = 
REMARK  6 active torsions:
REMARK  status: ('A' for Active; 'I' for Inactive)
REMARK    1  A    between atoms: C_1  and  C_2
REMARK    2  A    between atoms: C_4  and  N_26
REMARK    3  A    between atoms: C_9  and  C_11
REMARK    4  A    between atoms: C_12  and  N_13
REMARK    5  A    between atoms: N_13  and  C_14
REMARK    6  A    between atoms: C_14  and  C_15
REMARK                            x       y       z     vdW  Elec       q    Type
REMARK                         _______ _______ _______ _____ _____    ______ ____
ROOT
ATOM      1  C   UNL     1       7.164  -3.309  22.742  0.00  0.00    +0.102 A 
ATOM      2  C   UNL     1       6.205  -3.803  21.684  0.00  0.00    +0.261 A 
ATOM      3  O   UNL     1       5.527  -3.039  21.001  0.00  0.00    -0.267 OA
ATOM      4  N   UNL     1       6.120  -5.162  21.513  0.00  0.00    -0.328 N 
ATOM      5  H   UNL     1       5.457  -5.479  20.815  0.00  0.00    +0.168 HD
ATOM      6  C   UNL     1       6.871  -6.061  22.212  0.00  0.00    +0.088 A 
ATOM      7  C   UNL     1       7.752  -5.634  23.124  0.00  0.00    +0.041 A 
ATOM      8  C   UNL     1       7.916  -4.216  23.420  0.00  0.00    +0.045 A 
ENDROOT
BRANCH   1  13
ATOM      9  C   UNL     1       5.317   1.667  24.500  0.00  0.00    +0.046 C 
ATOM     10  C   UNL     1       6.714   1.433  24.012  0.00  0.00    -0.021 A 
ATOM     11  C   UNL     1       7.142   0.175  23.554  0.00  0.00    +0.092 A 
ATOM     12  N   UNL     1       6.445  -1.010  23.458  0.00  0.00    -0.227 NA
ATOM     13  C   UNL     1       7.304  -1.906  22.994  0.00  0.00    +0.146 A 
ATOM     14  N   UNL     1       8.524  -1.304  22.763  0.00  0.00    -0.338 N 
ATOM     15  H   UNL     1       9.340  -1.782  22.397  0.00  0.00    +0.167 HD
ATOM     16  C   UNL     1       8.451   0.012  23.128  0.00  0.00    +0.069 A 
ATOM     17  C   UNL     1       9.404   1.033  23.118  0.00  0.00    +0.054 A 
ATOM     18  C   UNL     1       8.987   2.297  23.568  0.00  0.00    +0.050 A 
ATOM     19  C   UNL     1       7.663   2.484  24.009  0.00  0.00    +0.031 A 
BRANCH  18  20
ATOM     20  N   UNL     1       9.909   3.389  23.570  0.00  0.00    -0.306 N 
ATOM     21  C   UNL     1      11.268   3.344  23.328  0.00  0.00    +0.204 A 
ATOM     22  N   UNL     1      11.844   4.523  23.422  0.00  0.00    -0.244 NA
ATOM     23  C   UNL     1      10.835   5.384  23.735  0.00  0.00    +0.130 A 
ATOM     24  C   UNL     1       9.636   4.718  23.827  0.00  0.00    +0.112 A 
ENDBRANCH  18  20
ENDBRANCH   1  13
BRANCH   8  25
ATOM     25  N   UNL     1       8.821  -3.925  24.453  0.00  0.00    -0.338 N 
ATOM     26  H   UNL     1       9.581  -4.614  24.388  0.00  0.00    +0.146 HD
BRANCH  25  27
ATOM     27  C   UNL     1       8.361  -3.977  25.858  0.00  0.00    +0.157 C 
BRANCH  27  28
ATOM     28  C   UNL     1       7.835  -2.637  26.348  0.00  0.00    +0.058 A 
ATOM     29  C   UNL     1       8.694  -1.552  26.534  0.00  0.00    +0.025 A 
ATOM     30  C   UNL     1       8.176  -0.347  27.009  0.00  0.00    +0.003 A 
ATOM     31  C   UNL     1       6.822  -0.255  27.300  0.00  0.00    +0.020 A 
ATOM     32  C   UNL     1       6.039  -1.379  27.109  0.00  0.00    +0.111 A 
ATOM     33  N   UNL     1       6.511  -2.560  26.650  0.00  0.00    -0.258 NA
ENDBRANCH  27  28
ENDBRANCH  25  27
ENDBRANCH   8  25
TORSDOF 5
ENDMDL
MODEL 8
REMARK VINA RESULT:      -6.7      2.391      4.150
REMARK  Name = 
REMARK  6 active torsions:
REMARK  status: ('A' for Active; 'I' for Inactive)
REMARK    1  A    between atoms: C_1  and  C_2
REMARK    2  A    between atoms: C_4  and  N_26
REMARK    3  A    between atoms: C_9  and  C_11
REMARK    4  A    between atoms: C_12  and  N_13
REMARK    5  A    between atoms: N_13  and  C_14
REMARK    6  A    between atoms: C_14  and  C_15
REMARK                            x       y       z     vdW  Elec       q    Type
REMARK                         _______ _______ _______ _____ _____    ______ ____
ROOT
ATOM      1  C   UNL     1       9.310   0.081  23.290  0.00  0.00    +0.102 A 
ATOM      2  C   UNL     1       9.541   0.542  21.870  0.00  0.00    +0.261 A 
ATOM      3  O   UNL     1       9.288  -0.166  20.898  0.00  0.00    -0.267 OA
ATOM      4  N   UNL     1      10.053   1.804  21.706  0.00  0.00    -0.328 N 
ATOM      5  H   UNL     1      10.223   2.092  20.749  0.00  0.00    +0.168 HD
ATOM      6  C   UNL     1      10.319   2.653  22.740  0.00  0.00    +0.088 A 
ATOM      7  C   UNL     1      10.082   2.271  24.000  0.00  0.00    +0.041 A 
ATOM      8  C   UNL     1       9.567   0.942  24.309  0.00  0.00    +0.045 A 
ENDROOT
BRANCH   1  13
ATOM      9  C   UNL     1       9.635  -5.115  25.331  0.00  0.00    +0.046 C 
ATOM     10  C   UNL     1       8.401  -4.559  24.687  0.00  0.00    -0.021 A 
ATOM     11  C   UNL     1       8.358  -3.255  24.163  0.00  0.00    +0.092 A 
ATOM     12  N   UNL     1       9.341  -2.290  24.122  0.00  0.00    -0.227 NA
ATOM     13  C   UNL     1       8.791  -1.228  23.550  0.00  0.00    +0.146 A 
ATOM     14  N   UNL     1       7.488  -1.513  23.198  0.00  0.00    -0.338 N 
ATOM     15  H   UNL     1       6.863  -0.862  22.735  0.00  0.00    +0.167 HD
ATOM     16  C   UNL     1       7.185  -2.787  23.593  0.00  0.00    +0.069 A 
ATOM     17  C   UNL     1       6.008  -3.535  23.496  0.00  0.00    +0.054 A 
ATOM     18  C   UNL     1       6.040  -4.841  24.012  0.00  0.00    +0.050 A 
ATOM     19  C   UNL     1       7.220  -5.335  24.599  0.00  0.00    +0.031 A 
BRANCH  18  20
ATOM     20  N   UNL     1       4.874  -5.664  23.932  0.00  0.00    -0.306 N 
ATOM     21  C   UNL     1       4.665  -6.888  24.534  0.00  0.00    +0.204 A 
ATOM     22  N   UNL     1       3.490  -7.405  24.250  0.00  0.00    -0.244 NA
ATOM     23  C   UNL     1       2.892  -6.492  23.433  0.00  0.00    +0.130 A 
ATOM     24  C   UNL     1       3.715  -5.411  23.226  0.00  0.00    +0.112 A 
ENDBRANCH  18  20
ENDBRANCH   1  13
BRANCH   8  25
ATOM     25  N   UNL     1       9.441   0.657  25.678  0.00  0.00    -0.338 N 
ATOM     26  H   UNL     1       9.963  -0.211  25.852  0.00  0.00    +0.146 HD
BRANCH  25  27
ATOM     27  C   UNL     1       8.096   0.429  26.251  0.00  0.00    +0.157 C 
BRANCH  27  28
ATOM     28  C   UNL     1       7.077   1.450  25.770  0.00  0.00    +0.058 A 
ATOM     29  C   UNL     1       7.077   2.754  26.268  0.00  0.00    +0.025 A 
ATOM     30  C   UNL     1       6.110   3.654  25.818  0.00  0.00    +0.003 A 
ATOM     31  C   UNL     1       5.160   3.231  24.898  0.00  0.00    +0.020 A 
ATOM     32  C   UNL     1       5.214   1.917  24.468  0.00  0.00    +0.111 A 
ATOM     33  N   UNL     1       6.139   1.022  24.883  0.00  0.00    -0.258 NA
ENDBRANCH  27  28
ENDBRANCH  25  27
ENDBRANCH   8  25
TORSDOF 5
ENDMDL
MODEL 9
REMARK VINA RESULT:      -6.6      1.566      2.362
REMARK  Name = 
REMARK  6 active torsions:
REMARK  status: ('A' for Active; 'I' for Inactive)
REMARK    1  A    between atoms: C_1  and  C_2
REMARK    2  A    between atoms: C_4  and  N_26
REMARK    3  A    between atoms: C_9  and  C_11
REMARK    4  A    between atoms: C_12  and  N_13
REMARK    5  A    between atoms: N_13  and  C_14
REMARK    6  A    between atoms: C_14  and  C_15
REMARK                            x       y       z     vdW  Elec       q    Type
REMARK                         _______ _______ _______ _____ _____    ______ ____
ROOT
ATOM      1  C   UNL     1       6.192   3.358  22.559  0.00  0.00    +0.102 A 
ATOM      2  C   UNL     1       4.736   3.753  22.483  0.00  0.00    +0.261 A 
ATOM      3  O   UNL     1       3.827   2.927  22.501  0.00  0.00    -0.267 OA
ATOM      4  N   UNL     1       4.465   5.095  22.391  0.00  0.00    -0.328 N 
ATOM      5  H   UNL     1       3.485   5.345  22.319  0.00  0.00    +0.168 HD
ATOM      6  C   UNL     1       5.425   6.064  22.403  0.00  0.00    +0.088 A 
ATOM      7  C   UNL     1       6.715   5.728  22.509  0.00  0.00    +0.041 A 
ATOM      8  C   UNL     1       7.137   4.334  22.584  0.00  0.00    +0.045 A 
ENDROOT
BRANCH   1  13
ATOM      9  C   UNL     1       9.443  -1.031  21.360  0.00  0.00    +0.046 C 
ATOM     10  C   UNL     1       8.274  -1.104  22.295  0.00  0.00    -0.021 A 
ATOM     11  C   UNL     1       7.461   0.013  22.558  0.00  0.00    +0.092 A 
ATOM     12  N   UNL     1       7.544   1.297  22.065  0.00  0.00    -0.227 NA
ATOM     13  C   UNL     1       6.563   1.977  22.643  0.00  0.00    +0.146 A 
ATOM     14  N   UNL     1       5.840   1.139  23.467  0.00  0.00    -0.338 N 
ATOM     15  H   UNL     1       5.033   1.425  24.010  0.00  0.00    +0.167 HD
ATOM     16  C   UNL     1       6.402  -0.107  23.444  0.00  0.00    +0.069 A 
ATOM     17  C   UNL     1       6.071  -1.288  24.113  0.00  0.00    +0.054 A 
ATOM     18  C   UNL     1       6.873  -2.413  23.855  0.00  0.00    +0.050 A 
ATOM     19  C   UNL     1       7.956  -2.312  22.961  0.00  0.00    +0.031 A 
BRANCH  18  20
ATOM     20  N   UNL     1       6.579  -3.656  24.496  0.00  0.00    -0.306 N 
ATOM     21  C   UNL     1       7.210  -4.206  25.594  0.00  0.00    +0.204 A 
ATOM     22  N   UNL     1       6.717  -5.377  25.934  0.00  0.00    -0.244 NA
ATOM     23  C   UNL     1       5.721  -5.614  25.034  0.00  0.00    +0.130 A 
ATOM     24  C   UNL     1       5.610  -4.574  24.144  0.00  0.00    +0.112 A 
ENDBRANCH  18  20
ENDBRANCH   1  13
BRANCH   8  25
ATOM     25  N   UNL     1       8.526   4.133  22.615  0.00  0.00    -0.338 N 
ATOM     26  H   UNL     1       8.707   3.224  22.170  0.00  0.00    +0.146 HD
BRANCH  25  27
ATOM     27  C   UNL     1       9.222   4.079  23.918  0.00  0.00    +0.157 C 
BRANCH  27  28
ATOM     28  C   UNL     1       9.547   2.657  24.347  0.00  0.00    +0.058 A 
ATOM     29  C   UNL     1       8.748   1.985  25.275  0.00  0.00    +0.025 A 
ATOM     30  C   UNL     1       9.094   0.690  25.659  0.00  0.00    +0.003 A 
ATOM     31  C   UNL     1      10.231   0.101  25.124  0.00  0.00    +0.020 A 
ATOM     32  C   UNL     1      10.982   0.837  24.225  0.00  0.00    +0.111 A 
ATOM     33  N   UNL     1      10.673   2.093  23.832  0.00  0.00    -0.258 NA
ENDBRANCH  27  28
ENDBRANCH  25  27
ENDBRANCH   8  25
TORSDOF 5
ENDMDL
