MODEL 1
REMARK VINA RESULT:      -6.1      0.000      0.000
REMARK  Name = 
REMARK  21 active torsions:
REMARK  status: ('A' for Active; 'I' for Inactive)
REMARK    1  A    between atoms: C_1  and  C_2
REMARK    2  A    between atoms: C_2  and  C_3
REMARK    3  A    between atoms: C_2  and  C_4
REMARK    4  A    between atoms: C_4  and  C_5
REMARK    5  A    between atoms: C_5  and  C_6
REMARK    6  A    between atoms: C_6  and  C_7
REMARK    7  A    between atoms: C_7  and  C_9
REMARK    8  A    between atoms: C_7  and  C_10
REMARK    9  A    between atoms: C_10  and  C_11
REMARK   10  A    between atoms: C_11  and  C_12
REMARK   11  A    between atoms: C_12  and  C_13
REMARK   12  A    between atoms: C_13  and  C_15
REMARK   13  A    between atoms: C_13  and  C_16
REMARK   14  A    between atoms: C_16  and  C_17
REMARK   15  A    between atoms: C_17  and  C_18
REMARK   16  A    between atoms: C_18  and  C_19
REMARK   17  A    between atoms: C_19  and  C_20
REMARK   18  A    between atoms: C_26  and  C_27
REMARK   19  A    between atoms: C_28  and  C_29
REMARK   20  A    between atoms: C_30  and  O_31
REMARK   21  A    between atoms: C_32  and  C_33
REMARK                            x       y       z     vdW  Elec       q    Type
REMARK                         _______ _______ _______ _____ _____    ______ ____
ROOT
ATOM      1  C   UNL     1       7.460  -2.285  26.585  0.00  0.00    +0.048 C 
ENDROOT
BRANCH   1   2
ATOM      2  C   UNL     1       7.228  -0.843  26.078  0.00  0.00    +0.108 C 
ATOM      3  O   UNL     1       8.450  -0.397  25.474  0.00  0.00    -0.485 OA
ATOM      4  C   UNL     1       8.388   0.751  24.717  0.00  0.00    +0.128 A 
ATOM      5  C   UNL     1       9.625   1.367  24.428  0.00  0.00    -0.002 A 
ATOM      6  C   UNL     1       9.638   2.579  23.696  0.00  0.00    -0.002 A 
ATOM      7  C   UNL     1       8.412   3.123  23.261  0.00  0.00    +0.123 A 
ATOM      8  C   UNL     1       7.184   2.499  23.526  0.00  0.00    -0.002 A 
ATOM      9  C   UNL     1       5.886   3.106  23.054  0.00  0.00    +0.048 C 
ATOM     10  C   UNL     1      10.930   3.294  23.392  0.00  0.00    +0.048 C 
ATOM     11  C   UNL     1      10.910   0.745  24.919  0.00  0.00    +0.048 C 
ATOM     12  C   UNL     1       7.175   1.287  24.247  0.00  0.00    +0.001 A 
ATOM     13  C   UNL     1       5.867   0.597  24.547  0.00  0.00    +0.043 C 
ATOM     14  C   UNL     1       6.091  -0.814  25.052  0.00  0.00    +0.052 C 
ATOM     15  C   UNL     1       6.926   0.025  27.322  0.00  0.00    +0.055 C 
BRANCH   7  16
ATOM     16  O   UNL     1       8.364   4.296  22.553  0.00  0.00    -0.506 OA
ATOM     17  H   UNL     1       9.045   4.300  21.866  0.00  0.00    +0.292 HD
ENDBRANCH   7  16
ENDBRANCH   1   2
BRANCH   1  18
ATOM     18  C   UNL     1       8.389  -3.149  25.723  0.00  0.00    +0.004 C 
BRANCH  18  19
ATOM     19  C   UNL     1       7.901  -4.601  25.604  0.00  0.00    +0.003 C 
BRANCH  19  20
ATOM     20  C   UNL     1       6.614  -4.915  26.393  0.00  0.00    -0.014 C 
ATOM     21  C   UNL     1       6.972  -5.604  27.715  0.00  0.00    +0.007 C 
BRANCH  20  22
ATOM     22  C   UNL     1       5.627  -5.746  25.546  0.00  0.00    +0.003 C 
BRANCH  22  23
ATOM     23  C   UNL     1       4.855  -4.879  24.564  0.00  0.00    +0.001 C 
BRANCH  23  24
ATOM     24  C   UNL     1       4.616  -5.580  23.230  0.00  0.00    +0.003 C 
BRANCH  24  25
ATOM     25  C   UNL     1       5.593  -5.089  22.144  0.00  0.00    -0.014 C 
ATOM     26  C   UNL     1       6.822  -6.006  22.032  0.00  0.00    +0.007 C 
BRANCH  25  27
ATOM     27  C   UNL     1       5.987  -3.627  22.433  0.00  0.00    +0.003 C 
BRANCH  27  28
ATOM     28  C   UNL     1       7.447  -3.358  22.075  0.00  0.00    +0.001 C 
BRANCH  28  29
ATOM     29  C   UNL     1       7.875  -1.924  22.368  0.00  0.00    +0.003 C 
BRANCH  29  31
ATOM     30  C   UNL     1       9.276  -0.168  21.251  0.00  0.00    +0.007 C 
ATOM     31  C   UNL     1       9.259  -1.604  21.771  0.00  0.00    -0.017 C 
ATOM     32  C   UNL     1      10.401  -1.805  22.774  0.00  0.00    +0.007 C 
ENDBRANCH  29  31
ENDBRANCH  28  29
ENDBRANCH  27  28
ENDBRANCH  25  27
ENDBRANCH  24  25
ENDBRANCH  23  24
ENDBRANCH  22  23
ENDBRANCH  20  22
ENDBRANCH  19  20
ENDBRANCH  18  19
ENDBRANCH   1  18
TORSDOF 13
ENDMDL
MODEL 2
REMARK VINA RESULT:      -6.0      2.219      7.519
REMARK  Name = 
REMARK  21 active torsions:
REMARK  status: ('A' for Active; 'I' for Inactive)
REMARK    1  A    between atoms: C_1  and  C_2
REMARK    2  A    between atoms: C_2  and  C_3
REMARK    3  A    between atoms: C_2  and  C_4
REMARK    4  A    between atoms: C_4  and  C_5
REMARK    5  A    between atoms: C_5  and  C_6
REMARK    6  A    between atoms: C_6  and  C_7
REMARK    7  A    between atoms: C_7  and  C_9
REMARK    8  A    between atoms: C_7  and  C_10
REMARK    9  A    between atoms: C_10  and  C_11
REMARK   10  A    between atoms: C_11  and  C_12
REMARK   11  A    between atoms: C_12  and  C_13
REMARK   12  A    between atoms: C_13  and  C_15
REMARK   13  A    between atoms: C_13  and  C_16
REMARK   14  A    between atoms: C_16  and  C_17
REMARK   15  A    between atoms: C_17  and  C_18
REMARK   16  A    between atoms: C_18  and  C_19
REMARK   17  A    between atoms: C_19  and  C_20
REMARK   18  A    between atoms: C_26  and  C_27
REMARK   19  A    between atoms: C_28  and  C_29
REMARK   20  A    between atoms: C_30  and  O_31
REMARK   21  A    between atoms: C_32  and  C_33
REMARK                            x       y       z     vdW  Elec       q    Type
REMARK                         _______ _______ _______ _____ _____    ______ ____
ROOT
ATOM      1  C   UNL     1       7.806  -2.771  22.739  0.00  0.00    +0.048 C 
ENDROOT
BRANCH   1   2
ATOM      2  C   UNL     1       6.811  -3.905  23.078  0.00  0.00    +0.108 C 
ATOM      3  O   UNL     1       6.909  -4.155  24.488  0.00  0.00    -0.485 OA
ATOM      4  C   UNL     1       5.922  -4.932  25.052  0.00  0.00    +0.128 A 
ATOM      5  C   UNL     1       6.207  -5.458  26.330  0.00  0.00    -0.002 A 
ATOM      6  C   UNL     1       5.261  -6.306  26.954  0.00  0.00    -0.002 A 
ATOM      7  C   UNL     1       4.052  -6.584  26.284  0.00  0.00    +0.123 A 
ATOM      8  C   UNL     1       3.757  -6.042  25.023  0.00  0.00    -0.002 A 
ATOM      9  C   UNL     1       2.458  -6.361  24.325  0.00  0.00    +0.048 C 
ATOM     10  C   UNL     1       5.532  -6.921  28.304  0.00  0.00    +0.048 C 
ATOM     11  C   UNL     1       7.517  -5.131  27.006  0.00  0.00    +0.048 C 
ATOM     12  C   UNL     1       4.697  -5.190  24.409  0.00  0.00    +0.001 A 
ATOM     13  C   UNL     1       4.405  -4.596  23.053  0.00  0.00    +0.043 C 
ATOM     14  C   UNL     1       5.384  -3.490  22.713  0.00  0.00    +0.052 C 
ATOM     15  C   UNL     1       7.281  -5.158  22.304  0.00  0.00    +0.055 C 
BRANCH   7  16
ATOM     16  O   UNL     1       3.101  -7.403  26.836  0.00  0.00    -0.506 OA
ATOM     17  H   UNL     1       3.353  -8.331  26.723  0.00  0.00    +0.292 HD
ENDBRANCH   7  16
ENDBRANCH   1   2
BRANCH   1  18
ATOM     18  C   UNL     1       9.123  -2.787  23.526  0.00  0.00    +0.004 C 
BRANCH  18  19
ATOM     19  C   UNL     1       9.416  -1.443  24.210  0.00  0.00    +0.003 C 
BRANCH  19  20
ATOM     20  C   UNL     1      10.502  -0.591  23.521  0.00  0.00    -0.014 C 
ATOM     21  C   UNL     1      10.855   0.611  24.405  0.00  0.00    +0.007 C 
BRANCH  20  22
ATOM     22  C   UNL     1      10.066  -0.170  22.103  0.00  0.00    +0.003 C 
BRANCH  22  23
ATOM     23  C   UNL     1       9.796   1.323  22.014  0.00  0.00    +0.001 C 
BRANCH  23  24
ATOM     24  C   UNL     1       8.410   1.634  21.454  0.00  0.00    +0.003 C 
BRANCH  24  25
ATOM     25  C   UNL     1       7.428   2.058  22.563  0.00  0.00    -0.014 C 
ATOM     26  C   UNL     1       8.131   2.874  23.660  0.00  0.00    +0.007 C 
BRANCH  25  27
ATOM     27  C   UNL     1       6.728   0.808  23.132  0.00  0.00    +0.003 C 
BRANCH  27  28
ATOM     28  C   UNL     1       6.739   0.804  24.659  0.00  0.00    +0.001 C 
BRANCH  28  29
ATOM     29  C   UNL     1       5.465   0.223  25.261  0.00  0.00    +0.003 C 
BRANCH  29  31
ATOM     30  C   UNL     1       6.776  -1.365  26.693  0.00  0.00    +0.007 C 
ATOM     31  C   UNL     1       5.645  -1.250  25.674  0.00  0.00    -0.017 C 
ATOM     32  C   UNL     1       4.365  -1.868  26.250  0.00  0.00    +0.007 C 
ENDBRANCH  29  31
ENDBRANCH  28  29
ENDBRANCH  27  28
ENDBRANCH  25  27
ENDBRANCH  24  25
ENDBRANCH  23  24
ENDBRANCH  22  23
ENDBRANCH  20  22
ENDBRANCH  19  20
ENDBRANCH  18  19
ENDBRANCH   1  18
TORSDOF 13
ENDMDL
MODEL 3
REMARK VINA RESULT:      -5.9      2.218      8.183
REMARK  Name = 
REMARK  21 active torsions:
REMARK  status: ('A' for Active; 'I' for Inactive)
REMARK    1  A    between atoms: C_1  and  C_2
REMARK    2  A    between atoms: C_2  and  C_3
REMARK    3  A    between atoms: C_2  and  C_4
REMARK    4  A    between atoms: C_4  and  C_5
REMARK    5  A    between atoms: C_5  and  C_6
REMARK    6  A    between atoms: C_6  and  C_7
REMARK    7  A    between atoms: C_7  and  C_9
REMARK    8  A    between atoms: C_7  and  C_10
REMARK    9  A    between atoms: C_10  and  C_11
REMARK   10  A    between atoms: C_11  and  C_12
REMARK   11  A    between atoms: C_12  and  C_13
REMARK   12  A    between atoms: C_13  and  C_15
REMARK   13  A    between atoms: C_13  and  C_16
REMARK   14  A    between atoms: C_16  and  C_17
REMARK   15  A    between atoms: C_17  and  C_18
REMARK   16  A    between atoms: C_18  and  C_19
REMARK   17  A    between atoms: C_19  and  C_20
REMARK   18  A    between atoms: C_26  and  C_27
REMARK   19  A    between atoms: C_28  and  C_29
REMARK   20  A    between atoms: C_30  and  O_31
REMARK   21  A    between atoms: C_32  and  C_33
REMARK                            x       y       z     vdW  Elec       q    Type
REMARK                         _______ _______ _______ _____ _____    ______ ____
ROOT
ATOM      1  C   UNL     1       9.036  -0.720  24.809  0.00  0.00    +0.048 C 
ENDROOT
BRANCH   1   2
ATOM      2  C   UNL     1       8.607  -2.082  24.215  0.00  0.00    +0.108 C 
ATOM      3  O   UNL     1       7.679  -2.678  25.132  0.00  0.00    -0.485 OA
ATOM      4  C   UNL     1       6.964  -3.763  24.677  0.00  0.00    +0.128 A 
ATOM      5  C   UNL     1       6.333  -4.545  25.668  0.00  0.00    -0.002 A 
ATOM      6  C   UNL     1       5.620  -5.705  25.282  0.00  0.00    -0.002 A 
ATOM      7  C   UNL     1       5.547  -6.033  23.912  0.00  0.00    +0.123 A 
ATOM      8  C   UNL     1       6.153  -5.242  22.923  0.00  0.00    -0.002 A 
ATOM      9  C   UNL     1       6.064  -5.619  21.465  0.00  0.00    +0.048 C 
ATOM     10  C   UNL     1       4.959  -6.593  26.305  0.00  0.00    +0.048 C 
ATOM     11  C   UNL     1       6.443  -4.153  27.123  0.00  0.00    +0.048 C 
ATOM     12  C   UNL     1       6.854  -4.082  23.311  0.00  0.00    +0.001 A 
ATOM     13  C   UNL     1       7.516  -3.216  22.268  0.00  0.00    +0.043 C 
ATOM     14  C   UNL     1       7.945  -1.884  22.849  0.00  0.00    +0.052 C 
ATOM     15  C   UNL     1       9.880  -2.955  24.136  0.00  0.00    +0.055 C 
BRANCH   7  16
ATOM     16  O   UNL     1       4.875  -7.147  23.480  0.00  0.00    -0.506 OA
ATOM     17  H   UNL     1       3.940  -6.939  23.341  0.00  0.00    +0.292 HD
ENDBRANCH   7  16
ENDBRANCH   1   2
BRANCH   1  18
ATOM     18  C   UNL     1      10.060   0.070  23.984  0.00  0.00    +0.004 C 
BRANCH  18  19
ATOM     19  C   UNL     1      10.191   1.528  24.449  0.00  0.00    +0.003 C 
BRANCH  19  20
ATOM     20  C   UNL     1      10.090   2.577  23.322  0.00  0.00    -0.014 C 
ATOM     21  C   UNL     1       9.878   1.872  21.977  0.00  0.00    +0.007 C 
BRANCH  20  22
ATOM     22  C   UNL     1      11.322   3.505  23.311  0.00  0.00    +0.003 C 
BRANCH  22  23
ATOM     23  C   UNL     1      10.953   4.939  23.657  0.00  0.00    +0.001 C 
BRANCH  23  24
ATOM     24  C   UNL     1       9.493   5.082  24.078  0.00  0.00    +0.003 C 
BRANCH  24  25
ATOM     25  C   UNL     1       8.835   6.324  23.446  0.00  0.00    -0.014 C 
ATOM     26  C   UNL     1       8.004   7.108  24.473  0.00  0.00    +0.007 C 
BRANCH  25  27
ATOM     27  C   UNL     1       7.994   5.894  22.228  0.00  0.00    +0.003 C 
BRANCH  27  28
ATOM     28  C   UNL     1       6.719   5.169  22.655  0.00  0.00    +0.001 C 
BRANCH  28  29
ATOM     29  C   UNL     1       6.672   3.721  22.180  0.00  0.00    +0.003 C 
BRANCH  29  31
ATOM     30  C   UNL     1       6.471   1.336  22.934  0.00  0.00    +0.007 C 
ATOM     31  C   UNL     1       6.096   2.781  23.256  0.00  0.00    -0.017 C 
ATOM     32  C   UNL     1       6.569   3.134  24.671  0.00  0.00    +0.007 C 
ENDBRANCH  29  31
ENDBRANCH  28  29
ENDBRANCH  27  28
ENDBRANCH  25  27
ENDBRANCH  24  25
ENDBRANCH  23  24
ENDBRANCH  22  23
ENDBRANCH  20  22
ENDBRANCH  19  20
ENDBRANCH  18  19
ENDBRANCH   1  18
TORSDOF 13
ENDMDL
MODEL 4
REMARK VINA RESULT:      -5.9      2.023      7.475
REMARK  Name = 
REMARK  21 active torsions:
REMARK  status: ('A' for Active; 'I' for Inactive)
REMARK    1  A    between atoms: C_1  and  C_2
REMARK    2  A    between atoms: C_2  and  C_3
REMARK    3  A    between atoms: C_2  and  C_4
REMARK    4  A    between atoms: C_4  and  C_5
REMARK    5  A    between atoms: C_5  and  C_6
REMARK    6  A    between atoms: C_6  and  C_7
REMARK    7  A    between atoms: C_7  and  C_9
REMARK    8  A    between atoms: C_7  and  C_10
REMARK    9  A    between atoms: C_10  and  C_11
REMARK   10  A    between atoms: C_11  and  C_12
REMARK   11  A    between atoms: C_12  and  C_13
REMARK   12  A    between atoms: C_13  and  C_15
REMARK   13  A    between atoms: C_13  and  C_16
REMARK   14  A    between atoms: C_16  and  C_17
REMARK   15  A    between atoms: C_17  and  C_18
REMARK   16  A    between atoms: C_18  and  C_19
REMARK   17  A    between atoms: C_19  and  C_20
REMARK   18  A    between atoms: C_26  and  C_27
REMARK   19  A    between atoms: C_28  and  C_29
REMARK   20  A    between atoms: C_30  and  O_31
REMARK   21  A    between atoms: C_32  and  C_33
REMARK                            x       y       z     vdW  Elec       q    Type
REMARK                         _______ _______ _______ _____ _____    ______ ____
ROOT
ATOM      1  C   UNL     1       8.840  -1.007  25.083  0.00  0.00    +0.048 C 
ENDROOT
BRANCH   1   2
ATOM      2  C   UNL     1       8.380  -2.358  24.489  0.00  0.00    +0.108 C 
ATOM      3  O   UNL     1       7.467  -2.950  25.424  0.00  0.00    -0.485 OA
ATOM      4  C   UNL     1       6.727  -4.022  24.979  0.00  0.00    +0.128 A 
ATOM      5  C   UNL     1       6.111  -4.804  25.978  0.00  0.00    -0.002 A 
ATOM      6  C   UNL     1       5.373  -5.952  25.600  0.00  0.00    -0.002 A 
ATOM      7  C   UNL     1       5.262  -6.267  24.230  0.00  0.00    +0.123 A 
ATOM      8  C   UNL     1       5.854  -5.476  23.233  0.00  0.00    -0.002 A 
ATOM      9  C   UNL     1       5.725  -5.839  21.775  0.00  0.00    +0.048 C 
ATOM     10  C   UNL     1       4.726  -6.840  26.632  0.00  0.00    +0.048 C 
ATOM     11  C   UNL     1       6.261  -4.426  27.433  0.00  0.00    +0.048 C 
ATOM     12  C   UNL     1       6.579  -4.328  23.613  0.00  0.00    +0.001 A 
ATOM     13  C   UNL     1       7.227  -3.462  22.560  0.00  0.00    +0.043 C 
ATOM     14  C   UNL     1       7.687  -2.140  23.141  0.00  0.00    +0.052 C 
ATOM     15  C   UNL     1       9.639  -3.247  24.372  0.00  0.00    +0.055 C 
BRANCH   7  16
ATOM     16  O   UNL     1       4.565  -7.369  23.805  0.00  0.00    -0.506 OA
ATOM     17  H   UNL     1       4.288  -7.901  24.564  0.00  0.00    +0.292 HD
ENDBRANCH   7  16
ENDBRANCH   1   2
BRANCH   1  18
ATOM     18  C   UNL     1      10.142  -0.437  24.505  0.00  0.00    +0.004 C 
BRANCH  18  19
ATOM     19  C   UNL     1      10.210   1.094  24.603  0.00  0.00    +0.003 C 
BRANCH  19  20
ATOM     20  C   UNL     1      10.548   1.812  23.281  0.00  0.00    -0.014 C 
ATOM     21  C   UNL     1      10.238   3.308  23.409  0.00  0.00    +0.007 C 
BRANCH  20  22
ATOM     22  C   UNL     1       9.818   1.160  22.089  0.00  0.00    +0.003 C 
BRANCH  22  23
ATOM     23  C   UNL     1       8.576   1.942  21.689  0.00  0.00    +0.001 C 
BRANCH  23  24
ATOM     24  C   UNL     1       7.302   1.364  22.297  0.00  0.00    +0.003 C 
BRANCH  24  25
ATOM     25  C   UNL     1       6.422   2.461  22.930  0.00  0.00    -0.014 C 
ATOM     26  C   UNL     1       6.695   3.837  22.301  0.00  0.00    +0.007 C 
BRANCH  25  27
ATOM     27  C   UNL     1       6.635   2.470  24.456  0.00  0.00    +0.003 C 
BRANCH  27  28
ATOM     28  C   UNL     1       5.916   1.303  25.130  0.00  0.00    +0.001 C 
BRANCH  28  29
ATOM     29  C   UNL     1       6.383   1.066  26.562  0.00  0.00    +0.003 C 
BRANCH  29  31
ATOM     30  C   UNL     1       5.066   0.059  28.445  0.00  0.00    +0.007 C 
ATOM     31  C   UNL     1       5.809  -0.240  27.145  0.00  0.00    -0.017 C 
ATOM     32  C   UNL     1       4.875  -0.967  26.171  0.00  0.00    +0.007 C 
ENDBRANCH  29  31
ENDBRANCH  28  29
ENDBRANCH  27  28
ENDBRANCH  25  27
ENDBRANCH  24  25
ENDBRANCH  23  24
ENDBRANCH  22  23
ENDBRANCH  20  22
ENDBRANCH  19  20
ENDBRANCH  18  19
ENDBRANCH   1  18
TORSDOF 13
ENDMDL
MODEL 5
REMARK VINA RESULT:      -5.7      2.414      8.047
REMARK  Name = 
REMARK  21 active torsions:
REMARK  status: ('A' for Active; 'I' for Inactive)
REMARK    1  A    between atoms: C_1  and  C_2
REMARK    2  A    between atoms: C_2  and  C_3
REMARK    3  A    between atoms: C_2  and  C_4
REMARK    4  A    between atoms: C_4  and  C_5
REMARK    5  A    between atoms: C_5  and  C_6
REMARK    6  A    between atoms: C_6  and  C_7
REMARK    7  A    between atoms: C_7  and  C_9
REMARK    8  A    between atoms: C_7  and  C_10
REMARK    9  A    between atoms: C_10  and  C_11
REMARK   10  A    between atoms: C_11  and  C_12
REMARK   11  A    between atoms: C_12  and  C_13
REMARK   12  A    between atoms: C_13  and  C_15
REMARK   13  A    between atoms: C_13  and  C_16
REMARK   14  A    between atoms: C_16  and  C_17
REMARK   15  A    between atoms: C_17  and  C_18
REMARK   16  A    between atoms: C_18  and  C_19
REMARK   17  A    between atoms: C_19  and  C_20
REMARK   18  A    between atoms: C_26  and  C_27
REMARK   19  A    between atoms: C_28  and  C_29
REMARK   20  A    between atoms: C_30  and  O_31
REMARK   21  A    between atoms: C_32  and  C_33
REMARK                            x       y       z     vdW  Elec       q    Type
REMARK                         _______ _______ _______ _____ _____    ______ ____
ROOT
ATOM      1  C   UNL     1       8.790  -2.131  22.468  0.00  0.00    +0.048 C 
ENDROOT
BRANCH   1   2
ATOM      2  C   UNL     1       8.059  -2.723  23.695  0.00  0.00    +0.108 C 
ATOM      3  O   UNL     1       7.231  -3.795  23.225  0.00  0.00    -0.485 OA
ATOM      4  C   UNL     1       6.701  -4.636  24.178  0.00  0.00    +0.128 A 
ATOM      5  C   UNL     1       5.629  -5.451  23.755  0.00  0.00    -0.002 A 
ATOM      6  C   UNL     1       5.001  -6.307  24.692  0.00  0.00    -0.002 A 
ATOM      7  C   UNL     1       5.481  -6.332  26.018  0.00  0.00    +0.123 A 
ATOM      8  C   UNL     1       6.563  -5.541  26.434  0.00  0.00    -0.002 A 
ATOM      9  C   UNL     1       7.052  -5.582  27.860  0.00  0.00    +0.048 C 
ATOM     10  C   UNL     1       3.829  -7.170  24.299  0.00  0.00    +0.048 C 
ATOM     11  C   UNL     1       5.151  -5.386  22.324  0.00  0.00    +0.048 C 
ATOM     12  C   UNL     1       7.192  -4.697  25.495  0.00  0.00    +0.001 A 
ATOM     13  C   UNL     1       8.356  -3.835  25.919  0.00  0.00    +0.043 C 
ATOM     14  C   UNL     1       9.070  -3.246  24.718  0.00  0.00    +0.052 C 
ATOM     15  C   UNL     1       7.164  -1.599  24.267  0.00  0.00    +0.055 C 
BRANCH   7  16
ATOM     16  O   UNL     1       4.908  -7.136  26.969  0.00  0.00    -0.506 OA
ATOM     17  H   UNL     1       4.974  -8.065  26.703  0.00  0.00    +0.292 HD
ENDBRANCH   7  16
ENDBRANCH   1   2
BRANCH   1  18
ATOM     18  C   UNL     1      10.123  -1.431  22.764  0.00  0.00    +0.004 C 
BRANCH  18  19
ATOM     19  C   UNL     1      10.087   0.069  22.433  0.00  0.00    +0.003 C 
BRANCH  19  20
ATOM     20  C   UNL     1      10.553   0.993  23.576  0.00  0.00    -0.014 C 
ATOM     21  C   UNL     1      10.437   0.259  24.917  0.00  0.00    +0.007 C 
BRANCH  20  22
ATOM     22  C   UNL     1       9.776   2.326  23.568  0.00  0.00    +0.003 C 
BRANCH  22  23
ATOM     23  C   UNL     1       8.395   2.174  22.949  0.00  0.00    +0.001 C 
BRANCH  23  24
ATOM     24  C   UNL     1       7.285   2.683  23.864  0.00  0.00    +0.003 C 
BRANCH  24  25
ATOM     25  C   UNL     1       7.807   2.981  25.284  0.00  0.00    -0.014 C 
ATOM     26  C   UNL     1       7.323   1.930  26.296  0.00  0.00    +0.007 C 
BRANCH  25  27
ATOM     27  C   UNL     1       7.394   4.408  25.691  0.00  0.00    +0.003 C 
BRANCH  27  28
ATOM     28  C   UNL     1       8.598   5.347  25.744  0.00  0.00    +0.001 C 
BRANCH  28  29
ATOM     29  C   UNL     1       8.328   6.697  25.090  0.00  0.00    +0.003 C 
BRANCH  29  31
ATOM     30  C   UNL     1      10.286   6.025  23.674  0.00  0.00    +0.007 C 
ATOM     31  C   UNL     1       8.969   6.799  23.694  0.00  0.00    -0.017 C 
ATOM     32  C   UNL     1       8.052   6.287  22.577  0.00  0.00    +0.007 C 
ENDBRANCH  29  31
ENDBRANCH  28  29
ENDBRANCH  27  28
ENDBRANCH  25  27
ENDBRANCH  24  25
ENDBRANCH  23  24
ENDBRANCH  22  23
ENDBRANCH  20  22
ENDBRANCH  19  20
ENDBRANCH  18  19
ENDBRANCH   1  18
TORSDOF 13
ENDMDL
MODEL 6
REMARK VINA RESULT:      -5.7      2.494      7.971
REMARK  Name = 
REMARK  21 active torsions:
REMARK  status: ('A' for Active; 'I' for Inactive)
REMARK    1  A    between atoms: C_1  and  C_2
REMARK    2  A    between atoms: C_2  and  C_3
REMARK    3  A    between atoms: C_2  and  C_4
REMARK    4  A    between atoms: C_4  and  C_5
REMARK    5  A    between atoms: C_5  and  C_6
REMARK    6  A    between atoms: C_6  and  C_7
REMARK    7  A    between atoms: C_7  and  C_9
REMARK    8  A    between atoms: C_7  and  C_10
REMARK    9  A    between atoms: C_10  and  C_11
REMARK   10  A    between atoms: C_11  and  C_12
REMARK   11  A    between atoms: C_12  and  C_13
REMARK   12  A    between atoms: C_13  and  C_15
REMARK   13  A    between atoms: C_13  and  C_16
REMARK   14  A    between atoms: C_16  and  C_17
REMARK   15  A    between atoms: C_17  and  C_18
REMARK   16  A    between atoms: C_18  and  C_19
REMARK   17  A    between atoms: C_19  and  C_20
REMARK   18  A    between atoms: C_26  and  C_27
REMARK   19  A    between atoms: C_28  and  C_29
REMARK   20  A    between atoms: C_30  and  O_31
REMARK   21  A    between atoms: C_32  and  C_33
REMARK                            x       y       z     vdW  Elec       q    Type
REMARK                         _______ _______ _______ _____ _____    ______ ____
ROOT
ATOM      1  C   UNL     1       7.830  -3.171  22.562  0.00  0.00    +0.048 C 
ENDROOT
BRANCH   1   2
ATOM      2  C   UNL     1       6.832  -4.285  22.955  0.00  0.00    +0.108 C 
ATOM      3  O   UNL     1       6.895  -4.436  24.380  0.00  0.00    -0.485 OA
ATOM      4  C   UNL     1       5.898  -5.178  24.972  0.00  0.00    +0.128 A 
ATOM      5  C   UNL     1       6.152  -5.612  26.291  0.00  0.00    -0.002 A 
ATOM      6  C   UNL     1       5.195  -6.421  26.949  0.00  0.00    -0.002 A 
ATOM      7  C   UNL     1       4.004  -6.753  26.269  0.00  0.00    +0.123 A 
ATOM      8  C   UNL     1       3.739  -6.301  24.967  0.00  0.00    -0.002 A 
ATOM      9  C   UNL     1       2.460  -6.676  24.261  0.00  0.00    +0.048 C 
ATOM     10  C   UNL     1       5.435  -6.939  28.344  0.00  0.00    +0.048 C 
ATOM     11  C   UNL     1       7.444  -5.231  26.975  0.00  0.00    +0.048 C 
ATOM     12  C   UNL     1       4.691  -5.487  24.319  0.00  0.00    +0.001 A 
ATOM     13  C   UNL     1       4.430  -4.991  22.918  0.00  0.00    +0.043 C 
ATOM     14  C   UNL     1       5.412  -3.905  22.527  0.00  0.00    +0.052 C 
ATOM     15  C   UNL     1       7.326  -5.586  22.281  0.00  0.00    +0.055 C 
BRANCH   7  16
ATOM     16  O   UNL     1       3.044  -7.537  26.854  0.00  0.00    -0.506 OA
ATOM     17  H   UNL     1       3.225  -7.636  27.799  0.00  0.00    +0.292 HD
ENDBRANCH   7  16
ENDBRANCH   1   2
BRANCH   1  18
ATOM     18  C   UNL     1       8.669  -2.597  23.711  0.00  0.00    +0.004 C 
BRANCH  18  19
ATOM     19  C   UNL     1       8.722  -1.062  23.692  0.00  0.00    +0.003 C 
BRANCH  19  20
ATOM     20  C   UNL     1      10.129  -0.468  23.481  0.00  0.00    -0.014 C 
ATOM     21  C   UNL     1      10.564   0.294  24.740  0.00  0.00    +0.007 C 
BRANCH  20  22
ATOM     22  C   UNL     1      10.181   0.413  22.216  0.00  0.00    +0.003 C 
BRANCH  22  23
ATOM     23  C   UNL     1       8.789   0.769  21.717  0.00  0.00    +0.001 C 
BRANCH  23  24
ATOM     24  C   UNL     1       8.447   2.240  21.941  0.00  0.00    +0.003 C 
BRANCH  24  25
ATOM     25  C   UNL     1       7.254   2.409  22.903  0.00  0.00    -0.014 C 
ATOM     26  C   UNL     1       6.290   3.504  22.421  0.00  0.00    +0.007 C 
BRANCH  25  27
ATOM     27  C   UNL     1       7.779   2.686  24.325  0.00  0.00    +0.003 C 
BRANCH  27  28
ATOM     28  C   UNL     1       9.017   3.581  24.302  0.00  0.00    +0.001 C 
BRANCH  28  29
ATOM     29  C   UNL     1       8.786   4.931  24.971  0.00  0.00    +0.003 C 
BRANCH  29  31
ATOM     30  C   UNL     1      10.761   5.732  23.648  0.00  0.00    +0.007 C 
ATOM     31  C   UNL     1       9.360   6.092  24.137  0.00  0.00    -0.017 C 
ATOM     32  C   UNL     1       8.474   6.461  22.941  0.00  0.00    +0.007 C 
ENDBRANCH  29  31
ENDBRANCH  28  29
ENDBRANCH  27  28
ENDBRANCH  25  27
ENDBRANCH  24  25
ENDBRANCH  23  24
ENDBRANCH  22  23
ENDBRANCH  20  22
ENDBRANCH  19  20
ENDBRANCH  18  19
ENDBRANCH   1  18
TORSDOF 13
ENDMDL
MODEL 7
REMARK VINA RESULT:      -5.6      2.333      7.941
REMARK  Name = 
REMARK  21 active torsions:
REMARK  status: ('A' for Active; 'I' for Inactive)
REMARK    1  A    between atoms: C_1  and  C_2
REMARK    2  A    between atoms: C_2  and  C_3
REMARK    3  A    between atoms: C_2  and  C_4
REMARK    4  A    between atoms: C_4  and  C_5
REMARK    5  A    between atoms: C_5  and  C_6
REMARK    6  A    between atoms: C_6  and  C_7
REMARK    7  A    between atoms: C_7  and  C_9
REMARK    8  A    between atoms: C_7  and  C_10
REMARK    9  A    between atoms: C_10  and  C_11
REMARK   10  A    between atoms: C_11  and  C_12
REMARK   11  A    between atoms: C_12  and  C_13
REMARK   12  A    between atoms: C_13  and  C_15
REMARK   13  A    between atoms: C_13  and  C_16
REMARK   14  A    between atoms: C_16  and  C_17
REMARK   15  A    between atoms: C_17  and  C_18
REMARK   16  A    between atoms: C_18  and  C_19
REMARK   17  A    between atoms: C_19  and  C_20
REMARK   18  A    between atoms: C_26  and  C_27
REMARK   19  A    between atoms: C_28  and  C_29
REMARK   20  A    between atoms: C_30  and  O_31
REMARK   21  A    between atoms: C_32  and  C_33
REMARK                            x       y       z     vdW  Elec       q    Type
REMARK                         _______ _______ _______ _____ _____    ______ ____
ROOT
ATOM      1  C   UNL     1       9.290  -3.746  24.576  0.00  0.00    +0.048 C 
ENDROOT
BRANCH   1   2
ATOM      2  C   UNL     1       8.040  -4.166  25.383  0.00  0.00    +0.108 C 
ATOM      3  O   UNL     1       7.177  -4.888  24.494  0.00  0.00    -0.485 OA
ATOM      4  C   UNL     1       6.138  -5.587  25.065  0.00  0.00    +0.128 A 
ATOM      5  C   UNL     1       5.109  -5.991  24.188  0.00  0.00    -0.002 A 
ATOM      6  C   UNL     1       3.984  -6.673  24.710  0.00  0.00    -0.002 A 
ATOM      7  C   UNL     1       3.934  -6.942  26.093  0.00  0.00    +0.123 A 
ATOM      8  C   UNL     1       4.968  -6.562  26.963  0.00  0.00    -0.002 A 
ATOM      9  C   UNL     1       4.887  -6.858  28.441  0.00  0.00    +0.048 C 
ATOM     10  C   UNL     1       2.842  -7.094  23.819  0.00  0.00    +0.048 C 
ATOM     11  C   UNL     1       5.208  -5.677  22.714  0.00  0.00    +0.048 C 
ATOM     12  C   UNL     1       6.092  -5.893  26.438  0.00  0.00    +0.001 A 
ATOM     13  C   UNL     1       7.215  -5.472  27.354  0.00  0.00    +0.043 C 
ATOM     14  C   UNL     1       8.440  -5.052  26.566  0.00  0.00    +0.052 C 
ATOM     15  C   UNL     1       7.338  -2.862  25.830  0.00  0.00    +0.055 C 
BRANCH   7  16
ATOM     16  O   UNL     1       2.867  -7.594  26.656  0.00  0.00    -0.506 OA
ATOM     17  H   UNL     1       2.604  -7.154  27.477  0.00  0.00    +0.292 HD
ENDBRANCH   7  16
ENDBRANCH   1   2
BRANCH   1  18
ATOM     18  C   UNL     1       9.486  -2.235  24.396  0.00  0.00    +0.004 C 
BRANCH  18  19
ATOM     19  C   UNL     1       9.777  -1.849  22.938  0.00  0.00    +0.003 C 
BRANCH  19  20
ATOM     20  C   UNL     1      10.432  -0.464  22.755  0.00  0.00    -0.014 C 
ATOM     21  C   UNL     1      10.535   0.244  24.111  0.00  0.00    +0.007 C 
BRANCH  20  22
ATOM     22  C   UNL     1       9.674   0.378  21.708  0.00  0.00    +0.003 C 
BRANCH  22  23
ATOM     23  C   UNL     1       9.647   1.852  22.080  0.00  0.00    +0.001 C 
BRANCH  23  24
ATOM     24  C   UNL     1       8.257   2.466  21.936  0.00  0.00    +0.003 C 
BRANCH  24  25
ATOM     25  C   UNL     1       8.086   3.710  22.829  0.00  0.00    -0.014 C 
ATOM     26  C   UNL     1       9.011   3.657  24.056  0.00  0.00    +0.007 C 
BRANCH  25  27
ATOM     27  C   UNL     1       6.604   3.853  23.228  0.00  0.00    +0.003 C 
BRANCH  27  28
ATOM     28  C   UNL     1       6.306   3.138  24.545  0.00  0.00    +0.001 C 
BRANCH  28  29
ATOM     29  C   UNL     1       5.396   1.928  24.370  0.00  0.00    +0.003 C 
BRANCH  29  31
ATOM     30  C   UNL     1       6.499  -0.192  23.607  0.00  0.00    +0.007 C 
ATOM     31  C   UNL     1       6.079   0.624  24.827  0.00  0.00    -0.017 C 
ATOM     32  C   UNL     1       7.294   0.872  25.727  0.00  0.00    +0.007 C 
ENDBRANCH  29  31
ENDBRANCH  28  29
ENDBRANCH  27  28
ENDBRANCH  25  27
ENDBRANCH  24  25
ENDBRANCH  23  24
ENDBRANCH  22  23
ENDBRANCH  20  22
ENDBRANCH  19  20
ENDBRANCH  18  19
ENDBRANCH   1  18
TORSDOF 13
ENDMDL
MODEL 8
REMARK VINA RESULT:      -5.6      2.358      7.561
REMARK  Name = 
REMARK  21 active torsions:
REMARK  status: ('A' for Active; 'I' for Inactive)
REMARK    1  A    between atoms: C_1  and  C_2
REMARK    2  A    between atoms: C_2  and  C_3
REMARK    3  A    between atoms: C_2  and  C_4
REMARK    4  A    between atoms: C_4  and  C_5
REMARK    5  A    between atoms: C_5  and  C_6
REMARK    6  A    between atoms: C_6  and  C_7
REMARK    7  A    between atoms: C_7  and  C_9
REMARK    8  A    between atoms: C_7  and  C_10
REMARK    9  A    between atoms: C_10  and  C_11
REMARK   10  A    between atoms: C_11  and  C_12
REMARK   11  A    between atoms: C_12  and  C_13
REMARK   12  A    between atoms: C_13  and  C_15
REMARK   13  A    between atoms: C_13  and  C_16
REMARK   14  A    between atoms: C_16  and  C_17
REMARK   15  A    between atoms: C_17  and  C_18
REMARK   16  A    between atoms: C_18  and  C_19
REMARK   17  A    between atoms: C_19  and  C_20
REMARK   18  A    between atoms: C_26  and  C_27
REMARK   19  A    between atoms: C_28  and  C_29
REMARK   20  A    between atoms: C_30  and  O_31
REMARK   21  A    between atoms: C_32  and  C_33
REMARK                            x       y       z     vdW  Elec       q    Type
REMARK                         _______ _______ _______ _____ _____    ______ ____
ROOT
ATOM      1  C   UNL     1       7.780  -3.061  22.836  0.00  0.00    +0.048 C 
ENDROOT
BRANCH   1   2
ATOM      2  C   UNL     1       6.793  -4.206  23.162  0.00  0.00    +0.108 C 
ATOM      3  O   UNL     1       6.802  -4.388  24.585  0.00  0.00    -0.485 OA
ATOM      4  C   UNL     1       5.800  -5.167  25.119  0.00  0.00    +0.128 A 
ATOM      5  C   UNL     1       6.011  -5.626  26.437  0.00  0.00    -0.002 A 
ATOM      6  C   UNL     1       5.047  -6.471  27.037  0.00  0.00    -0.002 A 
ATOM      7  C   UNL     1       3.894  -6.815  26.302  0.00  0.00    +0.123 A 
ATOM      8  C   UNL     1       3.671  -6.339  25.000  0.00  0.00    -0.002 A 
ATOM      9  C   UNL     1       2.430  -6.727  24.234  0.00  0.00    +0.048 C 
ATOM     10  C   UNL     1       5.243  -7.016  28.429  0.00  0.00    +0.048 C 
ATOM     11  C   UNL     1       7.265  -5.231  27.182  0.00  0.00    +0.048 C 
ATOM     12  C   UNL     1       4.628  -5.489  24.410  0.00  0.00    +0.001 A 
ATOM     13  C   UNL     1       4.412  -4.966  23.011  0.00  0.00    +0.043 C 
ATOM     14  C   UNL     1       5.383  -3.849  22.685  0.00  0.00    +0.052 C 
ATOM     15  C   UNL     1       7.346  -5.479  22.481  0.00  0.00    +0.055 C 
BRANCH   7  16
ATOM     16  O   UNL     1       2.929  -7.634  26.829  0.00  0.00    -0.506 OA
ATOM     17  H   UNL     1       3.265  -8.539  26.904  0.00  0.00    +0.292 HD
ENDBRANCH   7  16
ENDBRANCH   1   2
BRANCH   1  18
ATOM     18  C   UNL     1       7.894  -1.961  23.899  0.00  0.00    +0.004 C 
BRANCH  18  19
ATOM     19  C   UNL     1       9.318  -1.831  24.460  0.00  0.00    +0.003 C 
BRANCH  19  20
ATOM     20  C   UNL     1       9.492  -0.737  25.533  0.00  0.00    -0.014 C 
ATOM     21  C   UNL     1       8.549  -1.012  26.711  0.00  0.00    +0.007 C 
BRANCH  20  22
ATOM     22  C   UNL     1       9.289   0.670  24.935  0.00  0.00    +0.003 C 
BRANCH  22  23
ATOM     23  C   UNL     1      10.503   1.129  24.142  0.00  0.00    +0.001 C 
BRANCH  23  24
ATOM     24  C   UNL     1      10.122   1.785  22.818  0.00  0.00    +0.003 C 
BRANCH  24  25
ATOM     25  C   UNL     1       8.933   1.071  22.147  0.00  0.00    -0.014 C 
ATOM     26  C   UNL     1       9.404  -0.059  21.217  0.00  0.00    +0.007 C 
BRANCH  25  27
ATOM     27  C   UNL     1       8.065   2.107  21.406  0.00  0.00    +0.003 C 
BRANCH  27  28
ATOM     28  C   UNL     1       6.966   2.666  22.307  0.00  0.00    +0.001 C 
BRANCH  28  29
ATOM     29  C   UNL     1       7.276   4.066  22.822  0.00  0.00    +0.003 C 
BRANCH  29  31
ATOM     30  C   UNL     1       6.412   2.922  24.881  0.00  0.00    +0.007 C 
ATOM     31  C   UNL     1       7.133   4.160  24.353  0.00  0.00    -0.017 C 
ATOM     32  C   UNL     1       8.480   4.316  25.069  0.00  0.00    +0.007 C 
ENDBRANCH  29  31
ENDBRANCH  28  29
ENDBRANCH  27  28
ENDBRANCH  25  27
ENDBRANCH  24  25
ENDBRANCH  23  24
ENDBRANCH  22  23
ENDBRANCH  20  22
ENDBRANCH  19  20
ENDBRANCH  18  19
ENDBRANCH   1  18
TORSDOF 13
ENDMDL
MODEL 9
REMARK VINA RESULT:      -5.6      1.701      3.957
REMARK  Name = 
REMARK  21 active torsions:
REMARK  status: ('A' for Active; 'I' for Inactive)
REMARK    1  A    between atoms: C_1  and  C_2
REMARK    2  A    between atoms: C_2  and  C_3
REMARK    3  A    between atoms: C_2  and  C_4
REMARK    4  A    between atoms: C_4  and  C_5
REMARK    5  A    between atoms: C_5  and  C_6
REMARK    6  A    between atoms: C_6  and  C_7
REMARK    7  A    between atoms: C_7  and  C_9
REMARK    8  A    between atoms: C_7  and  C_10
REMARK    9  A    between atoms: C_10  and  C_11
REMARK   10  A    between atoms: C_11  and  C_12
REMARK   11  A    between atoms: C_12  and  C_13
REMARK   12  A    between atoms: C_13  and  C_15
REMARK   13  A    between atoms: C_13  and  C_16
REMARK   14  A    between atoms: C_16  and  C_17
REMARK   15  A    between atoms: C_17  and  C_18
REMARK   16  A    between atoms: C_18  and  C_19
REMARK   17  A    between atoms: C_19  and  C_20
REMARK   18  A    between atoms: C_26  and  C_27
REMARK   19  A    between atoms: C_28  and  C_29
REMARK   20  A    between atoms: C_30  and  O_31
REMARK   21  A    between atoms: C_32  and  C_33
REMARK                            x       y       z     vdW  Elec       q    Type
REMARK                         _______ _______ _______ _____ _____    ______ ____
ROOT
ATOM      1  C   UNL     1       8.278  -0.866  23.174  0.00  0.00    +0.048 C 
ENDROOT
BRANCH   1   2
ATOM      2  C   UNL     1       8.817   0.568  22.969  0.00  0.00    +0.108 C 
ATOM      3  O   UNL     1       7.699   1.463  23.050  0.00  0.00    -0.485 OA
ATOM      4  C   UNL     1       7.984   2.805  23.168  0.00  0.00    +0.128 A 
ATOM      5  C   UNL     1       6.917   3.688  22.895  0.00  0.00    -0.002 A 
ATOM      6  C   UNL     1       7.146   5.084  22.948  0.00  0.00    -0.002 A 
ATOM      7  C   UNL     1       8.432   5.549  23.291  0.00  0.00    +0.123 A 
ATOM      8  C   UNL     1       9.487   4.673  23.588  0.00  0.00    -0.002 A 
ATOM      9  C   UNL     1      10.855   5.197  23.947  0.00  0.00    +0.048 C 
ATOM     10  C   UNL     1       6.049   6.069  22.630  0.00  0.00    +0.048 C 
ATOM     11  C   UNL     1       5.558   3.140  22.530  0.00  0.00    +0.048 C 
ATOM     12  C   UNL     1       9.253   3.283  23.544  0.00  0.00    +0.001 A 
ATOM     13  C   UNL     1      10.371   2.319  23.856  0.00  0.00    +0.043 C 
ATOM     14  C   UNL     1       9.847   0.911  24.049  0.00  0.00    +0.052 C 
ATOM     15  C   UNL     1       9.412   0.622  21.544  0.00  0.00    +0.055 C 
BRANCH   7  16
ATOM     16  O   UNL     1       8.713   6.890  23.353  0.00  0.00    -0.506 OA
ATOM     17  H   UNL     1       9.170   7.097  24.181  0.00  0.00    +0.292 HD
ENDBRANCH   7  16
ENDBRANCH   1   2
BRANCH   1  18
ATOM     18  C   UNL     1       8.558  -1.491  24.548  0.00  0.00    +0.004 C 
BRANCH  18  19
ATOM     19  C   UNL     1       9.104  -2.923  24.443  0.00  0.00    +0.003 C 
BRANCH  19  20
ATOM     20  C   UNL     1       8.977  -3.758  25.733  0.00  0.00    -0.014 C 
ATOM     21  C   UNL     1       9.549  -5.162  25.501  0.00  0.00    +0.007 C 
BRANCH  20  22
ATOM     22  C   UNL     1       7.519  -3.793  26.235  0.00  0.00    +0.003 C 
BRANCH  22  23
ATOM     23  C   UNL     1       6.952  -5.204  26.229  0.00  0.00    +0.001 C 
BRANCH  23  24
ATOM     24  C   UNL     1       5.545  -5.266  25.641  0.00  0.00    +0.003 C 
BRANCH  24  25
ATOM     25  C   UNL     1       5.088  -3.893  25.109  0.00  0.00    -0.014 C 
ATOM     26  C   UNL     1       3.967  -3.296  25.975  0.00  0.00    +0.007 C 
BRANCH  25  27
ATOM     27  C   UNL     1       4.668  -4.031  23.633  0.00  0.00    +0.003 C 
BRANCH  27  28
ATOM     28  C   UNL     1       5.455  -3.080  22.734  0.00  0.00    +0.001 C 
BRANCH  28  29
ATOM     29  C   UNL     1       6.524  -3.789  21.911  0.00  0.00    +0.003 C 
BRANCH  29  31
ATOM     30  C   UNL     1       6.062  -5.902  20.641  0.00  0.00    +0.007 C 
ATOM     31  C   UNL     1       6.404  -5.321  22.011  0.00  0.00    -0.017 C 
ATOM     32  C   UNL     1       7.677  -5.984  22.550  0.00  0.00    +0.007 C 
ENDBRANCH  29  31
ENDBRANCH  28  29
ENDBRANCH  27  28
ENDBRANCH  25  27
ENDBRANCH  24  25
ENDBRANCH  23  24
ENDBRANCH  22  23
ENDBRANCH  20  22
ENDBRANCH  19  20
ENDBRANCH  18  19
ENDBRANCH   1  18
TORSDOF 13
ENDMDL
