MODEL 1
REMARK VINA RESULT:      -4.7      0.000      0.000
REMARK  Name = 
REMARK  9 active torsions:
REMARK  status: ('A' for Active; 'I' for Inactive)
REMARK    1  A    between atoms: C_1  and  N_2
REMARK    2  A    between atoms: N_4  and  C_5
REMARK    3  A    between atoms: C_5  and  C_6
REMARK    4  A    between atoms: C_6  and  C_7
REMARK    5  A    between atoms: C_7  and  CA_8
REMARK    6  A    between atoms: CA_8  and  N_10
REMARK    7  A    between atoms: CA_8  and  C_11
REMARK    8  A    between atoms: C_11  and  O_12
REMARK    9  A    between atoms: N_14  and  C_15
REMARK                            x       y       z     vdW  Elec       q    Type
REMARK                         _______ _______ _______ _____ _____    ______ ____
ROOT
ATOM      1  C   UNL     1       7.342  -2.892  26.610  0.00  0.00    +0.039 C 
ENDROOT
BRANCH   1   2
ATOM      2  C   UNL     1       7.701  -1.484  26.118  0.00  0.00    +0.196 C 
BRANCH   2   9
ATOM      3  C   UNL     1       8.838  -1.756  21.976  0.00  0.00    +0.239 C 
ATOM      4  N   UNL     1       9.529  -1.009  22.993  0.00  0.00    -0.279 N 
ATOM      5  H   UNL     1      10.272  -0.419  22.642  0.00  0.00    +0.258 HD
ATOM      6  C   UNL     1       9.176  -0.795  24.293  0.00  0.00    +0.381 C 
ATOM      7  N   UNL     1       9.797  -0.017  25.109  0.00  0.00    -0.117 NA
ATOM      8  C   UNL     1      10.982   0.697  24.668  0.00  0.00    +0.291 C 
ATOM      9  N   UNL     1       8.065  -1.481  24.707  0.00  0.00    -0.276 N 
ATOM     10  H   UNL     1       7.896  -2.350  24.224  0.00  0.00    +0.258 HD
ENDBRANCH   2   9
ENDBRANCH   1   2
BRANCH   1  11
ATOM     11  C   UNL     1       7.249  -3.861  25.416  0.00  0.00    +0.033 C 
BRANCH  11  12
ATOM     12  CA  UNL     1       8.112  -5.125  25.514  0.00  0.00    +0.161 C 
BRANCH  12  13
ATOM     13  N   UNL     1       8.072  -5.723  26.879  0.00  0.00    -0.318 NA
ATOM     14  H1  UNL     1       7.210  -6.272  26.954  0.00  0.00    +0.119 HD
ATOM     15  H2  UNL     1       8.816  -6.430  26.927  0.00  0.00    +0.119 HD
ENDBRANCH  12  13
BRANCH  12  16
ATOM     16  C   UNL     1       9.569  -4.825  25.145  0.00  0.00    +0.322 C 
ATOM     17  OXT UNL     1       9.937  -3.935  24.396  0.00  0.00    -0.249 OA
BRANCH  16  18
ATOM     18  O   UNL     1      10.423  -5.673  25.782  0.00  0.00    -0.480 OA
ATOM     19  H   UNL     1      10.424  -6.505  25.250  0.00  0.00    +0.295 HD
ENDBRANCH  16  18
ENDBRANCH  12  16
ENDBRANCH  11  12
ENDBRANCH   1  11
TORSDOF 7
ENDMDL
MODEL 2
REMARK VINA RESULT:      -4.7      3.435      5.514
REMARK  Name = 
REMARK  9 active torsions:
REMARK  status: ('A' for Active; 'I' for Inactive)
REMARK    1  A    between atoms: C_1  and  N_2
REMARK    2  A    between atoms: N_4  and  C_5
REMARK    3  A    between atoms: C_5  and  C_6
REMARK    4  A    between atoms: C_6  and  C_7
REMARK    5  A    between atoms: C_7  and  CA_8
REMARK    6  A    between atoms: CA_8  and  N_10
REMARK    7  A    between atoms: CA_8  and  C_11
REMARK    8  A    between atoms: C_11  and  O_12
REMARK    9  A    between atoms: N_14  and  C_15
REMARK                            x       y       z     vdW  Elec       q    Type
REMARK                         _______ _______ _______ _____ _____    ______ ____
ROOT
ATOM      1  C   UNL     1      10.084  -0.076  24.907  0.00  0.00    +0.039 C 
ENDROOT
BRANCH   1   2
ATOM      2  C   UNL     1       8.752  -0.836  24.910  0.00  0.00    +0.196 C 
BRANCH   2   9
ATOM      3  C   UNL     1       9.604  -5.004  25.562  0.00  0.00    +0.239 C 
ATOM      4  N   UNL     1       8.877  -4.456  24.448  0.00  0.00    -0.279 N 
ATOM      5  H   UNL     1       8.448  -5.150  23.851  0.00  0.00    +0.258 HD
ATOM      6  C   UNL     1       8.484  -3.169  24.226  0.00  0.00    +0.381 C 
ATOM      7  N   UNL     1       7.736  -2.782  23.252  0.00  0.00    -0.117 NA
ATOM      8  C   UNL     1       7.263  -3.747  22.276  0.00  0.00    +0.291 C 
ATOM      9  N   UNL     1       8.945  -2.261  25.143  0.00  0.00    -0.276 N 
ATOM     10  H   UNL     1       9.820  -2.505  25.582  0.00  0.00    +0.258 HD
ENDBRANCH   2   9
ENDBRANCH   1   2
BRANCH   1  11
ATOM     11  C   UNL     1      10.487   0.278  23.462  0.00  0.00    +0.033 C 
BRANCH  11  12
ATOM     12  CA  UNL     1       9.392   0.108  22.403  0.00  0.00    +0.161 C 
BRANCH  12  13
ATOM     13  N   UNL     1       9.761  -0.908  21.376  0.00  0.00    -0.318 NA
ATOM     14  H1  UNL     1      10.181  -0.411  20.585  0.00  0.00    +0.119 HD
ATOM     15  H2  UNL     1      10.538  -1.461  21.757  0.00  0.00    +0.119 HD
ENDBRANCH  12  13
BRANCH  12  16
ATOM     16  C   UNL     1       9.096   1.439  21.701  0.00  0.00    +0.322 C 
ATOM     17  OXT UNL     1       8.000   1.797  21.304  0.00  0.00    -0.249 OA
BRANCH  16  18
ATOM     18  O   UNL     1      10.221   2.198  21.591  0.00  0.00    -0.480 OA
ATOM     19  H   UNL     1      10.643   1.932  20.738  0.00  0.00    +0.295 HD
ENDBRANCH  16  18
ENDBRANCH  12  16
ENDBRANCH  11  12
ENDBRANCH   1  11
TORSDOF 7
ENDMDL
MODEL 3
REMARK VINA RESULT:      -4.6      2.922      5.713
REMARK  Name = 
REMARK  9 active torsions:
REMARK  status: ('A' for Active; 'I' for Inactive)
REMARK    1  A    between atoms: C_1  and  N_2
REMARK    2  A    between atoms: N_4  and  C_5
REMARK    3  A    between atoms: C_5  and  C_6
REMARK    4  A    between atoms: C_6  and  C_7
REMARK    5  A    between atoms: C_7  and  CA_8
REMARK    6  A    between atoms: CA_8  and  N_10
REMARK    7  A    between atoms: CA_8  and  C_11
REMARK    8  A    between atoms: C_11  and  O_12
REMARK    9  A    between atoms: N_14  and  C_15
REMARK                            x       y       z     vdW  Elec       q    Type
REMARK                         _______ _______ _______ _____ _____    ______ ____
ROOT
ATOM      1  C   UNL     1       9.851  -0.747  21.971  0.00  0.00    +0.039 C 
ENDROOT
BRANCH   1   2
ATOM      2  C   UNL     1      10.185  -1.865  22.965  0.00  0.00    +0.196 C 
BRANCH   2   9
ATOM      3  C   UNL     1       7.850  -1.543  26.566  0.00  0.00    +0.239 C 
ATOM      4  N   UNL     1       8.497  -2.734  26.084  0.00  0.00    -0.279 N 
ATOM      5  H   UNL     1       8.265  -3.572  26.602  0.00  0.00    +0.258 HD
ATOM      6  C   UNL     1       9.164  -2.937  24.912  0.00  0.00    +0.381 C 
ATOM      7  N   UNL     1       9.620  -4.072  24.507  0.00  0.00    -0.117 NA
ATOM      8  C   UNL     1       9.454  -5.254  25.333  0.00  0.00    +0.291 C 
ATOM      9  N   UNL     1       9.329  -1.816  24.143  0.00  0.00    -0.276 N 
ATOM     10  H   UNL     1       9.364  -0.948  24.656  0.00  0.00    +0.258 HD
ENDBRANCH   2   9
ENDBRANCH   1   2
BRANCH   1  11
ATOM     11  C   UNL     1       8.735   0.151  22.541  0.00  0.00    +0.033 C 
BRANCH  11  12
ATOM     12  CA  UNL     1       9.106   1.625  22.747  0.00  0.00    +0.161 C 
BRANCH  12  13
ATOM     13  N   UNL     1       9.706   2.226  21.522  0.00  0.00    -0.318 NA
ATOM     14  H1  UNL     1       8.948   2.650  20.980  0.00  0.00    +0.119 HD
ATOM     15  H2  UNL     1      10.272   3.030  21.820  0.00  0.00    +0.119 HD
ENDBRANCH  12  13
BRANCH  12  16
ATOM     16  C   UNL     1      10.089   1.785  23.913  0.00  0.00    +0.322 C 
ATOM     17  OXT UNL     1      11.136   2.409  23.870  0.00  0.00    -0.249 OA
BRANCH  16  18
ATOM     18  O   UNL     1       9.635   1.151  25.029  0.00  0.00    -0.480 OA
ATOM     19  H   UNL     1      10.111   0.286  25.061  0.00  0.00    +0.295 HD
ENDBRANCH  16  18
ENDBRANCH  12  16
ENDBRANCH  11  12
ENDBRANCH   1  11
TORSDOF 7
ENDMDL
MODEL 4
REMARK VINA RESULT:      -4.6      2.880      4.228
REMARK  Name = 
REMARK  9 active torsions:
REMARK  status: ('A' for Active; 'I' for Inactive)
REMARK    1  A    between atoms: C_1  and  N_2
REMARK    2  A    between atoms: N_4  and  C_5
REMARK    3  A    between atoms: C_5  and  C_6
REMARK    4  A    between atoms: C_6  and  C_7
REMARK    5  A    between atoms: C_7  and  CA_8
REMARK    6  A    between atoms: CA_8  and  N_10
REMARK    7  A    between atoms: CA_8  and  C_11
REMARK    8  A    between atoms: C_11  and  O_12
REMARK    9  A    between atoms: N_14  and  C_15
REMARK                            x       y       z     vdW  Elec       q    Type
REMARK                         _______ _______ _______ _____ _____    ______ ____
ROOT
ATOM      1  C   UNL     1       9.514  -3.111  24.140  0.00  0.00    +0.039 C 
ENDROOT
BRANCH   1   2
ATOM      2  C   UNL     1       8.554  -2.544  23.088  0.00  0.00    +0.196 C 
BRANCH   2   9
ATOM      3  C   UNL     1       4.531  -3.357  24.383  0.00  0.00    +0.239 C 
ATOM      4  N   UNL     1       5.258  -4.087  23.379  0.00  0.00    -0.279 N 
ATOM      5  H   UNL     1       4.703  -4.768  22.877  0.00  0.00    +0.258 HD
ATOM      6  C   UNL     1       6.487  -3.829  22.848  0.00  0.00    +0.381 C 
ATOM      7  N   UNL     1       7.020  -4.472  21.867  0.00  0.00    -0.117 NA
ATOM      8  C   UNL     1       6.305  -5.579  21.256  0.00  0.00    +0.291 C 
ATOM      9  N   UNL     1       7.162  -2.792  23.437  0.00  0.00    -0.276 N 
ATOM     10  H   UNL     1       6.932  -2.631  24.406  0.00  0.00    +0.258 HD
ENDBRANCH   2   9
ENDBRANCH   1   2
BRANCH   1  11
ATOM     11  C   UNL     1       8.774  -3.318  25.475  0.00  0.00    +0.033 C 
BRANCH  11  12
ATOM     12  CA  UNL     1       9.068  -4.635  26.204  0.00  0.00    +0.161 C 
BRANCH  12  13
ATOM     13  N   UNL     1      10.015  -5.496  25.440  0.00  0.00    -0.318 NA
ATOM     14  H1  UNL     1       9.990  -6.432  25.857  0.00  0.00    +0.119 HD
ATOM     15  H2  UNL     1       9.617  -5.635  24.504  0.00  0.00    +0.119 HD
ENDBRANCH  12  13
BRANCH  12  16
ATOM     16  C   UNL     1       7.777  -5.421  26.460  0.00  0.00    +0.322 C 
ATOM     17  OXT UNL     1       6.872  -5.569  25.656  0.00  0.00    -0.249 OA
BRANCH  16  18
ATOM     18  O   UNL     1       7.769  -5.960  27.710  0.00  0.00    -0.480 OA
ATOM     19  H   UNL     1       8.476  -6.651  27.711  0.00  0.00    +0.295 HD
ENDBRANCH  16  18
ENDBRANCH  12  16
ENDBRANCH  11  12
ENDBRANCH   1  11
TORSDOF 7
ENDMDL
MODEL 5
REMARK VINA RESULT:      -4.5      2.871      5.447
REMARK  Name = 
REMARK  9 active torsions:
REMARK  status: ('A' for Active; 'I' for Inactive)
REMARK    1  A    between atoms: C_1  and  N_2
REMARK    2  A    between atoms: N_4  and  C_5
REMARK    3  A    between atoms: C_5  and  C_6
REMARK    4  A    between atoms: C_6  and  C_7
REMARK    5  A    between atoms: C_7  and  CA_8
REMARK    6  A    between atoms: CA_8  and  N_10
REMARK    7  A    between atoms: CA_8  and  C_11
REMARK    8  A    between atoms: C_11  and  O_12
REMARK    9  A    between atoms: N_14  and  C_15
REMARK                            x       y       z     vdW  Elec       q    Type
REMARK                         _______ _______ _______ _____ _____    ______ ____
ROOT
ATOM      1  C   UNL     1      10.167  -0.104  24.736  0.00  0.00    +0.039 C 
ENDROOT
BRANCH   1   2
ATOM      2  C   UNL     1       9.003  -0.959  25.250  0.00  0.00    +0.196 C 
BRANCH   2   9
ATOM      3  C   UNL     1       7.065  -3.330  22.226  0.00  0.00    +0.239 C 
ATOM      4  N   UNL     1       7.827  -3.837  23.335  0.00  0.00    -0.279 N 
ATOM      5  H   UNL     1       7.996  -4.834  23.302  0.00  0.00    +0.258 HD
ATOM      6  C   UNL     1       8.548  -3.153  24.268  0.00  0.00    +0.381 C 
ATOM      7  N   UNL     1       9.297  -3.693  25.167  0.00  0.00    -0.117 NA
ATOM      8  C   UNL     1       9.402  -5.138  25.247  0.00  0.00    +0.291 C 
ATOM      9  N   UNL     1       8.436  -1.789  24.196  0.00  0.00    -0.276 N 
ATOM     10  H   UNL     1       7.564  -1.454  23.814  0.00  0.00    +0.258 HD
ENDBRANCH   2   9
ENDBRANCH   1   2
BRANCH   1  11
ATOM     11  C   UNL     1       9.632   1.054  23.872  0.00  0.00    +0.033 C 
BRANCH  11  12
ATOM     12  CA  UNL     1      10.203   1.146  22.452  0.00  0.00    +0.161 C 
BRANCH  12  13
ATOM     13  N   UNL     1      10.331   2.558  21.992  0.00  0.00    -0.318 NA
ATOM     14  H1  UNL     1       9.536   3.081  22.370  0.00  0.00    +0.119 HD
ATOM     15  H2  UNL     1      11.142   2.965  22.473  0.00  0.00    +0.119 HD
ENDBRANCH  12  13
BRANCH  12  16
ATOM     16  C   UNL     1       9.325   0.376  21.457  0.00  0.00    +0.322 C 
ATOM     17  OXT UNL     1       9.278  -0.838  21.352  0.00  0.00    -0.249 OA
BRANCH  16  18
ATOM     18  O   UNL     1       8.575   1.226  20.703  0.00  0.00    -0.480 OA
ATOM     19  H   UNL     1       7.637   1.068  20.970  0.00  0.00    +0.295 HD
ENDBRANCH  16  18
ENDBRANCH  12  16
ENDBRANCH  11  12
ENDBRANCH   1  11
TORSDOF 7
ENDMDL
MODEL 6
REMARK VINA RESULT:      -4.5      1.827      2.501
REMARK  Name = 
REMARK  9 active torsions:
REMARK  status: ('A' for Active; 'I' for Inactive)
REMARK    1  A    between atoms: C_1  and  N_2
REMARK    2  A    between atoms: N_4  and  C_5
REMARK    3  A    between atoms: C_5  and  C_6
REMARK    4  A    between atoms: C_6  and  C_7
REMARK    5  A    between atoms: C_7  and  CA_8
REMARK    6  A    between atoms: CA_8  and  N_10
REMARK    7  A    between atoms: CA_8  and  C_11
REMARK    8  A    between atoms: C_11  and  O_12
REMARK    9  A    between atoms: N_14  and  C_15
REMARK                            x       y       z     vdW  Elec       q    Type
REMARK                         _______ _______ _______ _____ _____    ______ ____
ROOT
ATOM      1  C   UNL     1       6.817  -4.968  23.181  0.00  0.00    +0.039 C 
ENDROOT
BRANCH   1   2
ATOM      2  C   UNL     1       6.469  -3.668  22.445  0.00  0.00    +0.196 C 
BRANCH   2   9
ATOM      3  C   UNL     1      10.051  -1.298  22.174  0.00  0.00    +0.239 C 
ATOM      4  N   UNL     1       8.831  -0.910  22.830  0.00  0.00    -0.279 N 
ATOM      5  H   UNL     1       8.814   0.052  23.141  0.00  0.00    +0.258 HD
ATOM      6  C   UNL     1       7.632  -1.559  22.871  0.00  0.00    +0.381 C 
ATOM      7  N   UNL     1       6.553  -1.086  23.389  0.00  0.00    -0.117 NA
ATOM      8  C   UNL     1       6.563   0.227  24.008  0.00  0.00    +0.291 C 
ATOM      9  N   UNL     1       7.632  -2.803  22.297  0.00  0.00    -0.276 N 
ATOM     10  H   UNL     1       8.521  -3.281  22.315  0.00  0.00    +0.258 HD
ENDBRANCH   2   9
ENDBRANCH   1   2
BRANCH   1  11
ATOM     11  C   UNL     1       7.077  -4.678  24.672  0.00  0.00    +0.033 C 
BRANCH  11  12
ATOM     12  CA  UNL     1       8.228  -5.462  25.313  0.00  0.00    +0.161 C 
BRANCH  12  13
ATOM     13  N   UNL     1       8.055  -5.604  26.787  0.00  0.00    -0.318 NA
ATOM     14  H1  UNL     1       8.011  -6.605  27.000  0.00  0.00    +0.119 HD
ATOM     15  H2  UNL     1       8.929  -5.298  27.230  0.00  0.00    +0.119 HD
ENDBRANCH  12  13
BRANCH  12  16
ATOM     16  C   UNL     1       9.576  -4.785  25.034  0.00  0.00    +0.322 C 
ATOM     17  OXT UNL     1       9.723  -3.727  24.447  0.00  0.00    -0.249 OA
BRANCH  16  18
ATOM     18  O   UNL     1      10.606  -5.512  25.546  0.00  0.00    -0.480 OA
ATOM     19  H   UNL     1      11.398  -4.922  25.507  0.00  0.00    +0.295 HD
ENDBRANCH  16  18
ENDBRANCH  12  16
ENDBRANCH  11  12
ENDBRANCH   1  11
TORSDOF 7
ENDMDL
MODEL 7
REMARK VINA RESULT:      -4.4      3.323      5.806
REMARK  Name = 
REMARK  9 active torsions:
REMARK  status: ('A' for Active; 'I' for Inactive)
REMARK    1  A    between atoms: C_1  and  N_2
REMARK    2  A    between atoms: N_4  and  C_5
REMARK    3  A    between atoms: C_5  and  C_6
REMARK    4  A    between atoms: C_6  and  C_7
REMARK    5  A    between atoms: C_7  and  CA_8
REMARK    6  A    between atoms: CA_8  and  N_10
REMARK    7  A    between atoms: CA_8  and  C_11
REMARK    8  A    between atoms: C_11  and  O_12
REMARK    9  A    between atoms: N_14  and  C_15
REMARK                            x       y       z     vdW  Elec       q    Type
REMARK                         _______ _______ _______ _____ _____    ______ ____
ROOT
ATOM      1  C   UNL     1      10.435  -0.522  22.623  0.00  0.00    +0.039 C 
ENDROOT
BRANCH   1   2
ATOM      2  C   UNL     1       9.839  -1.377  23.747  0.00  0.00    +0.196 C 
BRANCH   2   9
ATOM      3  C   UNL     1       6.609  -3.878  22.394  0.00  0.00    +0.239 C 
ATOM      4  N   UNL     1       7.584  -4.227  23.391  0.00  0.00    -0.279 N 
ATOM      5  H   UNL     1       7.543  -5.191  23.693  0.00  0.00    +0.258 HD
ATOM      6  C   UNL     1       8.686  -3.534  23.797  0.00  0.00    +0.381 C 
ATOM      7  N   UNL     1       9.574  -3.971  24.621  0.00  0.00    -0.117 NA
ATOM      8  C   UNL     1       9.428  -5.292  25.207  0.00  0.00    +0.291 C 
ATOM      9  N   UNL     1       8.812  -2.283  23.251  0.00  0.00    -0.276 N 
ATOM     10  H   UNL     1       7.943  -1.840  22.995  0.00  0.00    +0.258 HD
ENDBRANCH   2   9
ENDBRANCH   1   2
BRANCH   1  11
ATOM     11  C   UNL     1       9.378  -0.275  21.529  0.00  0.00    +0.033 C 
BRANCH  11  12
ATOM     12  CA  UNL     1       8.883   1.170  21.394  0.00  0.00    +0.161 C 
BRANCH  12  13
ATOM     13  N   UNL     1       9.962   2.159  21.674  0.00  0.00    -0.318 NA
ATOM     14  H1  UNL     1      10.700   1.675  22.195  0.00  0.00    +0.119 HD
ATOM     15  H2  UNL     1      10.409   2.389  20.778  0.00  0.00    +0.119 HD
ENDBRANCH  12  13
BRANCH  12  16
ATOM     16  C   UNL     1       7.706   1.437  22.340  0.00  0.00    +0.322 C 
ATOM     17  OXT UNL     1       7.378   2.533  22.763  0.00  0.00    -0.249 OA
BRANCH  16  18
ATOM     18  O   UNL     1       7.046   0.285  22.641  0.00  0.00    -0.480 OA
ATOM     19  H   UNL     1       6.107   0.546  22.805  0.00  0.00    +0.295 HD
ENDBRANCH  16  18
ENDBRANCH  12  16
ENDBRANCH  11  12
ENDBRANCH   1  11
TORSDOF 7
ENDMDL
MODEL 8
REMARK VINA RESULT:      -4.4      2.315      2.903
REMARK  Name = 
REMARK  9 active torsions:
REMARK  status: ('A' for Active; 'I' for Inactive)
REMARK    1  A    between atoms: C_1  and  N_2
REMARK    2  A    between atoms: N_4  and  C_5
REMARK    3  A    between atoms: C_5  and  C_6
REMARK    4  A    between atoms: C_6  and  C_7
REMARK    5  A    between atoms: C_7  and  CA_8
REMARK    6  A    between atoms: CA_8  and  N_10
REMARK    7  A    between atoms: CA_8  and  C_11
REMARK    8  A    between atoms: C_11  and  O_12
REMARK    9  A    between atoms: N_14  and  C_15
REMARK                            x       y       z     vdW  Elec       q    Type
REMARK                         _______ _______ _______ _____ _____    ______ ____
ROOT
ATOM      1  C   UNL     1       6.267  -3.825  23.871  0.00  0.00    +0.039 C 
ENDROOT
BRANCH   1   2
ATOM      2  C   UNL     1       6.213  -2.855  22.684  0.00  0.00    +0.196 C 
BRANCH   2   9
ATOM      3  C   UNL     1       6.402   1.304  23.772  0.00  0.00    +0.239 C 
ATOM      4  N   UNL     1       7.410   0.575  23.050  0.00  0.00    -0.279 N 
ATOM      5  H   UNL     1       8.270   1.087  22.904  0.00  0.00    +0.258 HD
ATOM      6  C   UNL     1       7.466  -0.756  22.759  0.00  0.00    +0.381 C 
ATOM      7  N   UNL     1       8.464  -1.350  22.201  0.00  0.00    -0.117 NA
ATOM      8  C   UNL     1       9.637  -0.586  21.817  0.00  0.00    +0.291 C 
ATOM      9  N   UNL     1       6.351  -1.470  23.112  0.00  0.00    -0.276 N 
ATOM     10  H   UNL     1       5.492  -0.941  23.121  0.00  0.00    +0.258 HD
ENDBRANCH   2   9
ENDBRANCH   1   2
BRANCH   1  11
ATOM     11  C   UNL     1       7.655  -4.491  23.946  0.00  0.00    +0.033 C 
BRANCH  11  12
ATOM     12  CA  UNL     1       8.665  -3.823  24.887  0.00  0.00    +0.161 C 
BRANCH  12  13
ATOM     13  N   UNL     1       9.897  -3.392  24.168  0.00  0.00    -0.318 NA
ATOM     14  H1  UNL     1      10.253  -4.201  23.649  0.00  0.00    +0.119 HD
ATOM     15  H2  UNL     1       9.611  -2.736  23.432  0.00  0.00    +0.119 HD
ENDBRANCH  12  13
BRANCH  12  16
ATOM     16  C   UNL     1       9.059  -4.768  26.029  0.00  0.00    +0.322 C 
ATOM     17  OXT UNL     1       8.433  -4.921  27.064  0.00  0.00    -0.249 OA
BRANCH  16  18
ATOM     18  O   UNL     1      10.203  -5.444  25.734  0.00  0.00    -0.480 OA
ATOM     19  H   UNL     1      10.141  -5.675  24.775  0.00  0.00    +0.295 HD
ENDBRANCH  16  18
ENDBRANCH  12  16
ENDBRANCH  11  12
ENDBRANCH   1  11
TORSDOF 7
ENDMDL
MODEL 9
REMARK VINA RESULT:      -4.4      1.860      2.827
REMARK  Name = 
REMARK  9 active torsions:
REMARK  status: ('A' for Active; 'I' for Inactive)
REMARK    1  A    between atoms: C_1  and  N_2
REMARK    2  A    between atoms: N_4  and  C_5
REMARK    3  A    between atoms: C_5  and  C_6
REMARK    4  A    between atoms: C_6  and  C_7
REMARK    5  A    between atoms: C_7  and  CA_8
REMARK    6  A    between atoms: CA_8  and  N_10
REMARK    7  A    between atoms: CA_8  and  C_11
REMARK    8  A    between atoms: C_11  and  O_12
REMARK    9  A    between atoms: N_14  and  C_15
REMARK                            x       y       z     vdW  Elec       q    Type
REMARK                         _______ _______ _______ _____ _____    ______ ____
ROOT
ATOM      1  C   UNL     1       8.596  -2.938  23.081  0.00  0.00    +0.039 C 
ENDROOT
BRANCH   1   2
ATOM      2  C   UNL     1       9.858  -2.450  23.802  0.00  0.00    +0.196 C 
BRANCH   2   9
ATOM      3  C   UNL     1      10.219   1.822  24.172  0.00  0.00    +0.239 C 
ATOM      4  N   UNL     1       9.673   0.933  25.162  0.00  0.00    -0.279 N 
ATOM      5  H   UNL     1       9.244   1.401  25.949  0.00  0.00    +0.258 HD
ATOM      6  C   UNL     1       9.435  -0.407  25.078  0.00  0.00    +0.381 C 
ATOM      7  N   UNL     1       8.838  -1.110  25.977  0.00  0.00    -0.117 NA
ATOM      8  C   UNL     1       8.378  -0.479  27.201  0.00  0.00    +0.291 C 
ATOM      9  N   UNL     1       9.883  -0.999  23.926  0.00  0.00    -0.276 N 
ATOM     10  H   UNL     1      10.678  -0.550  23.497  0.00  0.00    +0.258 HD
ENDBRANCH   2   9
ENDBRANCH   1   2
BRANCH   1  11
ATOM     11  C   UNL     1       8.076  -4.229  23.742  0.00  0.00    +0.033 C 
BRANCH  11  12
ATOM     12  CA  UNL     1       8.773  -4.640  25.045  0.00  0.00    +0.161 C 
BRANCH  12  13
ATOM     13  N   UNL     1       9.681  -5.805  24.849  0.00  0.00    -0.318 NA
ATOM     14  H1  UNL     1       9.480  -6.205  23.927  0.00  0.00    +0.119 HD
ATOM     15  H2  UNL     1      10.636  -5.438  24.752  0.00  0.00    +0.119 HD
ENDBRANCH  12  13
BRANCH  12  16
ATOM     16  C   UNL     1       7.746  -4.986  26.130  0.00  0.00    +0.322 C 
ATOM     17  OXT UNL     1       6.609  -4.549  26.189  0.00  0.00    -0.249 OA
BRANCH  16  18
ATOM     18  O   UNL     1       8.260  -5.872  27.027  0.00  0.00    -0.480 OA
ATOM     19  H   UNL     1       7.496  -6.420  27.333  0.00  0.00    +0.295 HD
ENDBRANCH  16  18
ENDBRANCH  12  16
ENDBRANCH  11  12
ENDBRANCH   1  11
TORSDOF 7
ENDMDL
