MODEL 1
REMARK VINA RESULT:      -6.5      0.000      0.000
REMARK  Name = 
REMARK  19 active torsions:
REMARK  status: ('A' for Active; 'I' for Inactive)
REMARK    1  A    between atoms: N_11  and  C_12
REMARK    2  A    between atoms: C_15  and  C_17
REMARK    3  A    between atoms: C_17  and  O_18
REMARK    4  A    between atoms: O_18  and  P_19
REMARK    5  A    between atoms: P_19  and  O_20
REMARK    6  A    between atoms: P_19  and  O_22
REMARK    7  A    between atoms: O_22  and  P_23
REMARK    8  A    between atoms: P_23  and  O_24
REMARK    9  A    between atoms: P_23  and  O_26
REMARK   10  A    between atoms: O_26  and  C_27
REMARK   11  A    between atoms: C_27  and  C_28
REMARK   12  A    between atoms: C_31  and  O_33
REMARK   13  A    between atoms: C_34  and  O_36
REMARK   14  A    between atoms: C_37  and  O_39
REMARK   15  A    between atoms: C_40  and  O_42
REMARK   16  A    between atoms: C_43  and  O_45
REMARK   17  A    between atoms: O_45  and  P_46
REMARK   18  A    between atoms: P_46  and  O_47
REMARK   19  A    between atoms: P_46  and  O_48
REMARK                            x       y       z     vdW  Elec       q    Type
REMARK                         _______ _______ _______ _____ _____    ______ ____
ROOT
ATOM      1  C   UNL     1       7.358  -3.250  23.327  0.00  0.00    +0.258 C 
ATOM      2  C   UNL     1       8.025  -4.637  23.224  0.00  0.00    +0.211 C 
ATOM      3  C   UNL     1       8.505  -4.926  24.648  0.00  0.00    +0.179 C 
ATOM      4  C   UNL     1       8.144  -3.696  25.478  0.00  0.00    +0.178 C 
ATOM      5  O   UNL     1       7.136  -2.968  24.738  0.00  0.00    -0.345 OA
ENDROOT
BRANCH   1  13
ATOM      6  N   UNL     1       9.537   2.151  21.565  0.00  0.00    -0.341 N 
ATOM      7  H   UNL     1      10.284   1.714  21.038  0.00  0.00    +0.144 HD
ATOM      8  H   UNL     1       9.253   3.090  21.315  0.00  0.00    +0.144 HD
ATOM      9  C   UNL     1       8.577   1.326  22.111  0.00  0.00    +0.156 A 
ATOM     10  C   UNL     1       8.734  -0.070  22.223  0.00  0.00    +0.195 A 
ATOM     11  N   UNL     1       9.735  -0.924  21.840  0.00  0.00    -0.226 NA
ATOM     12  C   UNL     1       9.331  -2.131  22.179  0.00  0.00    +0.207 A 
ATOM     13  N   UNL     1       8.113  -2.108  22.810  0.00  0.00    -0.248 N 
ATOM     14  C   UNL     1       7.715  -0.794  22.822  0.00  0.00    +0.318 A 
ATOM     15  N   UNL     1       6.588  -0.218  23.305  0.00  0.00    -0.177 N 
ATOM     16  H   UNL     1       5.865  -0.779  23.765  0.00  0.00    +0.456 HD
ATOM     17  C   UNL     1       6.501   1.110  23.157  0.00  0.00    +0.431 A 
ATOM     18  N   UNL     1       7.439   1.892  22.583  0.00  0.00    -0.176 NA
ENDBRANCH   1  13
BRANCH   3  19
ATOM     19  O   UNL     1       9.919  -5.102  24.613  0.00  0.00    -0.386 OA
ATOM     20  H   UNL     1      10.134  -5.862  24.037  0.00  0.00    +0.210 HD
ENDBRANCH   3  19
BRANCH   4  21
ATOM     21  C   UNL     1       7.653  -4.049  26.889  0.00  0.00    +0.206 C 
BRANCH  21  22
ATOM     22  O   UNL     1       6.307  -3.630  27.026  0.00  0.00    -0.284 OA
BRANCH  22  23
ATOM     23  P   UNL     1       5.159  -4.717  27.496  0.00  0.00    +0.483 P 
ATOM     24  O   UNL     1       5.523  -6.083  26.910  0.00  0.00    -0.227 OA
BRANCH  23  25
ATOM     25  O   UNL     1       6.146  -5.128  28.855  0.00  0.00    -0.302 OA
ATOM     26  H   UNL     1       7.052  -4.975  28.508  0.00  0.00    +0.222 HD
ENDBRANCH  23  25
BRANCH  23  27
ATOM     27  O   UNL     1       4.172  -4.306  26.137  0.00  0.00    -0.186 OA
BRANCH  27  28
ATOM     28  P   UNL     1       3.650  -2.662  26.279  0.00  0.00    +0.483 P 
ATOM     29  O   UNL     1       2.342  -3.017  25.546  0.00  0.00    -0.227 OA
BRANCH  28  30
ATOM     30  O   UNL     1       4.561  -2.209  24.977  0.00  0.00    -0.302 OA
ATOM     31  H   UNL     1       5.011  -1.371  25.212  0.00  0.00    +0.222 HD
ENDBRANCH  28  30
BRANCH  28  32
ATOM     32  O   UNL     1       3.128  -1.019  26.421  0.00  0.00    -0.284 OA
BRANCH  32  33
ATOM     33  C   UNL     1       3.756  -0.201  27.415  0.00  0.00    +0.206 C 
BRANCH  33  34
ATOM     34  C   UNL     1       4.886   0.701  26.896  0.00  0.00    +0.179 C 
ATOM     35  C   UNL     1       6.260   0.142  27.282  0.00  0.00    +0.179 C 
ATOM     36  C   UNL     1       7.109   1.383  27.566  0.00  0.00    +0.201 C 
ATOM     37  C   UNL     1       6.151   2.561  27.354  0.00  0.00    +0.279 C 
ATOM     38  O   UNL     1       4.828   2.029  27.469  0.00  0.00    -0.341 OA
BRANCH  37  39
ATOM     39  O   UNL     1       6.287   3.112  26.063  0.00  0.00    -0.365 OA
ATOM     40  H   UNL     1       7.043   2.666  25.647  0.00  0.00    +0.213 HD
ENDBRANCH  37  39
BRANCH  36  41
ATOM     41  O   UNL     1       7.569   1.337  28.929  0.00  0.00    -0.384 OA
ATOM     42  H   UNL     1       8.487   1.012  28.943  0.00  0.00    +0.210 HD
ENDBRANCH  36  41
BRANCH  35  43
ATOM     43  O   UNL     1       6.790  -0.668  26.242  0.00  0.00    -0.386 OA
ATOM     44  H   UNL     1       7.051  -0.081  25.507  0.00  0.00    +0.210 HD
ENDBRANCH  35  43
ENDBRANCH  33  34
ENDBRANCH  32  33
ENDBRANCH  28  32
ENDBRANCH  27  28
ENDBRANCH  23  27
ENDBRANCH  22  23
ENDBRANCH  21  22
ENDBRANCH   4  21
BRANCH   2  45
ATOM     45  O   UNL     1       7.102  -5.655  22.771  0.00  0.00    -0.276 OA
BRANCH  45  46
ATOM     46  P   UNL     1       5.470  -5.080  22.773  0.00  0.00    +0.473 P 
ATOM     47  O   UNL     1       4.009  -4.566  22.775  0.00  0.00    -0.228 OA
BRANCH  46  48
ATOM     48  O   UNL     1       5.232  -6.132  21.545  0.00  0.00    -0.303 OA
ATOM     49  H   UNL     1       5.280  -5.641  20.699  0.00  0.00    +0.222 HD
ENDBRANCH  46  48
BRANCH  46  50
ATOM     50  O   UNL     1       5.203  -6.092  24.022  0.00  0.00    -0.303 OA
ATOM     51  H   UNL     1       5.405  -5.574  24.827  0.00  0.00    +0.222 HD
ENDBRANCH  46  50
ENDBRANCH  45  46
ENDBRANCH   2  45
TORSDOF 19
ENDMDL
MODEL 2
REMARK VINA RESULT:      -6.4      2.779      5.052
REMARK  Name = 
REMARK  19 active torsions:
REMARK  status: ('A' for Active; 'I' for Inactive)
REMARK    1  A    between atoms: N_11  and  C_12
REMARK    2  A    between atoms: C_15  and  C_17
REMARK    3  A    between atoms: C_17  and  O_18
REMARK    4  A    between atoms: O_18  and  P_19
REMARK    5  A    between atoms: P_19  and  O_20
REMARK    6  A    between atoms: P_19  and  O_22
REMARK    7  A    between atoms: O_22  and  P_23
REMARK    8  A    between atoms: P_23  and  O_24
REMARK    9  A    between atoms: P_23  and  O_26
REMARK   10  A    between atoms: O_26  and  C_27
REMARK   11  A    between atoms: C_27  and  C_28
REMARK   12  A    between atoms: C_31  and  O_33
REMARK   13  A    between atoms: C_34  and  O_36
REMARK   14  A    between atoms: C_37  and  O_39
REMARK   15  A    between atoms: C_40  and  O_42
REMARK   16  A    between atoms: C_43  and  O_45
REMARK   17  A    between atoms: O_45  and  P_46
REMARK   18  A    between atoms: P_46  and  O_47
REMARK   19  A    between atoms: P_46  and  O_48
REMARK                            x       y       z     vdW  Elec       q    Type
REMARK                         _______ _______ _______ _____ _____    ______ ____
ROOT
ATOM      1  C   UNL     1       7.874  -0.767  23.129  0.00  0.00    +0.258 C 
ATOM      2  C   UNL     1       8.483  -2.081  22.598  0.00  0.00    +0.211 C 
ATOM      3  C   UNL     1       8.982  -2.795  23.856  0.00  0.00    +0.179 C 
ATOM      4  C   UNL     1       8.689  -1.857  25.025  0.00  0.00    +0.178 C 
ATOM      5  O   UNL     1       7.694  -0.911  24.566  0.00  0.00    -0.345 OA
ENDROOT
BRANCH   1  13
ATOM      6  N   UNL     1      10.520   4.708  23.350  0.00  0.00    -0.341 N 
ATOM      7  H   UNL     1      10.955   4.569  22.445  0.00  0.00    +0.144 HD
ATOM      8  H   UNL     1      10.384   5.655  23.682  0.00  0.00    +0.144 HD
ATOM      9  C   UNL     1       9.620   3.754  23.774  0.00  0.00    +0.156 A 
ATOM     10  C   UNL     1       9.497   2.487  23.171  0.00  0.00    +0.195 A 
ATOM     11  N   UNL     1      10.123   1.907  22.097  0.00  0.00    -0.226 NA
ATOM     12  C   UNL     1       9.591   0.708  21.974  0.00  0.00    +0.207 A 
ATOM     13  N   UNL     1       8.662   0.453  22.949  0.00  0.00    -0.248 N 
ATOM     14  C   UNL     1       8.581   1.596  23.706  0.00  0.00    +0.318 A 
ATOM     15  N   UNL     1       7.810   1.889  24.780  0.00  0.00    -0.177 N 
ATOM     16  H   UNL     1       7.160   1.199  25.167  0.00  0.00    +0.456 HD
ATOM     17  C   UNL     1       7.971   3.114  25.297  0.00  0.00    +0.431 A 
ATOM     18  N   UNL     1       8.833   4.045  24.839  0.00  0.00    -0.176 NA
ENDBRANCH   1  13
BRANCH   3  19
ATOM     19  O   UNL     1      10.387  -2.996  23.723  0.00  0.00    -0.386 OA
ATOM     20  H   UNL     1      10.606  -3.126  22.779  0.00  0.00    +0.210 HD
ENDBRANCH   3  19
BRANCH   4  21
ATOM     21  C   UNL     1       8.216  -2.597  26.283  0.00  0.00    +0.206 C 
BRANCH  21  22
ATOM     22  O   UNL     1       8.978  -3.781  26.435  0.00  0.00    -0.284 OA
BRANCH  22  23
ATOM     23  P   UNL     1       8.209  -5.225  26.637  0.00  0.00    +0.483 P 
ATOM     24  O   UNL     1       7.153  -5.365  25.538  0.00  0.00    -0.227 OA
BRANCH  23  25
ATOM     25  O   UNL     1       9.332  -5.945  25.537  0.00  0.00    -0.302 OA
ATOM     26  H   UNL     1       8.766  -6.134  24.757  0.00  0.00    +0.222 HD
ENDBRANCH  23  25
BRANCH  23  27
ATOM     27  O   UNL     1       7.085  -4.505  27.738  0.00  0.00    -0.186 OA
BRANCH  27  28
ATOM     28  P   UNL     1       5.519  -5.201  27.501  0.00  0.00    +0.483 P 
ATOM     29  O   UNL     1       5.116  -4.775  28.926  0.00  0.00    -0.227 OA
BRANCH  28  30
ATOM     30  O   UNL     1       6.088  -6.716  27.836  0.00  0.00    -0.302 OA
ATOM     31  H   UNL     1       7.052  -6.638  27.995  0.00  0.00    +0.222 HD
ENDBRANCH  28  30
BRANCH  28  32
ATOM     32  O   UNL     1       3.953  -5.898  27.265  0.00  0.00    -0.284 OA
BRANCH  32  33
ATOM     33  C   UNL     1       2.987  -5.138  26.529  0.00  0.00    +0.206 C 
BRANCH  33  34
ATOM     34  C   UNL     1       2.361  -5.868  25.330  0.00  0.00    +0.179 C 
ATOM     35  C   UNL     1       3.401  -6.728  24.603  0.00  0.00    +0.179 C 
ATOM     36  C   UNL     1       3.018  -6.620  23.126  0.00  0.00    +0.201 C 
ATOM     37  C   UNL     1       1.807  -5.680  23.111  0.00  0.00    +0.279 C 
ATOM     38  O   UNL     1       1.852  -4.946  24.337  0.00  0.00    -0.341 OA
BRANCH  37  39
ATOM     39  O   UNL     1       0.594  -6.400  23.080  0.00  0.00    -0.365 OA
ATOM     40  H   UNL     1      -0.059  -5.830  22.642  0.00  0.00    +0.213 HD
ENDBRANCH  37  39
BRANCH  36  41
ATOM     41  O   UNL     1       4.118  -6.049  22.395  0.00  0.00    -0.384 OA
ATOM     42  H   UNL     1       4.272  -6.575  21.591  0.00  0.00    +0.210 HD
ENDBRANCH  36  41
BRANCH  35  43
ATOM     43  O   UNL     1       3.383  -8.064  25.087  0.00  0.00    -0.386 OA
ATOM     44  H   UNL     1       3.850  -8.080  25.943  0.00  0.00    +0.210 HD
ENDBRANCH  35  43
ENDBRANCH  33  34
ENDBRANCH  32  33
ENDBRANCH  28  32
ENDBRANCH  27  28
ENDBRANCH  23  27
ENDBRANCH  22  23
ENDBRANCH  21  22
ENDBRANCH   4  21
BRANCH   2  45
ATOM     45  O   UNL     1       7.510  -2.889  21.894  0.00  0.00    -0.276 OA
BRANCH  45  46
ATOM     46  P   UNL     1       6.108  -3.185  22.865  0.00  0.00    +0.473 P 
ATOM     47  O   UNL     1       4.854  -3.451  23.733  0.00  0.00    -0.228 OA
BRANCH  46  48
ATOM     48  O   UNL     1       5.300  -3.264  21.446  0.00  0.00    -0.303 OA
ATOM     49  H   UNL     1       5.812  -2.778  20.768  0.00  0.00    +0.222 HD
ENDBRANCH  46  48
BRANCH  46  50
ATOM     50  O   UNL     1       6.602  -4.735  22.955  0.00  0.00    -0.303 OA
ATOM     51  H   UNL     1       6.888  -4.866  23.882  0.00  0.00    +0.222 HD
ENDBRANCH  46  50
ENDBRANCH  45  46
ENDBRANCH   2  45
TORSDOF 19
ENDMDL
MODEL 3
REMARK VINA RESULT:      -6.3      3.634      7.573
REMARK  Name = 
REMARK  19 active torsions:
REMARK  status: ('A' for Active; 'I' for Inactive)
REMARK    1  A    between atoms: N_11  and  C_12
REMARK    2  A    between atoms: C_15  and  C_17
REMARK    3  A    between atoms: C_17  and  O_18
REMARK    4  A    between atoms: O_18  and  P_19
REMARK    5  A    between atoms: P_19  and  O_20
REMARK    6  A    between atoms: P_19  and  O_22
REMARK    7  A    between atoms: O_22  and  P_23
REMARK    8  A    between atoms: P_23  and  O_24
REMARK    9  A    between atoms: P_23  and  O_26
REMARK   10  A    between atoms: O_26  and  C_27
REMARK   11  A    between atoms: C_27  and  C_28
REMARK   12  A    between atoms: C_31  and  O_33
REMARK   13  A    between atoms: C_34  and  O_36
REMARK   14  A    between atoms: C_37  and  O_39
REMARK   15  A    between atoms: C_40  and  O_42
REMARK   16  A    between atoms: C_43  and  O_45
REMARK   17  A    between atoms: O_45  and  P_46
REMARK   18  A    between atoms: P_46  and  O_47
REMARK   19  A    between atoms: P_46  and  O_48
REMARK                            x       y       z     vdW  Elec       q    Type
REMARK                         _______ _______ _______ _____ _____    ______ ____
ROOT
ATOM      1  C   UNL     1       5.634  -1.708  26.217  0.00  0.00    +0.258 C 
ATOM      2  C   UNL     1       5.172  -0.275  26.552  0.00  0.00    +0.211 C 
ATOM      3  C   UNL     1       6.460   0.446  26.958  0.00  0.00    +0.179 C 
ATOM      4  C   UNL     1       7.573  -0.597  26.889  0.00  0.00    +0.178 C 
ATOM      5  O   UNL     1       7.082  -1.684  26.070  0.00  0.00    -0.345 OA
ENDROOT
BRANCH   1  13
ATOM      6  N   UNL     1       5.440  -6.589  29.846  0.00  0.00    -0.341 N 
ATOM      7  H   UNL     1       4.530  -6.325  30.205  0.00  0.00    +0.144 HD
ATOM      8  H   UNL     1       5.720  -7.560  29.903  0.00  0.00    +0.144 HD
ATOM      9  C   UNL     1       5.951  -5.846  28.803  0.00  0.00    +0.156 A 
ATOM     10  C   UNL     1       5.428  -4.595  28.419  0.00  0.00    +0.195 A 
ATOM     11  N   UNL     1       4.369  -3.853  28.876  0.00  0.00    -0.226 NA
ATOM     12  C   UNL     1       4.334  -2.772  28.125  0.00  0.00    +0.207 A 
ATOM     13  N   UNL     1       5.355  -2.746  27.210  0.00  0.00    -0.248 N 
ATOM     14  C   UNL     1       6.046  -3.921  27.378  0.00  0.00    +0.318 A 
ATOM     15  N   UNL     1       7.128  -4.409  26.725  0.00  0.00    -0.177 N 
ATOM     16  H   UNL     1       7.577  -3.875  25.976  0.00  0.00    +0.456 HD
ATOM     17  C   UNL     1       7.566  -5.607  27.135  0.00  0.00    +0.431 A 
ATOM     18  N   UNL     1       7.024  -6.333  28.134  0.00  0.00    -0.176 NA
ENDBRANCH   1  13
BRANCH   3  19
ATOM     19  O   UNL     1       6.302   0.914  28.296  0.00  0.00    -0.386 OA
ATOM     20  H   UNL     1       5.578   1.570  28.324  0.00  0.00    +0.210 HD
ENDBRANCH   3  19
BRANCH   4  21
ATOM     21  C   UNL     1       8.888  -0.032  26.335  0.00  0.00    +0.206 C 
BRANCH  21  22
ATOM     22  O   UNL     1       8.736   0.215  24.949  0.00  0.00    -0.284 OA
BRANCH  22  23
ATOM     23  P   UNL     1       9.935   0.990  24.123  0.00  0.00    +0.483 P 
ATOM     24  O   UNL     1       9.449   1.239  22.694  0.00  0.00    -0.227 OA
BRANCH  23  25
ATOM     25  O   UNL     1       9.210   2.501  24.547  0.00  0.00    -0.302 OA
ATOM     26  H   UNL     1       8.280   2.374  24.257  0.00  0.00    +0.222 HD
ENDBRANCH  23  25
BRANCH  23  27
ATOM     27  O   UNL     1      10.660  -0.523  23.700  0.00  0.00    -0.186 OA
BRANCH  27  28
ATOM     28  P   UNL     1       9.495  -1.516  22.894  0.00  0.00    +0.483 P 
ATOM     29  O   UNL     1      10.134  -2.770  23.520  0.00  0.00    -0.227 OA
BRANCH  28  30
ATOM     30  O   UNL     1      10.355  -1.465  21.484  0.00  0.00    -0.302 OA
ATOM     31  H   UNL     1      10.832  -0.609  21.463  0.00  0.00    +0.222 HD
ENDBRANCH  28  30
BRANCH  28  32
ATOM     32  O   UNL     1       8.330  -2.509  22.088  0.00  0.00    -0.284 OA
BRANCH  32  33
ATOM     33  C   UNL     1       6.969  -2.436  22.529  0.00  0.00    +0.206 C 
BRANCH  33  34
ATOM     34  C   UNL     1       6.472  -3.660  23.313  0.00  0.00    +0.179 C 
ATOM     35  C   UNL     1       7.226  -4.928  22.893  0.00  0.00    +0.179 C 
ATOM     36  C   UNL     1       6.173  -6.036  22.960  0.00  0.00    +0.201 C 
ATOM     37  C   UNL     1       4.885  -5.317  23.381  0.00  0.00    +0.279 C 
ATOM     38  O   UNL     1       5.073  -3.935  23.064  0.00  0.00    -0.341 OA
BRANCH  37  39
ATOM     39  O   UNL     1       4.668  -5.418  24.771  0.00  0.00    -0.365 OA
ATOM     40  H   UNL     1       5.354  -6.012  25.119  0.00  0.00    +0.213 HD
ENDBRANCH  37  39
BRANCH  36  41
ATOM     41  O   UNL     1       6.026  -6.625  21.655  0.00  0.00    -0.384 OA
ATOM     42  H   UNL     1       6.731  -7.283  21.523  0.00  0.00    +0.210 HD
ENDBRANCH  36  41
BRANCH  35  43
ATOM     43  O   UNL     1       8.337  -5.164  23.747  0.00  0.00    -0.386 OA
ATOM     44  H   UNL     1       7.997  -5.503  24.597  0.00  0.00    +0.210 HD
ENDBRANCH  35  43
ENDBRANCH  33  34
ENDBRANCH  32  33
ENDBRANCH  28  32
ENDBRANCH  27  28
ENDBRANCH  23  27
ENDBRANCH  22  23
ENDBRANCH  21  22
ENDBRANCH   4  21
BRANCH   2  45
ATOM     45  O   UNL     1       4.548   0.376  25.420  0.00  0.00    -0.276 OA
BRANCH  45  46
ATOM     46  P   UNL     1       5.500   1.703  24.846  0.00  0.00    +0.473 P 
ATOM     47  O   UNL     1       6.350   2.890  24.331  0.00  0.00    -0.228 OA
BRANCH  46  48
ATOM     48  O   UNL     1       6.025   0.663  23.699  0.00  0.00    -0.303 OA
ATOM     49  H   UNL     1       7.003   0.626  23.736  0.00  0.00    +0.222 HD
ENDBRANCH  46  48
BRANCH  46  50
ATOM     50  O   UNL     1       4.153   2.236  24.099  0.00  0.00    -0.303 OA
ATOM     51  H   UNL     1       4.216   1.908  23.178  0.00  0.00    +0.222 HD
ENDBRANCH  46  50
ENDBRANCH  45  46
ENDBRANCH   2  45
TORSDOF 19
ENDMDL
MODEL 4
REMARK VINA RESULT:      -6.3      2.105      3.216
REMARK  Name = 
REMARK  19 active torsions:
REMARK  status: ('A' for Active; 'I' for Inactive)
REMARK    1  A    between atoms: N_11  and  C_12
REMARK    2  A    between atoms: C_15  and  C_17
REMARK    3  A    between atoms: C_17  and  O_18
REMARK    4  A    between atoms: O_18  and  P_19
REMARK    5  A    between atoms: P_19  and  O_20
REMARK    6  A    between atoms: P_19  and  O_22
REMARK    7  A    between atoms: O_22  and  P_23
REMARK    8  A    between atoms: P_23  and  O_24
REMARK    9  A    between atoms: P_23  and  O_26
REMARK   10  A    between atoms: O_26  and  C_27
REMARK   11  A    between atoms: C_27  and  C_28
REMARK   12  A    between atoms: C_31  and  O_33
REMARK   13  A    between atoms: C_34  and  O_36
REMARK   14  A    between atoms: C_37  and  O_39
REMARK   15  A    between atoms: C_40  and  O_42
REMARK   16  A    between atoms: C_43  and  O_45
REMARK   17  A    between atoms: O_45  and  P_46
REMARK   18  A    between atoms: P_46  and  O_47
REMARK   19  A    between atoms: P_46  and  O_48
REMARK                            x       y       z     vdW  Elec       q    Type
REMARK                         _______ _______ _______ _____ _____    ______ ____
ROOT
ATOM      1  C   UNL     1       7.615  -3.325  24.063  0.00  0.00    +0.258 C 
ATOM      2  C   UNL     1       8.097  -4.708  23.581  0.00  0.00    +0.211 C 
ATOM      3  C   UNL     1       8.468  -5.443  24.871  0.00  0.00    +0.179 C 
ATOM      4  C   UNL     1       8.235  -4.452  26.010  0.00  0.00    +0.178 C 
ATOM      5  O   UNL     1       7.367  -3.415  25.494  0.00  0.00    -0.345 OA
ENDROOT
BRANCH   1  13
ATOM      6  N   UNL     1      10.623   1.965  24.007  0.00  0.00    -0.341 N 
ATOM      7  H   UNL     1      11.272   1.625  23.307  0.00  0.00    +0.144 HD
ATOM      8  H   UNL     1      10.494   2.965  24.104  0.00  0.00    +0.144 HD
ATOM      9  C   UNL     1       9.552   1.157  24.326  0.00  0.00    +0.156 A 
ATOM     10  C   UNL     1       9.475  -0.201  23.960  0.00  0.00    +0.195 A 
ATOM     11  N   UNL     1      10.309  -1.015  23.238  0.00  0.00    -0.226 NA
ATOM     12  C   UNL     1       9.718  -2.191  23.193  0.00  0.00    +0.207 A 
ATOM     13  N   UNL     1       8.538  -2.201  23.892  0.00  0.00    -0.248 N 
ATOM     14  C   UNL     1       8.365  -0.925  24.367  0.00  0.00    +0.318 A 
ATOM     15  N   UNL     1       7.364  -0.385  25.102  0.00  0.00    -0.177 N 
ATOM     16  H   UNL     1       6.569  -0.953  25.408  0.00  0.00    +0.456 HD
ATOM     17  C   UNL     1       7.497   0.913  25.406  0.00  0.00    +0.431 A 
ATOM     18  N   UNL     1       8.538   1.693  25.049  0.00  0.00    -0.176 NA
ENDBRANCH   1  13
BRANCH   3  19
ATOM     19  O   UNL     1       9.847  -5.798  24.798  0.00  0.00    -0.386 OA
ATOM     20  H   UNL     1       9.934  -6.657  24.341  0.00  0.00    +0.210 HD
ENDBRANCH   3  19
BRANCH   4  21
ATOM     21  C   UNL     1       7.637  -5.108  27.261  0.00  0.00    +0.206 C 
BRANCH  21  22
ATOM     22  O   UNL     1       6.236  -5.229  27.093  0.00  0.00    -0.284 OA
BRANCH  22  23
ATOM     23  P   UNL     1       5.366  -6.156  28.143  0.00  0.00    +0.483 P 
ATOM     24  O   UNL     1       6.323  -7.137  28.824  0.00  0.00    -0.227 OA
BRANCH  23  25
ATOM     25  O   UNL     1       5.747  -5.035  29.403  0.00  0.00    -0.302 OA
ATOM     26  H   UNL     1       5.749  -5.611  30.199  0.00  0.00    +0.222 HD
ENDBRANCH  23  25
BRANCH  23  27
ATOM     27  O   UNL     1       4.984  -7.277  26.882  0.00  0.00    -0.186 OA
BRANCH  27  28
ATOM     28  P   UNL     1       3.941  -6.517  25.731  0.00  0.00    +0.483 P 
ATOM     29  O   UNL     1       3.433  -7.901  25.281  0.00  0.00    -0.227 OA
BRANCH  28  30
ATOM     30  O   UNL     1       5.181  -6.334  24.655  0.00  0.00    -0.302 OA
ATOM     31  H   UNL     1       5.622  -7.205  24.565  0.00  0.00    +0.222 HD
ENDBRANCH  28  30
BRANCH  28  32
ATOM     32  O   UNL     1       2.897  -5.757  24.579  0.00  0.00    -0.284 OA
BRANCH  32  33
ATOM     33  C   UNL     1       2.449  -4.426  24.859  0.00  0.00    +0.206 C 
BRANCH  33  34
ATOM     34  C   UNL     1       3.294  -3.657  25.886  0.00  0.00    +0.179 C 
ATOM     35  C   UNL     1       2.404  -2.955  26.918  0.00  0.00    +0.179 C 
ATOM     36  C   UNL     1       3.131  -1.642  27.218  0.00  0.00    +0.201 C 
ATOM     37  C   UNL     1       4.367  -1.673  26.311  0.00  0.00    +0.279 C 
ATOM     38  O   UNL     1       4.079  -2.609  25.269  0.00  0.00    -0.341 OA
BRANCH  37  39
ATOM     39  O   UNL     1       5.506  -2.132  27.005  0.00  0.00    -0.365 OA
ATOM     40  H   UNL     1       6.174  -2.350  26.334  0.00  0.00    +0.213 HD
ENDBRANCH  37  39
BRANCH  36  41
ATOM     41  O   UNL     1       2.272  -0.540  26.875  0.00  0.00    -0.384 OA
ATOM     42  H   UNL     1       2.821   0.225  26.628  0.00  0.00    +0.210 HD
ENDBRANCH  36  41
BRANCH  35  43
ATOM     43  O   UNL     1       2.225  -3.767  28.070  0.00  0.00    -0.386 OA
ATOM     44  H   UNL     1       2.217  -4.700  27.782  0.00  0.00    +0.210 HD
ENDBRANCH  35  43
ENDBRANCH  33  34
ENDBRANCH  32  33
ENDBRANCH  28  32
ENDBRANCH  27  28
ENDBRANCH  23  27
ENDBRANCH  22  23
ENDBRANCH  21  22
ENDBRANCH   4  21
BRANCH   2  45
ATOM     45  O   UNL     1       7.069  -5.422  22.854  0.00  0.00    -0.276 OA
BRANCH  45  46
ATOM     46  P   UNL     1       6.281  -4.401  21.700  0.00  0.00    +0.473 P 
ATOM     47  O   UNL     1       5.574  -3.489  20.669  0.00  0.00    -0.228 OA
BRANCH  46  48
ATOM     48  O   UNL     1       6.350  -5.693  20.702  0.00  0.00    -0.303 OA
ATOM     49  H   UNL     1       6.952  -6.359  21.094  0.00  0.00    +0.222 HD
ENDBRANCH  46  48
BRANCH  46  50
ATOM     50  O   UNL     1       4.887  -4.755  22.466  0.00  0.00    -0.303 OA
ATOM     51  H   UNL     1       5.149  -5.078  23.353  0.00  0.00    +0.222 HD
ENDBRANCH  46  50
ENDBRANCH  45  46
ENDBRANCH   2  45
TORSDOF 19
ENDMDL
MODEL 5
REMARK VINA RESULT:      -6.2      3.745      6.156
REMARK  Name = 
REMARK  19 active torsions:
REMARK  status: ('A' for Active; 'I' for Inactive)
REMARK    1  A    between atoms: N_11  and  C_12
REMARK    2  A    between atoms: C_15  and  C_17
REMARK    3  A    between atoms: C_17  and  O_18
REMARK    4  A    between atoms: O_18  and  P_19
REMARK    5  A    between atoms: P_19  and  O_20
REMARK    6  A    between atoms: P_19  and  O_22
REMARK    7  A    between atoms: O_22  and  P_23
REMARK    8  A    between atoms: P_23  and  O_24
REMARK    9  A    between atoms: P_23  and  O_26
REMARK   10  A    between atoms: O_26  and  C_27
REMARK   11  A    between atoms: C_27  and  C_28
REMARK   12  A    between atoms: C_31  and  O_33
REMARK   13  A    between atoms: C_34  and  O_36
REMARK   14  A    between atoms: C_37  and  O_39
REMARK   15  A    between atoms: C_40  and  O_42
REMARK   16  A    between atoms: C_43  and  O_45
REMARK   17  A    between atoms: O_45  and  P_46
REMARK   18  A    between atoms: P_46  and  O_47
REMARK   19  A    between atoms: P_46  and  O_48
REMARK                            x       y       z     vdW  Elec       q    Type
REMARK                         _______ _______ _______ _____ _____    ______ ____
ROOT
ATOM      1  C   UNL     1       7.822  -3.552  24.118  0.00  0.00    +0.258 C 
ATOM      2  C   UNL     1       7.552  -2.473  23.050  0.00  0.00    +0.211 C 
ATOM      3  C   UNL     1       7.339  -1.192  23.860  0.00  0.00    +0.179 C 
ATOM      4  C   UNL     1       7.445  -1.595  25.330  0.00  0.00    +0.178 C 
ATOM      5  O   UNL     1       8.122  -2.873  25.369  0.00  0.00    -0.345 OA
ENDROOT
BRANCH   1  13
ATOM      6  N   UNL     1       3.807  -7.465  26.483  0.00  0.00    -0.341 N 
ATOM      7  H   UNL     1       3.395  -7.641  25.574  0.00  0.00    +0.144 HD
ATOM      8  H   UNL     1       3.695  -8.162  27.209  0.00  0.00    +0.144 HD
ATOM      9  C   UNL     1       4.945  -6.689  26.525  0.00  0.00    +0.156 A 
ATOM     10  C   UNL     1       5.384  -5.905  25.439  0.00  0.00    +0.195 A 
ATOM     11  N   UNL     1       4.902  -5.730  24.168  0.00  0.00    -0.226 NA
ATOM     12  C   UNL     1       5.732  -4.895  23.578  0.00  0.00    +0.207 A 
ATOM     13  N   UNL     1       6.728  -4.476  24.422  0.00  0.00    -0.248 N 
ATOM     14  C   UNL     1       6.525  -5.136  25.608  0.00  0.00    +0.318 A 
ATOM     15  N   UNL     1       7.224  -5.103  26.768  0.00  0.00    -0.177 N 
ATOM     16  H   UNL     1       8.049  -4.504  26.869  0.00  0.00    +0.456 HD
ATOM     17  C   UNL     1       6.756  -5.879  27.755  0.00  0.00    +0.431 A 
ATOM     18  N   UNL     1       5.661  -6.661  27.676  0.00  0.00    -0.176 NA
ENDBRANCH   1  13
BRANCH   3  19
ATOM     19  O   UNL     1       6.033  -0.699  23.575  0.00  0.00    -0.386 OA
ATOM     20  H   UNL     1       5.929  -0.605  22.607  0.00  0.00    +0.210 HD
ENDBRANCH   3  19
BRANCH   4  21
ATOM     21  C   UNL     1       8.175  -0.550  26.185  0.00  0.00    +0.206 C 
BRANCH  21  22
ATOM     22  O   UNL     1       7.583   0.718  25.969  0.00  0.00    -0.284 OA
BRANCH  22  23
ATOM     23  P   UNL     1       6.477   1.295  27.047  0.00  0.00    +0.483 P 
ATOM     24  O   UNL     1       5.888   0.108  27.813  0.00  0.00    -0.227 OA
BRANCH  23  25
ATOM     25  O   UNL     1       7.719   1.350  28.249  0.00  0.00    -0.302 OA
ATOM     26  H   UNL     1       8.119   2.234  28.094  0.00  0.00    +0.222 HD
ENDBRANCH  23  25
BRANCH  23  27
ATOM     27  O   UNL     1       5.235   1.240  25.845  0.00  0.00    -0.186 OA
BRANCH  27  28
ATOM     28  P   UNL     1       5.308   2.670  24.874  0.00  0.00    +0.483 P 
ATOM     29  O   UNL     1       3.903   3.071  25.362  0.00  0.00    -0.227 OA
BRANCH  28  30
ATOM     30  O   UNL     1       4.881   1.830  23.517  0.00  0.00    -0.302 OA
ATOM     31  H   UNL     1       5.610   1.926  22.871  0.00  0.00    +0.222 HD
ENDBRANCH  28  30
BRANCH  28  32
ATOM     32  O   UNL     1       5.382   4.100  23.903  0.00  0.00    -0.284 OA
BRANCH  32  33
ATOM     33  C   UNL     1       6.030   4.012  22.629  0.00  0.00    +0.206 C 
BRANCH  33  34
ATOM     34  C   UNL     1       7.543   4.278  22.649  0.00  0.00    +0.179 C 
ATOM     35  C   UNL     1       8.333   2.967  22.749  0.00  0.00    +0.179 C 
ATOM     36  C   UNL     1       9.537   3.315  23.627  0.00  0.00    +0.201 C 
ATOM     37  C   UNL     1       9.333   4.789  23.993  0.00  0.00    +0.279 C 
ATOM     38  O   UNL     1       7.943   5.064  23.797  0.00  0.00    -0.341 OA
BRANCH  37  39
ATOM     39  O   UNL     1      10.068   5.640  23.141  0.00  0.00    -0.365 OA
ATOM     40  H   UNL     1      10.798   5.112  22.781  0.00  0.00    +0.213 HD
ENDBRANCH  37  39
BRANCH  36  41
ATOM     41  O   UNL     1       9.515   2.487  24.804  0.00  0.00    -0.384 OA
ATOM     42  H   UNL     1       9.304   1.573  24.545  0.00  0.00    +0.210 HD
ENDBRANCH  36  41
BRANCH  35  43
ATOM     43  O   UNL     1       8.701   2.497  21.460  0.00  0.00    -0.386 OA
ATOM     44  H   UNL     1       8.715   3.262  20.853  0.00  0.00    +0.210 HD
ENDBRANCH  35  43
ENDBRANCH  33  34
ENDBRANCH  32  33
ENDBRANCH  28  32
ENDBRANCH  27  28
ENDBRANCH  23  27
ENDBRANCH  22  23
ENDBRANCH  21  22
ENDBRANCH   4  21
BRANCH   2  45
ATOM     45  O   UNL     1       8.659  -2.326  22.128  0.00  0.00    -0.276 OA
BRANCH  45  46
ATOM     46  P   UNL     1       9.620  -0.938  22.506  0.00  0.00    +0.473 P 
ATOM     47  O   UNL     1      10.481   0.305  22.842  0.00  0.00    -0.228 OA
BRANCH  46  48
ATOM     48  O   UNL     1      10.903  -1.905  22.209  0.00  0.00    -0.303 OA
ATOM     49  H   UNL     1      10.653  -2.553  21.519  0.00  0.00    +0.222 HD
ENDBRANCH  46  48
BRANCH  46  50
ATOM     50  O   UNL     1       9.334  -0.431  20.984  0.00  0.00    -0.303 OA
ATOM     51  H   UNL     1       9.782   0.437  20.908  0.00  0.00    +0.222 HD
ENDBRANCH  46  50
ENDBRANCH  45  46
ENDBRANCH   2  45
TORSDOF 19
ENDMDL
MODEL 6
REMARK VINA RESULT:      -6.1      2.756      4.872
REMARK  Name = 
REMARK  19 active torsions:
REMARK  status: ('A' for Active; 'I' for Inactive)
REMARK    1  A    between atoms: N_11  and  C_12
REMARK    2  A    between atoms: C_15  and  C_17
REMARK    3  A    between atoms: C_17  and  O_18
REMARK    4  A    between atoms: O_18  and  P_19
REMARK    5  A    between atoms: P_19  and  O_20
REMARK    6  A    between atoms: P_19  and  O_22
REMARK    7  A    between atoms: O_22  and  P_23
REMARK    8  A    between atoms: P_23  and  O_24
REMARK    9  A    between atoms: P_23  and  O_26
REMARK   10  A    between atoms: O_26  and  C_27
REMARK   11  A    between atoms: C_27  and  C_28
REMARK   12  A    between atoms: C_31  and  O_33
REMARK   13  A    between atoms: C_34  and  O_36
REMARK   14  A    between atoms: C_37  and  O_39
REMARK   15  A    between atoms: C_40  and  O_42
REMARK   16  A    between atoms: C_43  and  O_45
REMARK   17  A    between atoms: O_45  and  P_46
REMARK   18  A    between atoms: P_46  and  O_47
REMARK   19  A    between atoms: P_46  and  O_48
REMARK                            x       y       z     vdW  Elec       q    Type
REMARK                         _______ _______ _______ _____ _____    ______ ____
ROOT
ATOM      1  C   UNL     1       7.307  -2.976  23.552  0.00  0.00    +0.258 C 
ATOM      2  C   UNL     1       7.860  -4.415  23.538  0.00  0.00    +0.211 C 
ATOM      3  C   UNL     1       8.270  -4.671  24.990  0.00  0.00    +0.179 C 
ATOM      4  C   UNL     1       7.987  -3.375  25.748  0.00  0.00    +0.178 C 
ATOM      5  O   UNL     1       7.065  -2.606  24.939  0.00  0.00    -0.345 OA
ENDROOT
BRANCH   1  13
ATOM      6  N   UNL     1       9.917   2.107  21.459  0.00  0.00    -0.341 N 
ATOM      7  H   UNL     1      10.708   1.589  21.096  0.00  0.00    +0.144 HD
ATOM      8  H   UNL     1       9.707   3.014  21.060  0.00  0.00    +0.144 HD
ATOM      9  C   UNL     1       8.860   1.380  21.965  0.00  0.00    +0.156 A 
ATOM     10  C   UNL     1       8.944   0.007  22.267  0.00  0.00    +0.195 A 
ATOM     11  N   UNL     1       9.952  -0.913  22.130  0.00  0.00    -0.226 NA
ATOM     12  C   UNL     1       9.458  -2.057  22.556  0.00  0.00    +0.207 A 
ATOM     13  N   UNL     1       8.169  -1.926  23.007  0.00  0.00    -0.248 N 
ATOM     14  C   UNL     1       7.826  -0.612  22.804  0.00  0.00    +0.318 A 
ATOM     15  N   UNL     1       6.670   0.046  23.056  0.00  0.00    -0.177 N 
ATOM     16  H   UNL     1       5.870  -0.434  23.478  0.00  0.00    +0.456 HD
ATOM     17  C   UNL     1       6.657   1.348  22.736  0.00  0.00    +0.431 A 
ATOM     18  N   UNL     1       7.694   2.028  22.205  0.00  0.00    -0.176 NA
ENDBRANCH   1  13
BRANCH   3  19
ATOM     19  O   UNL     1       9.665  -4.962  25.012  0.00  0.00    -0.386 OA
ATOM     20  H   UNL     1       9.916  -5.267  25.907  0.00  0.00    +0.210 HD
ENDBRANCH   3  19
BRANCH   4  21
ATOM     21  C   UNL     1       7.424  -3.615  27.156  0.00  0.00    +0.206 C 
BRANCH  21  22
ATOM     22  O   UNL     1       7.365  -5.010  27.396  0.00  0.00    -0.284 OA
BRANCH  22  23
ATOM     23  P   UNL     1       5.952  -5.690  27.904  0.00  0.00    +0.483 P 
ATOM     24  O   UNL     1       5.541  -6.759  26.890  0.00  0.00    -0.227 OA
BRANCH  23  25
ATOM     25  O   UNL     1       6.865  -6.918  28.709  0.00  0.00    -0.302 OA
ATOM     26  H   UNL     1       6.954  -7.602  28.009  0.00  0.00    +0.222 HD
ENDBRANCH  23  25
BRANCH  23  27
ATOM     27  O   UNL     1       5.038  -4.460  27.100  0.00  0.00    -0.186 OA
BRANCH  27  28
ATOM     28  P   UNL     1       3.360  -4.879  27.125  0.00  0.00    +0.483 P 
ATOM     29  O   UNL     1       3.013  -3.453  27.593  0.00  0.00    -0.227 OA
BRANCH  28  30
ATOM     30  O   UNL     1       3.513  -5.606  28.600  0.00  0.00    -0.302 OA
ATOM     31  H   UNL     1       2.928  -6.392  28.602  0.00  0.00    +0.222 HD
ENDBRANCH  28  30
BRANCH  28  32
ATOM     32  O   UNL     1       1.682  -5.298  27.149  0.00  0.00    -0.284 OA
BRANCH  32  33
ATOM     33  C   UNL     1       1.328  -6.662  26.893  0.00  0.00    +0.206 C 
BRANCH  33  34
ATOM     34  C   UNL     1       1.418  -7.092  25.421  0.00  0.00    +0.179 C 
ATOM     35  C   UNL     1       2.634  -7.996  25.183  0.00  0.00    +0.179 C 
ATOM     36  C   UNL     1       3.128  -7.609  23.788  0.00  0.00    +0.201 C 
ATOM     37  C   UNL     1       2.180  -6.489  23.341  0.00  0.00    +0.279 C 
ATOM     38  O   UNL     1       1.591  -5.962  24.533  0.00  0.00    -0.341 OA
BRANCH  37  39
ATOM     39  O   UNL     1       1.142  -6.986  22.526  0.00  0.00    -0.365 OA
ATOM     40  H   UNL     1       0.956  -6.301  21.862  0.00  0.00    +0.213 HD
ENDBRANCH  37  39
BRANCH  36  41
ATOM     41  O   UNL     1       4.480  -7.126  23.885  0.00  0.00    -0.384 OA
ATOM     42  H   UNL     1       4.616  -6.426  23.222  0.00  0.00    +0.210 HD
ENDBRANCH  36  41
BRANCH  35  43
ATOM     43  O   UNL     1       2.275  -9.367  25.286  0.00  0.00    -0.386 OA
ATOM     44  H   UNL     1       2.909  -9.885  24.755  0.00  0.00    +0.210 HD
ENDBRANCH  35  43
ENDBRANCH  33  34
ENDBRANCH  32  33
ENDBRANCH  28  32
ENDBRANCH  27  28
ENDBRANCH  23  27
ENDBRANCH  22  23
ENDBRANCH  21  22
ENDBRANCH   4  21
BRANCH   2  45
ATOM     45  O   UNL     1       6.869  -5.377  23.102  0.00  0.00    -0.276 OA
BRANCH  45  46
ATOM     46  P   UNL     1       6.308  -5.030  21.502  0.00  0.00    +0.473 P 
ATOM     47  O   UNL     1       5.804  -4.719  20.072  0.00  0.00    -0.228 OA
BRANCH  46  48
ATOM     48  O   UNL     1       6.041  -6.638  21.385  0.00  0.00    -0.303 OA
ATOM     49  H   UNL     1       5.615  -6.822  20.522  0.00  0.00    +0.222 HD
ENDBRANCH  46  48
BRANCH  46  50
ATOM     50  O   UNL     1       4.894  -4.593  22.185  0.00  0.00    -0.303 OA
ATOM     51  H   UNL     1       4.961  -4.862  23.123  0.00  0.00    +0.222 HD
ENDBRANCH  46  50
ENDBRANCH  45  46
ENDBRANCH   2  45
TORSDOF 19
ENDMDL
MODEL 7
REMARK VINA RESULT:      -6.0      2.194      6.108
REMARK  Name = 
REMARK  19 active torsions:
REMARK  status: ('A' for Active; 'I' for Inactive)
REMARK    1  A    between atoms: N_11  and  C_12
REMARK    2  A    between atoms: C_15  and  C_17
REMARK    3  A    between atoms: C_17  and  O_18
REMARK    4  A    between atoms: O_18  and  P_19
REMARK    5  A    between atoms: P_19  and  O_20
REMARK    6  A    between atoms: P_19  and  O_22
REMARK    7  A    between atoms: O_22  and  P_23
REMARK    8  A    between atoms: P_23  and  O_24
REMARK    9  A    between atoms: P_23  and  O_26
REMARK   10  A    between atoms: O_26  and  C_27
REMARK   11  A    between atoms: C_27  and  C_28
REMARK   12  A    between atoms: C_31  and  O_33
REMARK   13  A    between atoms: C_34  and  O_36
REMARK   14  A    between atoms: C_37  and  O_39
REMARK   15  A    between atoms: C_40  and  O_42
REMARK   16  A    between atoms: C_43  and  O_45
REMARK   17  A    between atoms: O_45  and  P_46
REMARK   18  A    between atoms: P_46  and  O_47
REMARK   19  A    between atoms: P_46  and  O_48
REMARK                            x       y       z     vdW  Elec       q    Type
REMARK                         _______ _______ _______ _____ _____    ______ ____
ROOT
ATOM      1  C   UNL     1       7.003   0.556  26.983  0.00  0.00    +0.258 C 
ATOM      2  C   UNL     1       5.623   1.016  27.496  0.00  0.00    +0.211 C 
ATOM      3  C   UNL     1       4.735  -0.220  27.333  0.00  0.00    +0.179 C 
ATOM      4  C   UNL     1       5.614  -1.296  26.700  0.00  0.00    +0.178 C 
ATOM      5  O   UNL     1       6.989  -0.897  26.912  0.00  0.00    -0.345 OA
ENDROOT
BRANCH   1  13
ATOM      6  N   UNL     1       9.760   1.981  21.749  0.00  0.00    -0.341 N 
ATOM      7  H   UNL     1       8.987   2.571  21.466  0.00  0.00    +0.144 HD
ATOM      8  H   UNL     1      10.671   2.144  21.338  0.00  0.00    +0.144 HD
ATOM      9  C   UNL     1       9.728   1.462  23.026  0.00  0.00    +0.156 A 
ATOM     10  C   UNL     1       8.572   1.465  23.831  0.00  0.00    +0.195 A 
ATOM     11  N   UNL     1       7.307   1.955  23.634  0.00  0.00    -0.226 NA
ATOM     12  C   UNL     1       6.641   1.695  24.740  0.00  0.00    +0.207 A 
ATOM     13  N   UNL     1       7.405   1.013  25.652  0.00  0.00    -0.248 N 
ATOM     14  C   UNL     1       8.649   0.883  25.086  0.00  0.00    +0.318 A 
ATOM     15  N   UNL     1       9.779   0.309  25.563  0.00  0.00    -0.177 N 
ATOM     16  H   UNL     1       9.796  -0.136  26.485  0.00  0.00    +0.456 HD
ATOM     17  C   UNL     1      10.843   0.350  24.749  0.00  0.00    +0.431 A 
ATOM     18  N   UNL     1      10.859   0.899  23.518  0.00  0.00    -0.176 NA
ENDBRANCH   1  13
BRANCH   3  19
ATOM     19  O   UNL     1       3.661   0.119  26.460  0.00  0.00    -0.386 OA
ATOM     20  H   UNL     1       3.421  -0.663  25.925  0.00  0.00    +0.210 HD
ENDBRANCH   3  19
BRANCH   4  21
ATOM     21  C   UNL     1       5.346  -2.697  27.268  0.00  0.00    +0.206 C 
BRANCH  21  22
ATOM     22  O   UNL     1       5.966  -3.659  26.433  0.00  0.00    -0.284 OA
BRANCH  22  23
ATOM     23  P   UNL     1       5.813  -5.262  26.785  0.00  0.00    +0.483 P 
ATOM     24  O   UNL     1       6.830  -6.038  25.944  0.00  0.00    -0.227 OA
BRANCH  23  25
ATOM     25  O   UNL     1       7.053  -5.089  27.978  0.00  0.00    -0.302 OA
ATOM     26  H   UNL     1       6.687  -4.384  28.556  0.00  0.00    +0.222 HD
ENDBRANCH  23  25
BRANCH  23  27
ATOM     27  O   UNL     1       4.572  -5.436  25.593  0.00  0.00    -0.186 OA
BRANCH  27  28
ATOM     28  P   UNL     1       5.292  -5.755  24.052  0.00  0.00    +0.483 P 
ATOM     29  O   UNL     1       4.123  -5.031  23.358  0.00  0.00    -0.227 OA
BRANCH  28  30
ATOM     30  O   UNL     1       4.690  -7.293  24.035  0.00  0.00    -0.302 OA
ATOM     31  H   UNL     1       4.771  -7.649  24.944  0.00  0.00    +0.222 HD
ENDBRANCH  28  30
BRANCH  28  32
ATOM     32  O   UNL     1       6.013  -6.074  22.512  0.00  0.00    -0.284 OA
BRANCH  32  33
ATOM     33  C   UNL     1       7.200  -5.351  22.166  0.00  0.00    +0.206 C 
BRANCH  33  34
ATOM     34  C   UNL     1       7.554  -4.191  23.109  0.00  0.00    +0.179 C 
ATOM     35  C   UNL     1       7.719  -2.879  22.333  0.00  0.00    +0.179 C 
ATOM     36  C   UNL     1       8.852  -2.149  23.057  0.00  0.00    +0.201 C 
ATOM     37  C   UNL     1       9.275  -3.109  24.175  0.00  0.00    +0.279 C 
ATOM     38  O   UNL     1       8.815  -4.407  23.787  0.00  0.00    -0.341 OA
BRANCH  37  39
ATOM     39  O   UNL     1       8.661  -2.779  25.401  0.00  0.00    -0.365 OA
ATOM     40  H   UNL     1       7.750  -3.114  25.356  0.00  0.00    +0.213 HD
ENDBRANCH  37  39
BRANCH  36  41
ATOM     41  O   UNL     1       9.934  -1.928  22.135  0.00  0.00    -0.384 OA
ATOM     42  H   UNL     1       9.590  -1.477  21.344  0.00  0.00    +0.210 HD
ENDBRANCH  36  41
BRANCH  35  43
ATOM     43  O   UNL     1       6.504  -2.144  22.316  0.00  0.00    -0.386 OA
ATOM     44  H   UNL     1       6.099  -2.211  23.201  0.00  0.00    +0.210 HD
ENDBRANCH  35  43
ENDBRANCH  33  34
ENDBRANCH  32  33
ENDBRANCH  28  32
ENDBRANCH  27  28
ENDBRANCH  23  27
ENDBRANCH  22  23
ENDBRANCH  21  22
ENDBRANCH   4  21
BRANCH   2  45
ATOM     45  O   UNL     1       5.669   1.443  28.879  0.00  0.00    -0.276 OA
BRANCH  45  46
ATOM     46  P   UNL     1       6.665   2.845  29.078  0.00  0.00    +0.473 P 
ATOM     47  O   UNL     1       7.556   4.097  29.258  0.00  0.00    -0.228 OA
BRANCH  46  48
ATOM     48  O   UNL     1       5.523   3.349  30.133  0.00  0.00    -0.303 OA
ATOM     49  H   UNL     1       4.812   2.675  30.170  0.00  0.00    +0.222 HD
ENDBRANCH  46  48
BRANCH  46  50
ATOM     50  O   UNL     1       7.568   1.952  30.100  0.00  0.00    -0.303 OA
ATOM     51  H   UNL     1       8.013   1.283  29.541  0.00  0.00    +0.222 HD
ENDBRANCH  46  50
ENDBRANCH  45  46
ENDBRANCH   2  45
TORSDOF 19
ENDMDL
MODEL 8
REMARK VINA RESULT:      -6.0      1.647      2.332
REMARK  Name = 
REMARK  19 active torsions:
REMARK  status: ('A' for Active; 'I' for Inactive)
REMARK    1  A    between atoms: N_11  and  C_12
REMARK    2  A    between atoms: C_15  and  C_17
REMARK    3  A    between atoms: C_17  and  O_18
REMARK    4  A    between atoms: O_18  and  P_19
REMARK    5  A    between atoms: P_19  and  O_20
REMARK    6  A    between atoms: P_19  and  O_22
REMARK    7  A    between atoms: O_22  and  P_23
REMARK    8  A    between atoms: P_23  and  O_24
REMARK    9  A    between atoms: P_23  and  O_26
REMARK   10  A    between atoms: O_26  and  C_27
REMARK   11  A    between atoms: C_27  and  C_28
REMARK   12  A    between atoms: C_31  and  O_33
REMARK   13  A    between atoms: C_34  and  O_36
REMARK   14  A    between atoms: C_37  and  O_39
REMARK   15  A    between atoms: C_40  and  O_42
REMARK   16  A    between atoms: C_43  and  O_45
REMARK   17  A    between atoms: O_45  and  P_46
REMARK   18  A    between atoms: P_46  and  O_47
REMARK   19  A    between atoms: P_46  and  O_48
REMARK                            x       y       z     vdW  Elec       q    Type
REMARK                         _______ _______ _______ _____ _____    ______ ____
ROOT
ATOM      1  C   UNL     1       7.559  -3.236  24.341  0.00  0.00    +0.258 C 
ATOM      2  C   UNL     1       8.342  -4.557  24.200  0.00  0.00    +0.211 C 
ATOM      3  C   UNL     1       8.170  -5.240  25.559  0.00  0.00    +0.179 C 
ATOM      4  C   UNL     1       7.355  -4.276  26.420  0.00  0.00    +0.178 C 
ATOM      5  O   UNL     1       6.709  -3.348  25.517  0.00  0.00    -0.345 OA
ENDROOT
BRANCH   1  13
ATOM      6  N   UNL     1      10.827   1.880  23.922  0.00  0.00    -0.341 N 
ATOM      7  H   UNL     1      11.053   1.854  24.909  0.00  0.00    +0.144 HD
ATOM      8  H   UNL     1      11.434   2.398  23.299  0.00  0.00    +0.144 HD
ATOM      9  C   UNL     1      10.159   0.795  23.395  0.00  0.00    +0.156 A 
ATOM     10  C   UNL     1       9.532  -0.185  24.189  0.00  0.00    +0.195 A 
ATOM     11  N   UNL     1       9.441  -0.359  25.546  0.00  0.00    -0.226 NA
ATOM     12  C   UNL     1       8.749  -1.466  25.724  0.00  0.00    +0.207 A 
ATOM     13  N   UNL     1       8.342  -2.015  24.535  0.00  0.00    -0.248 N 
ATOM     14  C   UNL     1       8.859  -1.213  23.548  0.00  0.00    +0.318 A 
ATOM     15  N   UNL     1       8.775  -1.308  22.199  0.00  0.00    -0.177 N 
ATOM     16  H   UNL     1       8.248  -2.066  21.756  0.00  0.00    +0.456 HD
ATOM     17  C   UNL     1       9.402  -0.348  21.506  0.00  0.00    +0.431 A 
ATOM     18  N   UNL     1      10.082   0.683  22.046  0.00  0.00    -0.176 NA
ENDBRANCH   1  13
BRANCH   3  19
ATOM     19  O   UNL     1       9.464  -5.434  26.124  0.00  0.00    -0.386 OA
ATOM     20  H   UNL     1      10.071  -4.750  25.780  0.00  0.00    +0.210 HD
ENDBRANCH   3  19
BRANCH   4  21
ATOM     21  C   UNL     1       6.331  -4.991  27.312  0.00  0.00    +0.206 C 
BRANCH  21  22
ATOM     22  O   UNL     1       5.035  -4.794  26.774  0.00  0.00    -0.284 OA
BRANCH  22  23
ATOM     23  P   UNL     1       4.141  -6.097  26.305  0.00  0.00    +0.483 P 
ATOM     24  O   UNL     1       4.891  -6.815  25.181  0.00  0.00    -0.227 OA
BRANCH  23  25
ATOM     25  O   UNL     1       5.035  -7.075  27.416  0.00  0.00    -0.302 OA
ATOM     26  H   UNL     1       5.903  -7.160  26.965  0.00  0.00    +0.222 HD
ENDBRANCH  23  25
BRANCH  23  27
ATOM     27  O   UNL     1       3.246  -5.119  25.194  0.00  0.00    -0.186 OA
BRANCH  27  28
ATOM     28  P   UNL     1       3.197  -3.489  25.771  0.00  0.00    +0.483 P 
ATOM     29  O   UNL     1       1.821  -3.296  25.104  0.00  0.00    -0.227 OA
BRANCH  28  30
ATOM     30  O   UNL     1       4.159  -2.970  24.532  0.00  0.00    -0.302 OA
ATOM     31  H   UNL     1       3.920  -2.039  24.345  0.00  0.00    +0.222 HD
ENDBRANCH  28  30
BRANCH  28  32
ATOM     32  O   UNL     1       3.148  -1.858  26.347  0.00  0.00    -0.284 OA
BRANCH  32  33
ATOM     33  C   UNL     1       4.213  -1.417  27.197  0.00  0.00    +0.206 C 
BRANCH  33  34
ATOM     34  C   UNL     1       4.995  -0.200  26.682  0.00  0.00    +0.179 C 
ATOM     35  C   UNL     1       4.210   1.098  26.909  0.00  0.00    +0.179 C 
ATOM     36  C   UNL     1       4.536   1.958  25.686  0.00  0.00    +0.201 C 
ATOM     37  C   UNL     1       5.457   1.078  24.832  0.00  0.00    +0.279 C 
ATOM     38  O   UNL     1       5.234  -0.269  25.256  0.00  0.00    -0.341 OA
BRANCH  37  39
ATOM     39  O   UNL     1       6.816   1.384  25.055  0.00  0.00    -0.365 OA
ATOM     40  H   UNL     1       6.895   2.351  25.017  0.00  0.00    +0.213 HD
ENDBRANCH  37  39
BRANCH  36  41
ATOM     41  O   UNL     1       3.316   2.255  24.982  0.00  0.00    -0.384 OA
ATOM     42  H   UNL     1       2.707   2.718  25.584  0.00  0.00    +0.210 HD
ENDBRANCH  36  41
BRANCH  35  43
ATOM     43  O   UNL     1       4.584   1.710  28.135  0.00  0.00    -0.386 OA
ATOM     44  H   UNL     1       3.842   1.609  28.760  0.00  0.00    +0.210 HD
ENDBRANCH  35  43
ENDBRANCH  33  34
ENDBRANCH  32  33
ENDBRANCH  28  32
ENDBRANCH  27  28
ENDBRANCH  23  27
ENDBRANCH  22  23
ENDBRANCH  21  22
ENDBRANCH   4  21
BRANCH   2  45
ATOM     45  O   UNL     1       7.823  -5.388  23.133  0.00  0.00    -0.276 OA
BRANCH  45  46
ATOM     46  P   UNL     1       6.686  -4.528  22.153  0.00  0.00    +0.473 P 
ATOM     47  O   UNL     1       5.667  -3.759  21.277  0.00  0.00    -0.228 OA
BRANCH  46  48
ATOM     48  O   UNL     1       6.854  -5.764  21.098  0.00  0.00    -0.303 OA
ATOM     49  H   UNL     1       6.623  -6.599  21.556  0.00  0.00    +0.222 HD
ENDBRANCH  46  48
BRANCH  46  50
ATOM     50  O   UNL     1       5.519  -5.164  23.097  0.00  0.00    -0.303 OA
ATOM     51  H   UNL     1       5.488  -6.116  22.870  0.00  0.00    +0.222 HD
ENDBRANCH  46  50
ENDBRANCH  45  46
ENDBRANCH   2  45
TORSDOF 19
ENDMDL
MODEL 9
REMARK VINA RESULT:      -6.0      1.605      2.748
REMARK  Name = 
REMARK  19 active torsions:
REMARK  status: ('A' for Active; 'I' for Inactive)
REMARK    1  A    between atoms: N_11  and  C_12
REMARK    2  A    between atoms: C_15  and  C_17
REMARK    3  A    between atoms: C_17  and  O_18
REMARK    4  A    between atoms: O_18  and  P_19
REMARK    5  A    between atoms: P_19  and  O_20
REMARK    6  A    between atoms: P_19  and  O_22
REMARK    7  A    between atoms: O_22  and  P_23
REMARK    8  A    between atoms: P_23  and  O_24
REMARK    9  A    between atoms: P_23  and  O_26
REMARK   10  A    between atoms: O_26  and  C_27
REMARK   11  A    between atoms: C_27  and  C_28
REMARK   12  A    between atoms: C_31  and  O_33
REMARK   13  A    between atoms: C_34  and  O_36
REMARK   14  A    between atoms: C_37  and  O_39
REMARK   15  A    between atoms: C_40  and  O_42
REMARK   16  A    between atoms: C_43  and  O_45
REMARK   17  A    between atoms: O_45  and  P_46
REMARK   18  A    between atoms: P_46  and  O_47
REMARK   19  A    between atoms: P_46  and  O_48
REMARK                            x       y       z     vdW  Elec       q    Type
REMARK                         _______ _______ _______ _____ _____    ______ ____
ROOT
ATOM      1  C   UNL     1       7.151  -2.459  22.723  0.00  0.00    +0.258 C 
ATOM      2  C   UNL     1       7.596  -3.929  22.584  0.00  0.00    +0.211 C 
ATOM      3  C   UNL     1       7.672  -4.433  24.027  0.00  0.00    +0.179 C 
ATOM      4  C   UNL     1       7.324  -3.240  24.915  0.00  0.00    +0.178 C 
ATOM      5  O   UNL     1       6.648  -2.273  24.076  0.00  0.00    -0.345 OA
ENDROOT
BRANCH   1  13
ATOM      6  N   UNL     1      10.474   2.582  21.962  0.00  0.00    -0.341 N 
ATOM      7  H   UNL     1      11.304   2.041  21.750  0.00  0.00    +0.144 HD
ATOM      8  H   UNL     1      10.421   3.538  21.632  0.00  0.00    +0.144 HD
ATOM      9  C   UNL     1       9.286   1.895  22.098  0.00  0.00    +0.156 A 
ATOM     10  C   UNL     1       9.217   0.496  22.248  0.00  0.00    +0.195 A 
ATOM     11  N   UNL     1      10.177  -0.483  22.261  0.00  0.00    -0.226 NA
ATOM     12  C   UNL     1       9.531  -1.621  22.412  0.00  0.00    +0.207 A 
ATOM     13  N   UNL     1       8.179  -1.433  22.539  0.00  0.00    -0.248 N 
ATOM     14  C   UNL     1       7.968  -0.082  22.412  0.00  0.00    +0.318 A 
ATOM     15  N   UNL     1       6.822   0.639  22.442  0.00  0.00    -0.177 N 
ATOM     16  H   UNL     1       5.917   0.184  22.591  0.00  0.00    +0.456 HD
ATOM     17  C   UNL     1       6.960   1.962  22.284  0.00  0.00    +0.431 A 
ATOM     18  N   UNL     1       8.132   2.607  22.113  0.00  0.00    -0.176 NA
ENDBRANCH   1  13
BRANCH   3  19
ATOM     19  O   UNL     1       9.007  -4.863  24.277  0.00  0.00    -0.386 OA
ATOM     20  H   UNL     1       9.018  -5.834  24.387  0.00  0.00    +0.210 HD
ENDBRANCH   3  19
BRANCH   4  21
ATOM     21  C   UNL     1       6.462  -3.626  26.125  0.00  0.00    +0.206 C 
BRANCH  21  22
ATOM     22  O   UNL     1       5.552  -2.576  26.396  0.00  0.00    -0.284 OA
BRANCH  22  23
ATOM     23  P   UNL     1       3.930  -2.873  26.361  0.00  0.00    +0.483 P 
ATOM     24  O   UNL     1       3.482  -2.921  24.899  0.00  0.00    -0.227 OA
BRANCH  23  25
ATOM     25  O   UNL     1       4.272  -4.563  26.228  0.00  0.00    -0.302 OA
ATOM     26  H   UNL     1       4.888  -4.710  26.979  0.00  0.00    +0.222 HD
ENDBRANCH  23  25
BRANCH  23  27
ATOM     27  O   UNL     1       3.588  -1.183  26.496  0.00  0.00    -0.186 OA
BRANCH  27  28
ATOM     28  P   UNL     1       5.066  -0.311  26.720  0.00  0.00    +0.483 P 
ATOM     29  O   UNL     1       4.263   0.966  27.032  0.00  0.00    -0.227 OA
BRANCH  28  30
ATOM     30  O   UNL     1       5.251  -0.109  25.091  0.00  0.00    -0.302 OA
ATOM     31  H   UNL     1       5.327  -1.000  24.692  0.00  0.00    +0.222 HD
ENDBRANCH  28  30
BRANCH  28  32
ATOM     32  O   UNL     1       6.543   0.560  26.945  0.00  0.00    -0.284 OA
BRANCH  32  33
ATOM     33  C   UNL     1       7.060   1.300  25.833  0.00  0.00    +0.206 C 
BRANCH  33  34
ATOM     34  C   UNL     1       7.224   2.808  26.073  0.00  0.00    +0.179 C 
ATOM     35  C   UNL     1       6.051   3.593  25.476  0.00  0.00    +0.179 C 
ATOM     36  C   UNL     1       6.682   4.887  24.959  0.00  0.00    +0.201 C 
ATOM     37  C   UNL     1       8.176   4.736  25.268  0.00  0.00    +0.279 C 
ATOM     38  O   UNL     1       8.413   3.335  25.436  0.00  0.00    -0.341 OA
BRANCH  37  39
ATOM     39  O   UNL     1       8.523   5.382  26.473  0.00  0.00    -0.365 OA
ATOM     40  H   UNL     1       8.878   6.253  26.232  0.00  0.00    +0.213 HD
ENDBRANCH  37  39
BRANCH  36  41
ATOM     41  O   UNL     1       6.461   4.985  23.540  0.00  0.00    -0.384 OA
ATOM     42  H   UNL     1       7.214   4.583  23.073  0.00  0.00    +0.210 HD
ENDBRANCH  36  41
BRANCH  35  43
ATOM     43  O   UNL     1       5.041   3.817  26.450  0.00  0.00    -0.386 OA
ATOM     44  H   UNL     1       4.192   3.934  25.983  0.00  0.00    +0.210 HD
ENDBRANCH  35  43
ENDBRANCH  33  34
ENDBRANCH  32  33
ENDBRANCH  28  32
ENDBRANCH  27  28
ENDBRANCH  23  27
ENDBRANCH  22  23
ENDBRANCH  21  22
ENDBRANCH   4  21
BRANCH   2  45
ATOM     45  O   UNL     1       6.657  -4.713  21.809  0.00  0.00    -0.276 OA
BRANCH  45  46
ATOM     46  P   UNL     1       5.516  -5.526  22.826  0.00  0.00    +0.473 P 
ATOM     47  O   UNL     1       4.495  -6.253  23.734  0.00  0.00    -0.228 OA
BRANCH  46  48
ATOM     48  O   UNL     1       4.565  -4.219  22.585  0.00  0.00    -0.303 OA
ATOM     49  H   UNL     1       4.982  -3.649  21.907  0.00  0.00    +0.222 HD
ENDBRANCH  46  48
BRANCH  46  50
ATOM     50  O   UNL     1       5.088  -6.390  21.512  0.00  0.00    -0.303 OA
ATOM     51  H   UNL     1       4.431  -7.042  21.829  0.00  0.00    +0.222 HD
ENDBRANCH  46  50
ENDBRANCH  45  46
ENDBRANCH   2  45
TORSDOF 19
ENDMDL
