MODEL 1
REMARK VINA RESULT:      -6.1      0.000      0.000
REMARK  Name = 
REMARK  6 active torsions:
REMARK  status: ('A' for Active; 'I' for Inactive)
REMARK    1  A    between atoms: C_10  and  C_13
REMARK    2  A    between atoms: C_13  and  O_15
REMARK    3  A    between atoms: C_13  and  C_16
REMARK    4  A    between atoms: C_16  and  O_18
REMARK    5  A    between atoms: C_16  and  C_19
REMARK    6  A    between atoms: C_19  and  O_20
REMARK                            x       y       z     vdW  Elec       q    Type
REMARK                         _______ _______ _______ _____ _____    ______ ____
ROOT
ATOM      1  N   UNL     1       7.975  -5.988  27.260  0.00  0.00    -0.329 N 
ATOM      2  H   UNL     1       8.399  -5.448  28.004  0.00  0.00    +0.145 HD
ATOM      3  H   UNL     1       7.211  -6.555  27.616  0.00  0.00    +0.145 HD
ATOM      4  C   UNL     1       7.572  -5.269  26.185  0.00  0.00    +0.195 A 
ATOM      5  N   UNL     1       8.477  -4.355  25.753  0.00  0.00    -0.311 N 
ATOM      6  H   UNL     1       9.435  -4.416  26.064  0.00  0.00    +0.170 HD
ATOM      7  C   UNL     1       8.318  -3.699  24.555  0.00  0.00    +0.160 A 
ATOM      8  N   UNL     1       9.324  -2.889  24.044  0.00  0.00    -0.233 NA
ATOM      9  C   UNL     1       9.069  -2.199  22.951  0.00  0.00    +0.069 C 
ATOM     10  C   UNL     1       7.728  -2.207  22.200  0.00  0.00    +0.155 C 
ATOM     11  N   UNL     1       6.876  -3.274  22.675  0.00  0.00    -0.331 N 
ATOM     12  H   UNL     1       5.881  -3.241  22.458  0.00  0.00    +0.147 HD
ATOM     13  C   UNL     1       7.149  -3.869  23.896  0.00  0.00    +0.137 A 
ATOM     14  C   UNL     1       6.073  -4.713  24.559  0.00  0.00    +0.298 A 
ATOM     15  O   UNL     1       4.935  -4.683  24.090  0.00  0.00    -0.264 OA
ATOM     16  N   UNL     1       6.420  -5.477  25.648  0.00  0.00    -0.176 NA
ENDROOT
BRANCH   9  17
ATOM     17  C   UNL     1      10.144  -1.179  22.506  0.00  0.00    +0.191 C 
BRANCH  17  18
ATOM     18  O   UNL     1      10.006  -0.881  21.117  0.00  0.00    -0.383 OA
ATOM     19  H   UNL     1       9.059  -1.019  20.916  0.00  0.00    +0.210 HD
ENDBRANCH  17  18
BRANCH  17  20
ATOM     20  C   UNL     1      10.237   0.133  23.294  0.00  0.00    +0.174 C 
BRANCH  20  21
ATOM     21  O   UNL     1       9.920  -0.077  24.676  0.00  0.00    -0.387 OA
ATOM     22  H   UNL     1       9.036  -0.501  24.691  0.00  0.00    +0.210 HD
ENDBRANCH  20  21
BRANCH  20  23
ATOM     23  C   UNL     1       9.404   1.290  22.734  0.00  0.00    +0.190 C 
BRANCH  23  24
ATOM     24  O   UNL     1      10.168   1.926  21.698  0.00  0.00    -0.392 OA
ATOM     25  H   UNL     1      10.399   1.248  21.038  0.00  0.00    +0.210 HD
ENDBRANCH  23  24
ENDBRANCH  20  23
ENDBRANCH  17  20
ENDBRANCH   9  17
TORSDOF 6
ENDMDL
MODEL 2
REMARK VINA RESULT:      -6.1      1.490      1.862
REMARK  Name = 
REMARK  6 active torsions:
REMARK  status: ('A' for Active; 'I' for Inactive)
REMARK    1  A    between atoms: C_10  and  C_13
REMARK    2  A    between atoms: C_13  and  O_15
REMARK    3  A    between atoms: C_13  and  C_16
REMARK    4  A    between atoms: C_16  and  O_18
REMARK    5  A    between atoms: C_16  and  C_19
REMARK    6  A    between atoms: C_19  and  O_20
REMARK                            x       y       z     vdW  Elec       q    Type
REMARK                         _______ _______ _______ _____ _____    ______ ____
ROOT
ATOM      1  N   UNL     1       9.777  -5.785  25.421  0.00  0.00    -0.329 N 
ATOM      2  H   UNL     1      10.406  -5.525  26.171  0.00  0.00    +0.145 HD
ATOM      3  H   UNL     1       9.173  -6.551  25.705  0.00  0.00    +0.145 HD
ATOM      4  C   UNL     1       9.044  -4.768  24.906  0.00  0.00    +0.195 A 
ATOM      5  N   UNL     1       9.752  -3.637  24.662  0.00  0.00    -0.311 N 
ATOM      6  H   UNL     1      10.761  -3.675  24.636  0.00  0.00    +0.170 HD
ATOM      7  C   UNL     1       9.213  -2.594  23.946  0.00  0.00    +0.160 A 
ATOM      8  N   UNL     1       9.994  -1.511  23.561  0.00  0.00    -0.233 NA
ATOM      9  C   UNL     1       9.397  -0.493  22.978  0.00  0.00    +0.069 C 
ATOM     10  C   UNL     1       7.888  -0.400  22.701  0.00  0.00    +0.155 C 
ATOM     11  N   UNL     1       7.246  -1.680  22.903  0.00  0.00    -0.331 N 
ATOM     12  H   UNL     1       6.232  -1.710  23.009  0.00  0.00    +0.147 HD
ATOM     13  C   UNL     1       7.899  -2.660  23.633  0.00  0.00    +0.137 A 
ATOM     14  C   UNL     1       7.100  -3.843  24.153  0.00  0.00    +0.298 A 
ATOM     15  O   UNL     1       5.873  -3.797  24.080  0.00  0.00    -0.264 OA
ATOM     16  N   UNL     1       7.785  -4.914  24.677  0.00  0.00    -0.176 NA
ENDROOT
BRANCH   9  17
ATOM     17  C   UNL     1      10.261   0.765  22.719  0.00  0.00    +0.191 C 
BRANCH  17  18
ATOM     18  O   UNL     1       9.764   1.489  21.594  0.00  0.00    -0.383 OA
ATOM     19  H   UNL     1      10.481   1.457  20.929  0.00  0.00    +0.210 HD
ENDBRANCH  17  18
BRANCH  17  20
ATOM     20  C   UNL     1      10.461   1.733  23.891  0.00  0.00    +0.174 C 
BRANCH  20  21
ATOM     21  O   UNL     1      10.013   1.147  25.121  0.00  0.00    -0.387 OA
ATOM     22  H   UNL     1      10.805   1.084  25.695  0.00  0.00    +0.210 HD
ENDBRANCH  20  21
BRANCH  20  23
ATOM     23  C   UNL     1       9.831   3.117  23.709  0.00  0.00    +0.190 C 
BRANCH  23  24
ATOM     24  O   UNL     1      10.789   3.957  23.048  0.00  0.00    -0.392 OA
ATOM     25  H   UNL     1      11.093   3.492  22.248  0.00  0.00    +0.210 HD
ENDBRANCH  23  24
ENDBRANCH  20  23
ENDBRANCH  17  20
ENDBRANCH   9  17
TORSDOF 6
ENDMDL
MODEL 3
REMARK VINA RESULT:      -5.9      2.597      6.306
REMARK  Name = 
REMARK  6 active torsions:
REMARK  status: ('A' for Active; 'I' for Inactive)
REMARK    1  A    between atoms: C_10  and  C_13
REMARK    2  A    between atoms: C_13  and  O_15
REMARK    3  A    between atoms: C_13  and  C_16
REMARK    4  A    between atoms: C_16  and  O_18
REMARK    5  A    between atoms: C_16  and  C_19
REMARK    6  A    between atoms: C_19  and  O_20
REMARK                            x       y       z     vdW  Elec       q    Type
REMARK                         _______ _______ _______ _____ _____    ______ ____
ROOT
ATOM      1  N   UNL     1       9.049   2.266  21.400  0.00  0.00    -0.329 N 
ATOM      2  H   UNL     1       8.077   2.493  21.227  0.00  0.00    +0.145 HD
ATOM      3  H   UNL     1       9.569   3.093  21.677  0.00  0.00    +0.145 HD
ATOM      4  C   UNL     1       9.256   1.257  22.280  0.00  0.00    +0.195 A 
ATOM      5  N   UNL     1       8.465   0.173  22.084  0.00  0.00    -0.311 N 
ATOM      6  H   UNL     1       7.972   0.066  21.209  0.00  0.00    +0.170 HD
ATOM      7  C   UNL     1       8.693  -1.012  22.746  0.00  0.00    +0.160 A 
ATOM      8  N   UNL     1       7.983  -2.161  22.421  0.00  0.00    -0.233 NA
ATOM      9  C   UNL     1       8.165  -3.232  23.165  0.00  0.00    +0.069 C 
ATOM     10  C   UNL     1       9.096  -3.306  24.385  0.00  0.00    +0.155 C 
ATOM     11  N   UNL     1       9.958  -2.147  24.449  0.00  0.00    -0.331 N 
ATOM     12  H   UNL     1      10.434  -1.937  25.326  0.00  0.00    +0.147 HD
ATOM     13  C   UNL     1       9.628  -1.015  23.722  0.00  0.00    +0.137 A 
ATOM     14  C   UNL     1      10.307   0.301  24.064  0.00  0.00    +0.298 A 
ATOM     15  O   UNL     1      10.977   0.363  25.094  0.00  0.00    -0.264 OA
ATOM     16  N   UNL     1      10.146   1.362  23.204  0.00  0.00    -0.176 NA
ENDROOT
BRANCH   9  17
ATOM     17  C   UNL     1       7.236  -4.438  22.886  0.00  0.00    +0.191 C 
BRANCH  17  18
ATOM     18  O   UNL     1       6.305  -4.609  23.954  0.00  0.00    -0.383 OA
ATOM     19  H   UNL     1       5.513  -4.099  23.691  0.00  0.00    +0.210 HD
ENDBRANCH  17  18
BRANCH  17  20
ATOM     20  C   UNL     1       6.479  -4.448  21.553  0.00  0.00    +0.174 C 
BRANCH  20  21
ATOM     21  O   UNL     1       5.348  -3.568  21.601  0.00  0.00    -0.387 OA
ATOM     22  H   UNL     1       5.444  -3.047  22.426  0.00  0.00    +0.210 HD
ENDBRANCH  20  21
BRANCH  20  23
ATOM     23  C   UNL     1       6.046  -5.832  21.059  0.00  0.00    +0.190 C 
BRANCH  23  24
ATOM     24  O   UNL     1       6.362  -6.788  22.082  0.00  0.00    -0.392 OA
ATOM     25  H   UNL     1       5.654  -6.755  22.750  0.00  0.00    +0.210 HD
ENDBRANCH  23  24
ENDBRANCH  20  23
ENDBRANCH  17  20
ENDBRANCH   9  17
TORSDOF 6
ENDMDL
MODEL 4
REMARK VINA RESULT:      -5.9      3.032      6.159
REMARK  Name = 
REMARK  6 active torsions:
REMARK  status: ('A' for Active; 'I' for Inactive)
REMARK    1  A    between atoms: C_10  and  C_13
REMARK    2  A    between atoms: C_13  and  O_15
REMARK    3  A    between atoms: C_13  and  C_16
REMARK    4  A    between atoms: C_16  and  O_18
REMARK    5  A    between atoms: C_16  and  C_19
REMARK    6  A    between atoms: C_19  and  O_20
REMARK                            x       y       z     vdW  Elec       q    Type
REMARK                         _______ _______ _______ _____ _____    ______ ____
ROOT
ATOM      1  N   UNL     1       5.572   2.304  22.418  0.00  0.00    -0.329 N 
ATOM      2  H   UNL     1       5.037   2.315  23.278  0.00  0.00    +0.145 HD
ATOM      3  H   UNL     1       5.742   3.249  22.086  0.00  0.00    +0.145 HD
ATOM      4  C   UNL     1       6.732   1.604  22.472  0.00  0.00    +0.195 A 
ATOM      5  N   UNL     1       6.624   0.391  23.068  0.00  0.00    -0.311 N 
ATOM      6  H   UNL     1       5.712  -0.018  23.209  0.00  0.00    +0.170 HD
ATOM      7  C   UNL     1       7.647  -0.529  23.014  0.00  0.00    +0.160 A 
ATOM      8  N   UNL     1       7.470  -1.824  23.484  0.00  0.00    -0.233 NA
ATOM      9  C   UNL     1       8.517  -2.622  23.509  0.00  0.00    +0.069 C 
ATOM     10  C   UNL     1       9.936  -2.224  23.070  0.00  0.00    +0.155 C 
ATOM     11  N   UNL     1       9.924  -0.961  22.366  0.00  0.00    -0.331 N 
ATOM     12  H   UNL     1      10.801  -0.457  22.248  0.00  0.00    +0.147 HD
ATOM     13  C   UNL     1       8.826  -0.125  22.489  0.00  0.00    +0.137 A 
ATOM     14  C   UNL     1       8.959   1.328  22.064  0.00  0.00    +0.298 A 
ATOM     15  O   UNL     1      10.081   1.763  21.811  0.00  0.00    -0.264 OA
ATOM     16  N   UNL     1       7.817   2.090  21.978  0.00  0.00    -0.176 NA
ENDROOT
BRANCH   9  17
ATOM     17  C   UNL     1       8.328  -3.996  24.196  0.00  0.00    +0.191 C 
BRANCH  17  18
ATOM     18  O   UNL     1       8.262  -5.036  23.222  0.00  0.00    -0.383 OA
ATOM     19  H   UNL     1       8.945  -4.813  22.558  0.00  0.00    +0.210 HD
ENDBRANCH  17  18
BRANCH  17  20
ATOM     20  C   UNL     1       9.341  -4.385  25.279  0.00  0.00    +0.174 C 
BRANCH  20  21
ATOM     21  O   UNL     1      10.094  -5.539  24.883  0.00  0.00    -0.387 OA
ATOM     22  H   UNL     1      10.136  -6.119  25.672  0.00  0.00    +0.210 HD
ENDBRANCH  20  21
BRANCH  20  23
ATOM     23  C   UNL     1       8.753  -4.596  26.677  0.00  0.00    +0.190 C 
BRANCH  23  24
ATOM     24  O   UNL     1       8.190  -5.915  26.728  0.00  0.00    -0.392 OA
ATOM     25  H   UNL     1       7.351  -5.901  26.234  0.00  0.00    +0.210 HD
ENDBRANCH  23  24
ENDBRANCH  20  23
ENDBRANCH  17  20
ENDBRANCH   9  17
TORSDOF 6
ENDMDL
MODEL 5
REMARK VINA RESULT:      -5.6      2.187      3.062
REMARK  Name = 
REMARK  6 active torsions:
REMARK  status: ('A' for Active; 'I' for Inactive)
REMARK    1  A    between atoms: C_10  and  C_13
REMARK    2  A    between atoms: C_13  and  O_15
REMARK    3  A    between atoms: C_13  and  C_16
REMARK    4  A    between atoms: C_16  and  O_18
REMARK    5  A    between atoms: C_16  and  C_19
REMARK    6  A    between atoms: C_19  and  O_20
REMARK                            x       y       z     vdW  Elec       q    Type
REMARK                         _______ _______ _______ _____ _____    ______ ____
ROOT
ATOM      1  N   UNL     1       4.599  -4.003  23.307  0.00  0.00    -0.329 N 
ATOM      2  H   UNL     1       4.144  -3.785  22.428  0.00  0.00    +0.145 HD
ATOM      3  H   UNL     1       4.395  -4.957  23.591  0.00  0.00    +0.145 HD
ATOM      4  C   UNL     1       5.933  -3.772  23.336  0.00  0.00    +0.195 A 
ATOM      5  N   UNL     1       6.306  -2.581  22.805  0.00  0.00    -0.311 N 
ATOM      6  H   UNL     1       5.613  -1.863  22.654  0.00  0.00    +0.170 HD
ATOM      7  C   UNL     1       7.587  -2.100  22.950  0.00  0.00    +0.160 A 
ATOM      8  N   UNL     1       7.918  -0.812  22.547  0.00  0.00    -0.233 NA
ATOM      9  C   UNL     1       9.182  -0.450  22.607  0.00  0.00    +0.069 C 
ATOM     10  C   UNL     1      10.334  -1.354  23.076  0.00  0.00    +0.155 C 
ATOM     11  N   UNL     1       9.827  -2.552  23.707  0.00  0.00    -0.331 N 
ATOM     12  H   UNL     1      10.454  -3.346  23.829  0.00  0.00    +0.147 HD
ATOM     13  C   UNL     1       8.510  -2.925  23.495  0.00  0.00    +0.137 A 
ATOM     14  C   UNL     1       8.083  -4.343  23.842  0.00  0.00    +0.298 A 
ATOM     15  O   UNL     1       8.956  -5.166  24.113  0.00  0.00    -0.264 OA
ATOM     16  N   UNL     1       6.740  -4.639  23.843  0.00  0.00    -0.176 NA
ENDROOT
BRANCH   9  17
ATOM     17  C   UNL     1       9.542   0.923  21.992  0.00  0.00    +0.191 C 
BRANCH  17  18
ATOM     18  O   UNL     1       8.827   1.128  20.774  0.00  0.00    -0.383 OA
ATOM     19  H   UNL     1       8.826   0.259  20.325  0.00  0.00    +0.210 HD
ENDBRANCH  17  18
BRANCH  17  20
ATOM     20  C   UNL     1       9.377   2.158  22.884  0.00  0.00    +0.174 C 
BRANCH  20  21
ATOM     21  O   UNL     1       8.801   3.247  22.150  0.00  0.00    -0.387 OA
ATOM     22  H   UNL     1       9.065   3.113  21.215  0.00  0.00    +0.210 HD
ENDBRANCH  20  21
BRANCH  20  23
ATOM     23  C   UNL     1      10.649   2.622  23.600  0.00  0.00    +0.190 C 
BRANCH  23  24
ATOM     24  O   UNL     1      11.158   3.769  22.902  0.00  0.00    -0.392 OA
ATOM     25  H   UNL     1      11.757   3.451  22.202  0.00  0.00    +0.210 HD
ENDBRANCH  23  24
ENDBRANCH  20  23
ENDBRANCH  17  20
ENDBRANCH   9  17
TORSDOF 6
ENDMDL
MODEL 6
REMARK VINA RESULT:      -5.6      3.252      6.015
REMARK  Name = 
REMARK  6 active torsions:
REMARK  status: ('A' for Active; 'I' for Inactive)
REMARK    1  A    between atoms: C_10  and  C_13
REMARK    2  A    between atoms: C_13  and  O_15
REMARK    3  A    between atoms: C_13  and  C_16
REMARK    4  A    between atoms: C_16  and  O_18
REMARK    5  A    between atoms: C_16  and  C_19
REMARK    6  A    between atoms: C_19  and  O_20
REMARK                            x       y       z     vdW  Elec       q    Type
REMARK                         _______ _______ _______ _____ _____    ______ ____
ROOT
ATOM      1  N   UNL     1      10.155   2.179  21.521  0.00  0.00    -0.329 N 
ATOM      2  H   UNL     1      10.608   1.685  20.762  0.00  0.00    +0.145 HD
ATOM      3  H   UNL     1       9.946   3.137  21.256  0.00  0.00    +0.145 HD
ATOM      4  C   UNL     1       9.051   1.574  22.023  0.00  0.00    +0.195 A 
ATOM      5  N   UNL     1       9.195   0.243  22.242  0.00  0.00    -0.311 N 
ATOM      6  H   UNL     1      10.119  -0.164  22.260  0.00  0.00    +0.170 HD
ATOM      7  C   UNL     1       8.254  -0.475  22.944  0.00  0.00    +0.160 A 
ATOM      8  N   UNL     1       8.483  -1.797  23.302  0.00  0.00    -0.233 NA
ATOM      9  C   UNL     1       7.501  -2.464  23.872  0.00  0.00    +0.069 C 
ATOM     10  C   UNL     1       6.103  -1.894  24.159  0.00  0.00    +0.155 C 
ATOM     11  N   UNL     1       6.084  -0.459  23.985  0.00  0.00    -0.331 N 
ATOM     12  H   UNL     1       5.185   0.012  23.888  0.00  0.00    +0.147 HD
ATOM     13  C   UNL     1       7.099   0.152  23.268  0.00  0.00    +0.137 A 
ATOM     14  C   UNL     1       6.898   1.576  22.775  0.00  0.00    +0.298 A 
ATOM     15  O   UNL     1       5.773   2.068  22.857  0.00  0.00    -0.264 OA
ATOM     16  N   UNL     1       7.982   2.250  22.265  0.00  0.00    -0.176 NA
ENDROOT
BRANCH   9  17
ATOM     17  C   UNL     1       7.729  -3.977  24.101  0.00  0.00    +0.191 C 
BRANCH  17  18
ATOM     18  O   UNL     1       7.753  -4.673  22.856  0.00  0.00    -0.383 OA
ATOM     19  H   UNL     1       7.701  -5.622  23.089  0.00  0.00    +0.210 HD
ENDBRANCH  17  18
BRANCH  17  20
ATOM     20  C   UNL     1       8.954  -4.386  24.928  0.00  0.00    +0.174 C 
BRANCH  20  21
ATOM     21  O   UNL     1       9.470  -5.649  24.487  0.00  0.00    -0.387 OA
ATOM     22  H   UNL     1       9.771  -5.512  23.564  0.00  0.00    +0.210 HD
ENDBRANCH  20  21
BRANCH  20  23
ATOM     23  C   UNL     1       8.741  -4.406  26.444  0.00  0.00    +0.190 C 
BRANCH  23  24
ATOM     24  O   UNL     1       8.365  -5.739  26.822  0.00  0.00    -0.392 OA
ATOM     25  H   UNL     1       8.544  -5.842  27.774  0.00  0.00    +0.210 HD
ENDBRANCH  23  24
ENDBRANCH  20  23
ENDBRANCH  17  20
ENDBRANCH   9  17
TORSDOF 6
ENDMDL
MODEL 7
REMARK VINA RESULT:      -5.6      2.119      3.329
REMARK  Name = 
REMARK  6 active torsions:
REMARK  status: ('A' for Active; 'I' for Inactive)
REMARK    1  A    between atoms: C_10  and  C_13
REMARK    2  A    between atoms: C_13  and  O_15
REMARK    3  A    between atoms: C_13  and  C_16
REMARK    4  A    between atoms: C_16  and  O_18
REMARK    5  A    between atoms: C_16  and  C_19
REMARK    6  A    between atoms: C_19  and  O_20
REMARK                            x       y       z     vdW  Elec       q    Type
REMARK                         _______ _______ _______ _____ _____    ______ ____
ROOT
ATOM      1  N   UNL     1       6.143  -5.273  21.228  0.00  0.00    -0.329 N 
ATOM      2  H   UNL     1       6.365  -5.047  20.266  0.00  0.00    +0.145 HD
ATOM      3  H   UNL     1       6.081  -6.279  21.357  0.00  0.00    +0.145 HD
ATOM      4  C   UNL     1       6.969  -4.725  22.153  0.00  0.00    +0.195 A 
ATOM      5  N   UNL     1       7.245  -3.414  21.947  0.00  0.00    -0.311 N 
ATOM      6  H   UNL     1       6.673  -2.876  21.312  0.00  0.00    +0.170 HD
ATOM      7  C   UNL     1       7.885  -2.657  22.901  0.00  0.00    +0.160 A 
ATOM      8  N   UNL     1       8.020  -1.282  22.752  0.00  0.00    -0.233 NA
ATOM      9  C   UNL     1       8.740  -0.631  23.642  0.00  0.00    +0.069 C 
ATOM     10  C   UNL     1       9.463  -1.280  24.833  0.00  0.00    +0.155 C 
ATOM     11  N   UNL     1       9.028  -2.646  25.019  0.00  0.00    -0.331 N 
ATOM     12  H   UNL     1       9.597  -3.268  25.592  0.00  0.00    +0.147 HD
ATOM     13  C   UNL     1       8.378  -3.299  23.985  0.00  0.00    +0.137 A 
ATOM     14  C   UNL     1       8.252  -4.813  24.036  0.00  0.00    +0.298 A 
ATOM     15  O   UNL     1       8.896  -5.424  24.887  0.00  0.00    -0.264 OA
ATOM     16  N   UNL     1       7.420  -5.430  23.132  0.00  0.00    -0.176 NA
ENDROOT
BRANCH   9  17
ATOM     17  C   UNL     1       9.014   0.865  23.354  0.00  0.00    +0.191 C 
BRANCH  17  18
ATOM     18  O   UNL     1      10.376   1.187  23.635  0.00  0.00    -0.383 OA
ATOM     19  H   UNL     1      10.484   2.118  23.357  0.00  0.00    +0.210 HD
ENDBRANCH  17  18
BRANCH  17  20
ATOM     20  C   UNL     1       8.652   1.390  21.960  0.00  0.00    +0.174 C 
BRANCH  20  21
ATOM     21  O   UNL     1       9.739   2.134  21.395  0.00  0.00    -0.387 OA
ATOM     22  H   UNL     1       9.935   1.715  20.530  0.00  0.00    +0.210 HD
ENDBRANCH  20  21
BRANCH  20  23
ATOM     23  C   UNL     1       7.360   2.210  21.886  0.00  0.00    +0.190 C 
BRANCH  23  24
ATOM     24  O   UNL     1       6.279   1.377  22.331  0.00  0.00    -0.392 OA
ATOM     25  H   UNL     1       5.641   1.300  21.599  0.00  0.00    +0.210 HD
ENDBRANCH  23  24
ENDBRANCH  20  23
ENDBRANCH  17  20
ENDBRANCH   9  17
TORSDOF 6
ENDMDL
MODEL 8
REMARK VINA RESULT:      -5.5      1.764      2.574
REMARK  Name = 
REMARK  6 active torsions:
REMARK  status: ('A' for Active; 'I' for Inactive)
REMARK    1  A    between atoms: C_10  and  C_13
REMARK    2  A    between atoms: C_13  and  O_15
REMARK    3  A    between atoms: C_13  and  C_16
REMARK    4  A    between atoms: C_16  and  O_18
REMARK    5  A    between atoms: C_16  and  C_19
REMARK    6  A    between atoms: C_19  and  O_20
REMARK                            x       y       z     vdW  Elec       q    Type
REMARK                         _______ _______ _______ _____ _____    ______ ____
ROOT
ATOM      1  N   UNL     1       5.308  -6.180  22.265  0.00  0.00    -0.329 N 
ATOM      2  H   UNL     1       5.774  -6.510  21.428  0.00  0.00    +0.145 HD
ATOM      3  H   UNL     1       4.898  -6.954  22.779  0.00  0.00    +0.145 HD
ATOM      4  C   UNL     1       6.070  -5.415  23.083  0.00  0.00    +0.195 A 
ATOM      5  N   UNL     1       6.794  -4.462  22.444  0.00  0.00    -0.311 N 
ATOM      6  H   UNL     1       6.562  -4.213  21.493  0.00  0.00    +0.170 HD
ATOM      7  C   UNL     1       7.447  -3.471  23.139  0.00  0.00    +0.160 A 
ATOM      8  N   UNL     1       8.048  -2.409  22.475  0.00  0.00    -0.233 NA
ATOM      9  C   UNL     1       8.754  -1.554  23.186  0.00  0.00    +0.069 C 
ATOM     10  C   UNL     1       8.980  -1.648  24.703  0.00  0.00    +0.155 C 
ATOM     11  N   UNL     1       8.097  -2.627  25.297  0.00  0.00    -0.331 N 
ATOM     12  H   UNL     1       8.309  -2.977  26.231  0.00  0.00    +0.147 HD
ATOM     13  C   UNL     1       7.484  -3.569  24.488  0.00  0.00    +0.137 A 
ATOM     14  C   UNL     1       6.864  -4.799  25.131  0.00  0.00    +0.298 A 
ATOM     15  O   UNL     1       7.096  -5.016  26.319  0.00  0.00    -0.264 OA
ATOM     16  N   UNL     1       6.069  -5.610  24.356  0.00  0.00    -0.176 NA
ENDROOT
BRANCH   9  17
ATOM     17  C   UNL     1       9.550  -0.486  22.398  0.00  0.00    +0.191 C 
BRANCH  17  18
ATOM     18  O   UNL     1       9.952  -0.998  21.128  0.00  0.00    -0.383 OA
ATOM     19  H   UNL     1       9.285  -0.668  20.494  0.00  0.00    +0.210 HD
ENDBRANCH  17  18
BRANCH  17  20
ATOM     20  C   UNL     1       8.887   0.882  22.201  0.00  0.00    +0.174 C 
BRANCH  20  21
ATOM     21  O   UNL     1       8.605   1.118  20.815  0.00  0.00    -0.387 OA
ATOM     22  H   UNL     1       8.130   0.323  20.495  0.00  0.00    +0.210 HD
ENDBRANCH  20  21
BRANCH  20  23
ATOM     23  C   UNL     1       9.651   2.070  22.792  0.00  0.00    +0.190 C 
BRANCH  23  24
ATOM     24  O   UNL     1      10.545   2.568  21.785  0.00  0.00    -0.392 OA
ATOM     25  H   UNL     1      10.105   2.471  20.921  0.00  0.00    +0.210 HD
ENDBRANCH  23  24
ENDBRANCH  20  23
ENDBRANCH  17  20
ENDBRANCH   9  17
TORSDOF 6
ENDMDL
MODEL 9
REMARK VINA RESULT:      -5.4      2.950      6.220
REMARK  Name = 
REMARK  6 active torsions:
REMARK  status: ('A' for Active; 'I' for Inactive)
REMARK    1  A    between atoms: C_10  and  C_13
REMARK    2  A    between atoms: C_13  and  O_15
REMARK    3  A    between atoms: C_13  and  C_16
REMARK    4  A    between atoms: C_16  and  O_18
REMARK    5  A    between atoms: C_16  and  C_19
REMARK    6  A    between atoms: C_19  and  O_20
REMARK                            x       y       z     vdW  Elec       q    Type
REMARK                         _______ _______ _______ _____ _____    ______ ____
ROOT
ATOM      1  N   UNL     1      10.027   1.868  21.662  0.00  0.00    -0.329 N 
ATOM      2  H   UNL     1       9.728   1.429  20.799  0.00  0.00    +0.145 HD
ATOM      3  H   UNL     1       9.840   2.867  21.642  0.00  0.00    +0.145 HD
ATOM      4  C   UNL     1       9.529   1.313  22.793  0.00  0.00    +0.195 A 
ATOM      5  N   UNL     1       9.582  -0.042  22.820  0.00  0.00    -0.311 N 
ATOM      6  H   UNL     1      10.172  -0.532  22.163  0.00  0.00    +0.170 HD
ATOM      7  C   UNL     1       9.321  -0.747  23.971  0.00  0.00    +0.160 A 
ATOM      8  N   UNL     1       9.534  -2.119  24.034  0.00  0.00    -0.233 NA
ATOM      9  C   UNL     1       9.158  -2.755  25.125  0.00  0.00    +0.069 C 
ATOM     10  C   UNL     1       8.482  -2.095  26.337  0.00  0.00    +0.155 C 
ATOM     11  N   UNL     1       8.562  -0.654  26.254  0.00  0.00    -0.331 N 
ATOM     12  H   UNL     1       7.944  -0.093  26.839  0.00  0.00    +0.147 HD
ATOM     13  C   UNL     1       8.848  -0.059  25.036  0.00  0.00    +0.137 A 
ATOM     14  C   UNL     1       8.575   1.426  24.861  0.00  0.00    +0.298 A 
ATOM     15  O   UNL     1       7.931   2.008  25.733  0.00  0.00    -0.264 OA
ATOM     16  N   UNL     1       9.064   2.052  23.739  0.00  0.00    -0.176 NA
ENDROOT
BRANCH   9  17
ATOM     17  C   UNL     1       9.249  -4.299  25.095  0.00  0.00    +0.191 C 
BRANCH  17  18
ATOM     18  O   UNL     1       9.496  -4.810  26.405  0.00  0.00    -0.383 OA
ATOM     19  H   UNL     1       9.862  -5.707  26.268  0.00  0.00    +0.210 HD
ENDBRANCH  17  18
BRANCH  17  20
ATOM     20  C   UNL     1       8.074  -5.061  24.472  0.00  0.00    +0.174 C 
BRANCH  20  21
ATOM     21  O   UNL     1       7.785  -4.568  23.157  0.00  0.00    -0.387 OA
ATOM     22  H   UNL     1       8.566  -4.788  22.607  0.00  0.00    +0.210 HD
ENDBRANCH  20  21
BRANCH  20  23
ATOM     23  C   UNL     1       6.795  -5.091  25.314  0.00  0.00    +0.190 C 
BRANCH  23  24
ATOM     24  O   UNL     1       7.021  -5.962  26.432  0.00  0.00    -0.392 OA
ATOM     25  H   UNL     1       7.535  -5.470  27.096  0.00  0.00    +0.210 HD
ENDBRANCH  23  24
ENDBRANCH  20  23
ENDBRANCH  17  20
ENDBRANCH   9  17
TORSDOF 6
ENDMDL
