MODEL 1
REMARK VINA RESULT:      -7.1      0.000      0.000
REMARK  Name = 
REMARK  14 active torsions:
REMARK  status: ('A' for Active; 'I' for Inactive)
REMARK    1  A    between atoms: C_1  and  C_2
REMARK    2  A    between atoms: C_4  and  C_5
REMARK    3  A    between atoms: C_13  and  C_14
REMARK    4  A    between atoms: C_14  and  C_15
REMARK    5  A    between atoms: C_15  and  C_16
REMARK    6  A    between atoms: C_16  and  O_17
REMARK    7  A    between atoms: C_19  and  C_20
REMARK    8  A    between atoms: C_31  and  C_32
REMARK    9  A    between atoms: C_34  and  C_35
REMARK   10  A    between atoms: C_36  and  C_37
REMARK   11  A    between atoms: C_37  and  C_38
REMARK   12  A    between atoms: C_38  and  C_39
REMARK   13  A    between atoms: C_39  and  O_40
REMARK   14  A    between atoms: C_42  and  C_43
REMARK                            x       y       z     vdW  Elec       q    Type
REMARK                         _______ _______ _______ _____ _____    ______ ____
ROOT
ATOM      1  C   UNL     1      11.466   4.136  23.393  0.00  0.00    +0.000 C 
ATOM      2  C   UNL     1      10.174   3.207  23.577  0.00  0.00    +0.000 C 
ATOM      3  C   UNL     1       8.819   2.463  24.228  0.00  0.00    +0.000 A 
ATOM      4  C   UNL     1       7.499   1.977  25.456  0.00  0.00    +0.000 A 
ATOM      5  N   UNL     1       7.012   0.958  24.814  0.00  0.00    +0.000 N 
ATOM      6 ZN   UNL     1       6.111  -0.511  26.000  0.00  0.00    +0.000 Zn
ATOM      7  N   UNL     1       5.817  -2.315  27.126  0.00  0.00    +0.000 N 
ATOM      8  C   UNL     1       4.857  -3.026  27.703  0.00  0.00    +0.000 A 
ATOM      9  C   UNL     1       3.740  -2.427  28.079  0.00  0.00    +0.000 C 
ATOM     10  C   UNL     1       3.774  -1.110  28.083  0.00  0.00    +0.000 A 
ATOM     11  C   UNL     1       2.999  -0.612  29.066  0.00  0.00    +0.000 A 
ATOM     12  C   UNL     1       1.950  -1.422  29.899  0.00  0.00    +0.000 C 
ATOM     13  C   UNL     1       1.289  -2.961  30.006  0.00  0.00    +0.000 C 
ATOM     14  C   UNL     1       3.558   0.783  29.158  0.00  0.00    +0.000 A 
ATOM     15  C   UNL     1       2.656   1.309  30.476  0.00  0.00    +0.000 C 
ATOM     16  C   UNL     1       4.830   0.973  27.902  0.00  0.00    +0.000 A 
ATOM     17  C   UNL     1       5.132  -4.377  27.800  0.00  0.00    +0.000 A 
ATOM     18  C   UNL     1       4.151  -5.494  28.148  0.00  0.00    +0.000 C 
ATOM     19  C   UNL     1       6.356  -4.443  27.207  0.00  0.00    +0.000 A 
ATOM     20  C   UNL     1       6.731  -3.163  26.967  0.00  0.00    +0.000 A 
ATOM     21  C   UNL     1       7.644  -2.560  26.259  0.00  0.00    +0.000 C 
ATOM     22  C   UNL     1       7.288  -2.501  25.007  0.00  0.00    +0.000 A 
ATOM     23  C   UNL     1       6.354  -3.052  24.128  0.00  0.00    +0.000 A 
ATOM     24  C   UNL     1       6.535  -2.405  22.932  0.00  0.00    +0.000 A 
ATOM     25  C   UNL     1       5.928  -2.448  21.559  0.00  0.00    +0.000 C 
ATOM     26  C   UNL     1       7.103  -1.298  23.346  0.00  0.00    +0.000 A 
ATOM     27  C   UNL     1       7.289  -0.258  22.646  0.00  0.00    +0.000 C 
ATOM     28  N   UNL     1       4.708  -0.248  27.368  0.00  0.00    +0.000 N 
ATOM     29  N   UNL     1       7.379  -1.328  24.653  0.00  0.00    +0.000 N 
ATOM     30  C   UNL     1       7.530   0.850  23.485  0.00  0.00    +0.000 A 
ATOM     31  C   UNL     1       6.406   1.898  26.880  0.00  0.00    +0.000 C 
ATOM     32  C   UNL     1       8.442   1.618  23.039  0.00  0.00    +0.000 A 
ATOM     33  C   UNL     1       9.072   1.454  21.369  0.00  0.00    +0.000 C 
ENDROOT
BRANCH  19  34
ATOM     34  C   UNL     1       7.082  -5.554  26.615  0.00  0.00    +0.000 C 
BRANCH  34  35
ATOM     35  C   UNL     1       8.555  -5.228  26.692  0.00  0.00    +0.000 C 
BRANCH  35  36
ATOM     36  C   UNL     1       9.272  -5.493  25.438  0.00  0.00    +0.000 C 
ATOM     37  O   UNL     1       8.681  -5.636  24.378  0.00  0.00    +0.000 OA
BRANCH  36  38
ATOM     38  O   UNL     1      10.614  -5.484  25.481  0.00  0.00    +0.000 OA
ATOM     39  H   UNL     1      11.111  -5.306  24.665  0.00  0.00    +0.000 HD
ENDBRANCH  36  38
ENDBRANCH  35  36
ENDBRANCH  34  35
ENDBRANCH  19  34
BRANCH  23  40
ATOM     40  C   UNL     1       5.000  -3.466  24.609  0.00  0.00    +0.000 C 
BRANCH  40  41
ATOM     41  C   UNL     1       4.289  -4.403  23.717  0.00  0.00    +0.000 C 
BRANCH  41  42
ATOM     42  C   UNL     1       4.887  -5.753  23.833  0.00  0.00    +0.000 C 
ATOM     43  O   UNL     1       4.439  -6.550  24.637  0.00  0.00    +0.000 OA
BRANCH  42  44
ATOM     44  O   UNL     1       5.918  -6.100  23.033  0.00  0.00    +0.000 OA
ATOM     45  H   UNL     1       6.429  -5.442  22.536  0.00  0.00    +0.000 HD
ENDBRANCH  42  44
ENDBRANCH  41  42
ENDBRANCH  40  41
ENDBRANCH  23  40
TORSDOF 8
ENDMDL
MODEL 2
REMARK VINA RESULT:      -7.1      1.819      2.720
REMARK  Name = 
REMARK  14 active torsions:
REMARK  status: ('A' for Active; 'I' for Inactive)
REMARK    1  A    between atoms: C_1  and  C_2
REMARK    2  A    between atoms: C_4  and  C_5
REMARK    3  A    between atoms: C_13  and  C_14
REMARK    4  A    between atoms: C_14  and  C_15
REMARK    5  A    between atoms: C_15  and  C_16
REMARK    6  A    between atoms: C_16  and  O_17
REMARK    7  A    between atoms: C_19  and  C_20
REMARK    8  A    between atoms: C_31  and  C_32
REMARK    9  A    between atoms: C_34  and  C_35
REMARK   10  A    between atoms: C_36  and  C_37
REMARK   11  A    between atoms: C_37  and  C_38
REMARK   12  A    between atoms: C_38  and  C_39
REMARK   13  A    between atoms: C_39  and  O_40
REMARK   14  A    between atoms: C_42  and  C_43
REMARK                            x       y       z     vdW  Elec       q    Type
REMARK                         _______ _______ _______ _____ _____    ______ ____
ROOT
ATOM      1  C   UNL     1      12.274   7.108  25.219  0.00  0.00    +0.000 C 
ATOM      2  C   UNL     1      11.221   5.954  24.866  0.00  0.00    +0.000 C 
ATOM      3  C   UNL     1       9.885   4.941  24.908  0.00  0.00    +0.000 A 
ATOM      4  C   UNL     1       8.294   4.151  25.485  0.00  0.00    +0.000 A 
ATOM      5  N   UNL     1       8.315   3.104  24.715  0.00  0.00    +0.000 N 
ATOM      6 ZN   UNL     1       7.300   1.427  25.444  0.00  0.00    +0.000 Zn
ATOM      7  N   UNL     1       6.915  -0.468  26.377  0.00  0.00    +0.000 N 
ATOM      8  C   UNL     1       5.955  -1.374  26.515  0.00  0.00    +0.000 A 
ATOM      9  C   UNL     1       4.691  -1.008  26.384  0.00  0.00    +0.000 C 
ATOM     10  C   UNL     1       4.472   0.291  26.380  0.00  0.00    +0.000 A 
ATOM     11  C   UNL     1       3.284   0.580  26.944  0.00  0.00    +0.000 A 
ATOM     12  C   UNL     1       2.158  -0.454  27.279  0.00  0.00    +0.000 C 
ATOM     13  C   UNL     1       1.814  -2.091  27.128  0.00  0.00    +0.000 C 
ATOM     14  C   UNL     1       3.482   2.044  27.236  0.00  0.00    +0.000 A 
ATOM     15  C   UNL     1       2.037   2.317  28.052  0.00  0.00    +0.000 C 
ATOM     16  C   UNL     1       5.097   2.536  26.618  0.00  0.00    +0.000 A 
ATOM     17  C   UNL     1       6.415  -2.657  26.740  0.00  0.00    +0.000 A 
ATOM     18  C   UNL     1       5.607  -3.951  26.668  0.00  0.00    +0.000 C 
ATOM     19  C   UNL     1       7.762  -2.467  26.710  0.00  0.00    +0.000 A 
ATOM     20  C   UNL     1       7.956  -1.128  26.625  0.00  0.00    +0.000 A 
ATOM     21  C   UNL     1       8.947  -0.329  26.350  0.00  0.00    +0.000 C 
ATOM     22  C   UNL     1       9.132  -0.255  25.063  0.00  0.00    +0.000 A 
ATOM     23  C   UNL     1       8.763  -0.906  23.884  0.00  0.00    +0.000 A 
ATOM     24  C   UNL     1       9.294  -0.163  22.861  0.00  0.00    +0.000 A 
ATOM     25  C   UNL     1       9.324  -0.227  21.361  0.00  0.00    +0.000 C 
ATOM     26  C   UNL     1       9.423   0.998  23.456  0.00  0.00    +0.000 A 
ATOM     27  C   UNL     1       9.681   2.097  22.878  0.00  0.00    +0.000 C 
ATOM     28  N   UNL     1       5.437   1.349  26.102  0.00  0.00    +0.000 N 
ATOM     29  N   UNL     1       9.138   0.935  24.759  0.00  0.00    +0.000 N 
ATOM     30  C   UNL     1       9.343   3.175  23.723  0.00  0.00    +0.000 A 
ATOM     31  C   UNL     1       6.749   3.789  26.328  0.00  0.00    +0.000 C 
ATOM     32  C   UNL     1      10.195   4.119  23.683  0.00  0.00    +0.000 A 
ATOM     33  C   UNL     1      11.473   4.176  22.428  0.00  0.00    +0.000 C 
ENDROOT
BRANCH  19  34
ATOM     34  C   UNL     1       8.862  -3.392  26.491  0.00  0.00    +0.000 C 
BRANCH  34  35
ATOM     35  C   UNL     1       8.286  -4.649  25.883  0.00  0.00    +0.000 C 
BRANCH  35  36
ATOM     36  C   UNL     1       9.172  -5.269  24.888  0.00  0.00    +0.000 C 
ATOM     37  O   UNL     1       8.744  -5.703  23.830  0.00  0.00    +0.000 OA
BRANCH  36  38
ATOM     38  O   UNL     1      10.490  -5.261  25.146  0.00  0.00    +0.000 OA
ATOM     39  H   UNL     1      10.898  -4.451  25.491  0.00  0.00    +0.000 HD
ENDBRANCH  36  38
ENDBRANCH  35  36
ENDBRANCH  34  35
ENDBRANCH  19  34
BRANCH  23  40
ATOM     40  C   UNL     1       7.435  -1.584  23.767  0.00  0.00    +0.000 C 
BRANCH  40  41
ATOM     41  C   UNL     1       7.386  -2.676  22.775  0.00  0.00    +0.000 C 
BRANCH  41  42
ATOM     42  C   UNL     1       6.171  -3.494  22.992  0.00  0.00    +0.000 C 
ATOM     43  O   UNL     1       5.114  -2.953  23.266  0.00  0.00    +0.000 OA
BRANCH  42  44
ATOM     44  O   UNL     1       6.235  -4.837  22.869  0.00  0.00    +0.000 OA
ATOM     45  H   UNL     1       5.643  -5.429  23.360  0.00  0.00    +0.000 HD
ENDBRANCH  42  44
ENDBRANCH  41  42
ENDBRANCH  40  41
ENDBRANCH  23  40
TORSDOF 8
ENDMDL
MODEL 3
REMARK VINA RESULT:      -6.3      4.663      8.112
REMARK  Name = 
REMARK  14 active torsions:
REMARK  status: ('A' for Active; 'I' for Inactive)
REMARK    1  A    between atoms: C_1  and  C_2
REMARK    2  A    between atoms: C_4  and  C_5
REMARK    3  A    between atoms: C_13  and  C_14
REMARK    4  A    between atoms: C_14  and  C_15
REMARK    5  A    between atoms: C_15  and  C_16
REMARK    6  A    between atoms: C_16  and  O_17
REMARK    7  A    between atoms: C_19  and  C_20
REMARK    8  A    between atoms: C_31  and  C_32
REMARK    9  A    between atoms: C_34  and  C_35
REMARK   10  A    between atoms: C_36  and  C_37
REMARK   11  A    between atoms: C_37  and  C_38
REMARK   12  A    between atoms: C_38  and  C_39
REMARK   13  A    between atoms: C_39  and  O_40
REMARK   14  A    between atoms: C_42  and  C_43
REMARK                            x       y       z     vdW  Elec       q    Type
REMARK                         _______ _______ _______ _____ _____    ______ ____
ROOT
ATOM      1  C   UNL     1       7.037  -5.052  21.800  0.00  0.00    +0.000 C 
ATOM      2  C   UNL     1       7.264  -3.681  22.599  0.00  0.00    +0.000 C 
ATOM      3  C   UNL     1       7.076  -2.406  23.672  0.00  0.00    +0.000 A 
ATOM      4  C   UNL     1       6.340  -1.319  24.999  0.00  0.00    +0.000 A 
ATOM      5  N   UNL     1       7.077  -0.266  24.809  0.00  0.00    +0.000 N 
ATOM      6 ZN   UNL     1       6.214   1.555  25.370  0.00  0.00    +0.000 Zn
ATOM      7  N   UNL     1       5.196   3.442  25.254  0.00  0.00    +0.000 N 
ATOM      8  C   UNL     1       4.949   4.527  25.978  0.00  0.00    +0.000 A 
ATOM      9  C   UNL     1       4.980   4.450  27.297  0.00  0.00    +0.000 C 
ATOM     10  C   UNL     1       5.003   3.231  27.796  0.00  0.00    +0.000 A 
ATOM     11  C   UNL     1       4.346   3.180  28.971  0.00  0.00    +0.000 A 
ATOM     12  C   UNL     1       3.884   4.417  29.812  0.00  0.00    +0.000 C 
ATOM     13  C   UNL     1       3.958   6.094  29.798  0.00  0.00    +0.000 C 
ATOM     14  C   UNL     1       4.116   1.696  29.077  0.00  0.00    +0.000 A 
ATOM     15  C   UNL     1       3.185   1.704  30.478  0.00  0.00    +0.000 C 
ATOM     16  C   UNL     1       4.886   0.895  27.663  0.00  0.00    +0.000 A 
ATOM     17  C   UNL     1       4.727   5.668  25.230  0.00  0.00    +0.000 A 
ATOM     18  C   UNL     1       4.691   7.108  25.737  0.00  0.00    +0.000 C 
ATOM     19  C   UNL     1       4.880   5.192  23.964  0.00  0.00    +0.000 A 
ATOM     20  C   UNL     1       5.020   3.848  24.078  0.00  0.00    +0.000 A 
ATOM     21  C   UNL     1       5.404   2.867  23.311  0.00  0.00    +0.000 C 
ATOM     22  C   UNL     1       6.704   2.816  23.248  0.00  0.00    +0.000 A 
ATOM     23  C   UNL     1       7.826   3.587  23.556  0.00  0.00    +0.000 A 
ATOM     24  C   UNL     1       8.913   2.796  23.284  0.00  0.00    +0.000 A 
ATOM     25  C   UNL     1      10.408   2.923  23.358  0.00  0.00    +0.000 C 
ATOM     26  C   UNL     1       8.366   1.608  23.367  0.00  0.00    +0.000 A 
ATOM     27  C   UNL     1       8.996   0.508  23.403  0.00  0.00    +0.000 C 
ATOM     28  N   UNL     1       5.394   2.004  27.112  0.00  0.00    +0.000 N 
ATOM     29  N   UNL     1       7.042   1.669  23.528  0.00  0.00    +0.000 N 
ATOM     30  C   UNL     1       8.157  -0.510  23.903  0.00  0.00    +0.000 A 
ATOM     31  C   UNL     1       5.355  -0.671  26.356  0.00  0.00    +0.000 C 
ATOM     32  C   UNL     1       8.298  -1.614  23.286  0.00  0.00    +0.000 A 
ATOM     33  C   UNL     1       9.660  -1.886  22.153  0.00  0.00    +0.000 C 
ENDROOT
BRANCH  19  34
ATOM     34  C   UNL     1       5.167   5.866  22.709  0.00  0.00    +0.000 C 
BRANCH  34  35
ATOM     35  C   UNL     1       3.899   6.555  22.262  0.00  0.00    +0.000 C 
BRANCH  35  36
ATOM     36  C   UNL     1       2.806   5.620  21.964  0.00  0.00    +0.000 C 
ATOM     37  O   UNL     1       1.716   5.711  22.508  0.00  0.00    +0.000 OA
BRANCH  36  38
ATOM     38  O   UNL     1       3.018   4.711  20.999  0.00  0.00    +0.000 OA
ATOM     39  H   UNL     1       3.904   4.634  20.610  0.00  0.00    +0.000 HD
ENDBRANCH  36  38
ENDBRANCH  35  36
ENDBRANCH  34  35
ENDBRANCH  19  34
BRANCH  23  40
ATOM     40  C   UNL     1       7.808   4.542  24.707  0.00  0.00    +0.000 C 
BRANCH  40  41
ATOM     41  C   UNL     1       8.328   5.888  24.400  0.00  0.00    +0.000 C 
BRANCH  41  42
ATOM     42  C   UNL     1       9.538   6.154  25.212  0.00  0.00    +0.000 C 
ATOM     43  O   UNL     1       9.447   6.267  26.422  0.00  0.00    +0.000 OA
BRANCH  42  44
ATOM     44  O   UNL     1      10.742   6.254  24.608  0.00  0.00    +0.000 OA
ATOM     45  H   UNL     1      11.524   6.596  25.071  0.00  0.00    +0.000 HD
ENDBRANCH  42  44
ENDBRANCH  41  42
ENDBRANCH  40  41
ENDBRANCH  23  40
TORSDOF 8
ENDMDL
MODEL 4
REMARK VINA RESULT:      -6.0      2.318      4.190
REMARK  Name = 
REMARK  14 active torsions:
REMARK  status: ('A' for Active; 'I' for Inactive)
REMARK    1  A    between atoms: C_1  and  C_2
REMARK    2  A    between atoms: C_4  and  C_5
REMARK    3  A    between atoms: C_13  and  C_14
REMARK    4  A    between atoms: C_14  and  C_15
REMARK    5  A    between atoms: C_15  and  C_16
REMARK    6  A    between atoms: C_16  and  O_17
REMARK    7  A    between atoms: C_19  and  C_20
REMARK    8  A    between atoms: C_31  and  C_32
REMARK    9  A    between atoms: C_34  and  C_35
REMARK   10  A    between atoms: C_36  and  C_37
REMARK   11  A    between atoms: C_37  and  C_38
REMARK   12  A    between atoms: C_38  and  C_39
REMARK   13  A    between atoms: C_39  and  O_40
REMARK   14  A    between atoms: C_42  and  C_43
REMARK                            x       y       z     vdW  Elec       q    Type
REMARK                         _______ _______ _______ _____ _____    ______ ____
ROOT
ATOM      1  C   UNL     1       6.402   6.891  29.799  0.00  0.00    +0.000 C 
ATOM      2  C   UNL     1       6.052   5.579  28.950  0.00  0.00    +0.000 C 
ATOM      3  C   UNL     1       5.617   4.014  28.532  0.00  0.00    +0.000 A 
ATOM      4  C   UNL     1       5.144   2.215  28.701  0.00  0.00    +0.000 A 
ATOM      5  N   UNL     1       5.315   1.859  27.463  0.00  0.00    +0.000 N 
ATOM      6 ZN   UNL     1       5.774  -0.159  27.159  0.00  0.00    +0.000 Zn
ATOM      7  N   UNL     1       6.894  -1.958  26.815  0.00  0.00    +0.000 N 
ATOM      8  C   UNL     1       6.722  -3.234  26.494  0.00  0.00    +0.000 A 
ATOM      9  C   UNL     1       5.565  -3.820  26.751  0.00  0.00    +0.000 C 
ATOM     10  C   UNL     1       4.754  -3.154  27.547  0.00  0.00    +0.000 A 
ATOM     11  C   UNL     1       4.024  -3.995  28.303  0.00  0.00    +0.000 A 
ATOM     12  C   UNL     1       3.891  -5.539  28.081  0.00  0.00    +0.000 C 
ATOM     13  C   UNL     1       4.392  -6.745  27.025  0.00  0.00    +0.000 C 
ATOM     14  C   UNL     1       3.572  -3.050  29.385  0.00  0.00    +0.000 A 
ATOM     15  C   UNL     1       2.785  -4.171  30.361  0.00  0.00    +0.000 C 
ATOM     16  C   UNL     1       4.193  -1.407  29.003  0.00  0.00    +0.000 A 
ATOM     17  C   UNL     1       7.805  -3.808  25.856  0.00  0.00    +0.000 A 
ATOM     18  C   UNL     1       7.837  -5.146  25.119  0.00  0.00    +0.000 C 
ATOM     19  C   UNL     1       8.666  -2.756  25.792  0.00  0.00    +0.000 A 
ATOM     20  C   UNL     1       8.094  -1.753  26.501  0.00  0.00    +0.000 A 
ATOM     21  C   UNL     1       8.276  -0.471  26.646  0.00  0.00    +0.000 C 
ATOM     22  C   UNL     1       7.756   0.182  25.645  0.00  0.00    +0.000 A 
ATOM     23  C   UNL     1       7.252  -0.041  24.362  0.00  0.00    +0.000 A 
ATOM     24  C   UNL     1       6.772   1.169  23.931  0.00  0.00    +0.000 A 
ATOM     25  C   UNL     1       6.107   1.709  22.697  0.00  0.00    +0.000 C 
ATOM     26  C   UNL     1       6.567   1.765  25.081  0.00  0.00    +0.000 A 
ATOM     27  C   UNL     1       5.926   2.846  25.247  0.00  0.00    +0.000 C 
ATOM     28  N   UNL     1       4.787  -1.727  27.847  0.00  0.00    +0.000 N 
ATOM     29  N   UNL     1       7.018   1.045  26.112  0.00  0.00    +0.000 N 
ATOM     30  C   UNL     1       5.546   2.976  26.599  0.00  0.00    +0.000 A 
ATOM     31  C   UNL     1       4.616   0.618  29.331  0.00  0.00    +0.000 C 
ATOM     32  C   UNL     1       5.667   4.166  27.034  0.00  0.00    +0.000 A 
ATOM     33  C   UNL     1       5.959   5.543  25.925  0.00  0.00    +0.000 C 
ENDROOT
BRANCH  19  34
ATOM     34  C   UNL     1       9.818  -2.503  24.942  0.00  0.00    +0.000 C 
BRANCH  34  35
ATOM     35  C   UNL     1       9.365  -2.642  23.508  0.00  0.00    +0.000 C 
BRANCH  35  36
ATOM     36  C   UNL     1       9.937  -1.621  22.619  0.00  0.00    +0.000 C 
ATOM     37  O   UNL     1      10.568  -0.671  23.055  0.00  0.00    +0.000 OA
BRANCH  36  38
ATOM     38  O   UNL     1       9.818  -1.818  21.296  0.00  0.00    +0.000 OA
ATOM     39  H   UNL     1       8.944  -2.028  20.927  0.00  0.00    +0.000 HD
ENDBRANCH  36  38
ENDBRANCH  35  36
ENDBRANCH  34  35
ENDBRANCH  19  34
BRANCH  23  40
ATOM     40  C   UNL     1       6.579  -1.331  24.015  0.00  0.00    +0.000 C 
BRANCH  40  41
ATOM     41  C   UNL     1       6.470  -1.600  22.569  0.00  0.00    +0.000 C 
BRANCH  41  42
ATOM     42  C   UNL     1       5.764  -2.883  22.351  0.00  0.00    +0.000 C 
ATOM     43  O   UNL     1       5.238  -3.455  23.289  0.00  0.00    +0.000 OA
BRANCH  42  44
ATOM     44  O   UNL     1       5.693  -3.408  21.109  0.00  0.00    +0.000 OA
ATOM     45  H   UNL     1       6.123  -2.988  20.347  0.00  0.00    +0.000 HD
ENDBRANCH  42  44
ENDBRANCH  41  42
ENDBRANCH  40  41
ENDBRANCH  23  40
TORSDOF 8
ENDMDL
MODEL 5
REMARK VINA RESULT:      -5.9      1.997      3.164
REMARK  Name = 
REMARK  14 active torsions:
REMARK  status: ('A' for Active; 'I' for Inactive)
REMARK    1  A    between atoms: C_1  and  C_2
REMARK    2  A    between atoms: C_4  and  C_5
REMARK    3  A    between atoms: C_13  and  C_14
REMARK    4  A    between atoms: C_14  and  C_15
REMARK    5  A    between atoms: C_15  and  C_16
REMARK    6  A    between atoms: C_16  and  O_17
REMARK    7  A    between atoms: C_19  and  C_20
REMARK    8  A    between atoms: C_31  and  C_32
REMARK    9  A    between atoms: C_34  and  C_35
REMARK   10  A    between atoms: C_36  and  C_37
REMARK   11  A    between atoms: C_37  and  C_38
REMARK   12  A    between atoms: C_38  and  C_39
REMARK   13  A    between atoms: C_39  and  O_40
REMARK   14  A    between atoms: C_42  and  C_43
REMARK                            x       y       z     vdW  Elec       q    Type
REMARK                         _______ _______ _______ _____ _____    ______ ____
ROOT
ATOM      1  C   UNL     1       8.073   7.107  28.810  0.00  0.00    +0.000 C 
ATOM      2  C   UNL     1       7.517   5.865  27.965  0.00  0.00    +0.000 C 
ATOM      3  C   UNL     1       6.660   4.499  27.507  0.00  0.00    +0.000 A 
ATOM      4  C   UNL     1       5.500   3.038  27.596  0.00  0.00    +0.000 A 
ATOM      5  N   UNL     1       5.886   2.425  26.517  0.00  0.00    +0.000 N 
ATOM      6 ZN   UNL     1       5.597   0.354  26.502  0.00  0.00    +0.000 Zn
ATOM      7  N   UNL     1       5.981  -1.752  26.668  0.00  0.00    +0.000 N 
ATOM      8  C   UNL     1       5.434  -2.926  26.377  0.00  0.00    +0.000 A 
ATOM      9  C   UNL     1       4.122  -3.019  26.246  0.00  0.00    +0.000 C 
ATOM     10  C   UNL     1       3.433  -1.980  26.671  0.00  0.00    +0.000 A 
ATOM     11  C   UNL     1       2.242  -2.365  27.169  0.00  0.00    +0.000 A 
ATOM     12  C   UNL     1       1.596  -3.781  26.999  0.00  0.00    +0.000 C 
ATOM     13  C   UNL     1       1.885  -5.256  26.250  0.00  0.00    +0.000 C 
ATOM     14  C   UNL     1       1.887  -1.141  27.972  0.00  0.00    +0.000 A 
ATOM     15  C   UNL     1       0.472  -1.724  28.672  0.00  0.00    +0.000 C 
ATOM     16  C   UNL     1       3.179   0.087  27.743  0.00  0.00    +0.000 A 
ATOM     17  C   UNL     1       6.349  -3.945  26.189  0.00  0.00    +0.000 A 
ATOM     18  C   UNL     1       6.082  -5.322  25.583  0.00  0.00    +0.000 C 
ATOM     19  C   UNL     1       7.525  -3.286  26.373  0.00  0.00    +0.000 A 
ATOM     20  C   UNL     1       7.200  -2.035  26.782  0.00  0.00    +0.000 A 
ATOM     21  C   UNL     1       7.811  -0.892  26.912  0.00  0.00    +0.000 C 
ATOM     22  C   UNL     1       7.913  -0.294  25.758  0.00  0.00    +0.000 A 
ATOM     23  C   UNL     1       7.776  -0.558  24.394  0.00  0.00    +0.000 A 
ATOM     24  C   UNL     1       7.956   0.644  23.758  0.00  0.00    +0.000 A 
ATOM     25  C   UNL     1       7.959   1.145  22.342  0.00  0.00    +0.000 C 
ATOM     26  C   UNL     1       7.661   1.472  24.730  0.00  0.00    +0.000 A 
ATOM     27  C   UNL     1       7.470   2.719  24.604  0.00  0.00    +0.000 C 
ATOM     28  N   UNL     1       3.922  -0.623  26.886  0.00  0.00    +0.000 N 
ATOM     29  N   UNL     1       7.463   0.842  25.891  0.00  0.00    +0.000 N 
ATOM     30  C   UNL     1       6.780   3.216  25.729  0.00  0.00    +0.000 A 
ATOM     31  C   UNL     1       4.231   1.864  28.088  0.00  0.00    +0.000 C 
ATOM     32  C   UNL     1       7.215   4.349  26.114  0.00  0.00    +0.000 A 
ATOM     33  C   UNL     1       8.337   5.314  25.103  0.00  0.00    +0.000 C 
ENDROOT
BRANCH  19  34
ATOM     34  C   UNL     1       8.883  -3.605  25.966  0.00  0.00    +0.000 C 
BRANCH  34  35
ATOM     35  C   UNL     1       8.846  -3.972  24.501  0.00  0.00    +0.000 C 
BRANCH  35  36
ATOM     36  C   UNL     1       8.975  -5.416  24.262  0.00  0.00    +0.000 C 
ATOM     37  O   UNL     1       8.485  -5.951  23.279  0.00  0.00    +0.000 OA
BRANCH  36  38
ATOM     38  O   UNL     1       9.732  -6.118  25.121  0.00  0.00    +0.000 OA
ATOM     39  H   UNL     1      10.644  -6.342  24.871  0.00  0.00    +0.000 HD
ENDBRANCH  36  38
ENDBRANCH  35  36
ENDBRANCH  34  35
ENDBRANCH  19  34
BRANCH  23  40
ATOM     40  C   UNL     1       6.796  -1.576  23.905  0.00  0.00    +0.000 C 
BRANCH  40  41
ATOM     41  C   UNL     1       7.159  -2.216  22.626  0.00  0.00    +0.000 C 
BRANCH  41  42
ATOM     42  C   UNL     1       6.206  -3.310  22.328  0.00  0.00    +0.000 C 
ATOM     43  O   UNL     1       5.091  -3.297  22.817  0.00  0.00    +0.000 OA
BRANCH  42  44
ATOM     44  O   UNL     1       6.573  -4.312  21.499  0.00  0.00    +0.000 OA
ATOM     45  H   UNL     1       5.966  -5.029  21.257  0.00  0.00    +0.000 HD
ENDBRANCH  42  44
ENDBRANCH  41  42
ENDBRANCH  40  41
ENDBRANCH  23  40
TORSDOF 8
ENDMDL
MODEL 6
REMARK VINA RESULT:      -5.7      5.446      8.205
REMARK  Name = 
REMARK  14 active torsions:
REMARK  status: ('A' for Active; 'I' for Inactive)
REMARK    1  A    between atoms: C_1  and  C_2
REMARK    2  A    between atoms: C_4  and  C_5
REMARK    3  A    between atoms: C_13  and  C_14
REMARK    4  A    between atoms: C_14  and  C_15
REMARK    5  A    between atoms: C_15  and  C_16
REMARK    6  A    between atoms: C_16  and  O_17
REMARK    7  A    between atoms: C_19  and  C_20
REMARK    8  A    between atoms: C_31  and  C_32
REMARK    9  A    between atoms: C_34  and  C_35
REMARK   10  A    between atoms: C_36  and  C_37
REMARK   11  A    between atoms: C_37  and  C_38
REMARK   12  A    between atoms: C_38  and  C_39
REMARK   13  A    between atoms: C_39  and  O_40
REMARK   14  A    between atoms: C_42  and  C_43
REMARK                            x       y       z     vdW  Elec       q    Type
REMARK                         _______ _______ _______ _____ _____    ______ ____
ROOT
ATOM      1  C   UNL     1      10.276  -2.138  23.167  0.00  0.00    +0.000 C 
ATOM      2  C   UNL     1       9.544  -0.771  23.569  0.00  0.00    +0.000 C 
ATOM      3  C   UNL     1       8.538   0.345  24.315  0.00  0.00    +0.000 A 
ATOM      4  C   UNL     1       7.216   1.053  25.427  0.00  0.00    +0.000 A 
ATOM      5  N   UNL     1       7.127   2.231  24.886  0.00  0.00    +0.000 N 
ATOM      6 ZN   UNL     1       5.279   3.187  25.102  0.00  0.00    +0.000 Zn
ATOM      7  N   UNL     1       3.303   3.909  24.673  0.00  0.00    +0.000 N 
ATOM      8  C   UNL     1       2.389   4.752  25.138  0.00  0.00    +0.000 A 
ATOM      9  C   UNL     1       2.398   5.080  26.419  0.00  0.00    +0.000 C 
ATOM     10  C   UNL     1       3.164   4.336  27.191  0.00  0.00    +0.000 A 
ATOM     11  C   UNL     1       2.632   4.215  28.423  0.00  0.00    +0.000 A 
ATOM     12  C   UNL     1       1.450   5.069  28.994  0.00  0.00    +0.000 C 
ATOM     13  C   UNL     1       0.444   6.342  28.562  0.00  0.00    +0.000 C 
ATOM     14  C   UNL     1       3.390   3.012  28.918  0.00  0.00    +0.000 A 
ATOM     15  C   UNL     1       2.597   2.827  30.390  0.00  0.00    +0.000 C 
ATOM     16  C   UNL     1       4.560   2.512  27.648  0.00  0.00    +0.000 A 
ATOM     17  C   UNL     1       1.531   5.246  24.174  0.00  0.00    +0.000 A 
ATOM     18  C   UNL     1       0.566   6.421  24.315  0.00  0.00    +0.000 C 
ATOM     19  C   UNL     1       2.012   4.642  23.053  0.00  0.00    +0.000 A 
ATOM     20  C   UNL     1       2.967   3.774  23.469  0.00  0.00    +0.000 A 
ATOM     21  C   UNL     1       3.922   3.080  22.918  0.00  0.00    +0.000 C 
ATOM     22  C   UNL     1       4.961   3.832  22.690  0.00  0.00    +0.000 A 
ATOM     23  C   UNL     1       5.324   5.179  22.642  0.00  0.00    +0.000 A 
ATOM     24  C   UNL     1       6.677   5.198  22.422  0.00  0.00    +0.000 A 
ATOM     25  C   UNL     1       7.747   6.239  22.254  0.00  0.00    +0.000 C 
ATOM     26  C   UNL     1       7.004   4.009  22.867  0.00  0.00    +0.000 A 
ATOM     27  C   UNL     1       8.186   3.602  23.081  0.00  0.00    +0.000 C 
ATOM     28  N   UNL     1       4.277   3.489  26.779  0.00  0.00    +0.000 N 
ATOM     29  N   UNL     1       5.935   3.276  23.190  0.00  0.00    +0.000 N 
ATOM     30  C   UNL     1       8.159   2.472  23.925  0.00  0.00    +0.000 A 
ATOM     31  C   UNL     1       5.979   1.292  26.709  0.00  0.00    +0.000 C 
ATOM     32  C   UNL     1       8.998   1.578  23.581  0.00  0.00    +0.000 A 
ATOM     33  C   UNL     1      10.277   1.911  22.371  0.00  0.00    +0.000 C 
ENDROOT
BRANCH  19  34
ATOM     34  C   UNL     1       1.868   4.968  21.644  0.00  0.00    +0.000 C 
BRANCH  34  35
ATOM     35  C   UNL     1       0.825   4.040  21.067  0.00  0.00    +0.000 C 
BRANCH  35  36
ATOM     36  C   UNL     1       1.379   3.067  20.116  0.00  0.00    +0.000 C 
ATOM     37  O   UNL     1       1.665   3.381  18.970  0.00  0.00    +0.000 OA
BRANCH  36  38
ATOM     38  O   UNL     1       1.647   1.836  20.578  0.00  0.00    +0.000 OA
ATOM     39  H   UNL     1       0.915   1.280  20.891  0.00  0.00    +0.000 HD
ENDBRANCH  36  38
ENDBRANCH  35  36
ENDBRANCH  34  35
ENDBRANCH  19  34
BRANCH  23  40
ATOM     40  C   UNL     1       4.648   6.186  23.517  0.00  0.00    +0.000 C 
BRANCH  40  41
ATOM     41  C   UNL     1       5.565   7.098  24.230  0.00  0.00    +0.000 C 
BRANCH  41  42
ATOM     42  C   UNL     1       5.761   6.623  25.619  0.00  0.00    +0.000 C 
ATOM     43  O   UNL     1       5.108   7.108  26.526  0.00  0.00    +0.000 OA
BRANCH  42  44
ATOM     44  O   UNL     1       6.655   5.643  25.873  0.00  0.00    +0.000 OA
ATOM     45  H   UNL     1       6.397   4.806  26.291  0.00  0.00    +0.000 HD
ENDBRANCH  42  44
ENDBRANCH  41  42
ENDBRANCH  40  41
ENDBRANCH  23  40
TORSDOF 8
ENDMDL
MODEL 7
REMARK VINA RESULT:      -5.4      2.627      6.456
REMARK  Name = 
REMARK  14 active torsions:
REMARK  status: ('A' for Active; 'I' for Inactive)
REMARK    1  A    between atoms: C_1  and  C_2
REMARK    2  A    between atoms: C_4  and  C_5
REMARK    3  A    between atoms: C_13  and  C_14
REMARK    4  A    between atoms: C_14  and  C_15
REMARK    5  A    between atoms: C_15  and  C_16
REMARK    6  A    between atoms: C_16  and  O_17
REMARK    7  A    between atoms: C_19  and  C_20
REMARK    8  A    between atoms: C_31  and  C_32
REMARK    9  A    between atoms: C_34  and  C_35
REMARK   10  A    between atoms: C_36  and  C_37
REMARK   11  A    between atoms: C_37  and  C_38
REMARK   12  A    between atoms: C_38  and  C_39
REMARK   13  A    between atoms: C_39  and  O_40
REMARK   14  A    between atoms: C_42  and  C_43
REMARK                            x       y       z     vdW  Elec       q    Type
REMARK                         _______ _______ _______ _____ _____    ______ ____
ROOT
ATOM      1  C   UNL     1       0.883   5.380  26.460  0.00  0.00    +0.000 C 
ATOM      2  C   UNL     1       1.680   4.048  26.856  0.00  0.00    +0.000 C 
ATOM      3  C   UNL     1       2.792   2.793  26.862  0.00  0.00    +0.000 A 
ATOM      4  C   UNL     1       4.210   1.697  26.338  0.00  0.00    +0.000 A 
ATOM      5  N   UNL     1       3.966   0.688  27.119  0.00  0.00    +0.000 N 
ATOM      6 ZN   UNL     1       4.649  -1.168  26.438  0.00  0.00    +0.000 Zn
ATOM      7  N   UNL     1       4.677  -3.117  25.538  0.00  0.00    +0.000 N 
ATOM      8  C   UNL     1       5.444  -4.196  25.438  0.00  0.00    +0.000 A 
ATOM      9  C   UNL     1       6.751  -4.083  25.598  0.00  0.00    +0.000 C 
ATOM     10  C   UNL     1       7.221  -2.852  25.593  0.00  0.00    +0.000 A 
ATOM     11  C   UNL     1       8.456  -2.811  25.058  0.00  0.00    +0.000 A 
ATOM     12  C   UNL     1       9.365  -4.052  24.766  0.00  0.00    +0.000 C 
ATOM     13  C   UNL     1       9.377  -5.721  24.946  0.00  0.00    +0.000 C 
ATOM     14  C   UNL     1       8.556  -1.342  24.743  0.00  0.00    +0.000 A 
ATOM     15  C   UNL     1      10.046  -1.371  23.963  0.00  0.00    +0.000 C 
ATOM     16  C   UNL     1       7.054  -0.533  25.311  0.00  0.00    +0.000 A 
ATOM     17  C   UNL     1       4.746  -5.368  25.215  0.00  0.00    +0.000 A 
ATOM     18  C   UNL     1       5.282  -6.794  25.325  0.00  0.00    +0.000 C 
ATOM     19  C   UNL     1       3.462  -4.918  25.206  0.00  0.00    +0.000 A 
ATOM     20  C   UNL     1       3.533  -3.565  25.270  0.00  0.00    +0.000 A 
ATOM     21  C   UNL     1       2.711  -2.583  25.508  0.00  0.00    +0.000 C 
ATOM     22  C   UNL     1       2.513  -2.452  26.789  0.00  0.00    +0.000 A 
ATOM     23  C   UNL     1       2.719  -3.143  27.985  0.00  0.00    +0.000 A 
ATOM     24  C   UNL     1       2.319  -2.293  28.984  0.00  0.00    +0.000 A 
ATOM     25  C   UNL     1       2.241  -2.324  30.484  0.00  0.00    +0.000 C 
ATOM     26  C   UNL     1       2.435  -1.139  28.373  0.00  0.00    +0.000 A 
ATOM     27  C   UNL     1       2.384  -0.002  28.930  0.00  0.00    +0.000 C 
ATOM     28  N   UNL     1       6.476  -1.621  25.831  0.00  0.00    +0.000 N 
ATOM     29  N   UNL     1       2.734  -1.279  27.079  0.00  0.00    +0.000 N 
ATOM     30  C   UNL     1       2.947   0.975  28.082  0.00  0.00    +0.000 A 
ATOM     31  C   UNL     1       5.674   1.025  25.542  0.00  0.00    +0.000 C 
ATOM     32  C   UNL     1       2.297   2.069  28.087  0.00  0.00    +0.000 A 
ATOM     33  C   UNL     1       1.024   2.396  29.306  0.00  0.00    +0.000 C 
ENDROOT
BRANCH  19  34
ATOM     34  C   UNL     1       2.197  -5.605  25.406  0.00  0.00    +0.000 C 
BRANCH  34  35
ATOM     35  C   UNL     1       1.736  -6.111  24.060  0.00  0.00    +0.000 C 
BRANCH  35  36
ATOM     36  C   UNL     1       2.041  -7.532  23.841  0.00  0.00    +0.000 C 
ATOM     37  O   UNL     1       2.143  -8.317  24.772  0.00  0.00    +0.000 OA
BRANCH  36  38
ATOM     38  O   UNL     1       2.114  -7.959  22.571  0.00  0.00    +0.000 OA
ATOM     39  H   UNL     1       2.976  -8.226  22.212  0.00  0.00    +0.000 HD
ENDBRANCH  36  38
ENDBRANCH  35  36
ENDBRANCH  34  35
ENDBRANCH  19  34
BRANCH  23  40
ATOM     40  C   UNL     1       3.884  -4.066  28.146  0.00  0.00    +0.000 C 
BRANCH  40  41
ATOM     41  C   UNL     1       3.577  -5.330  28.843  0.00  0.00    +0.000 C 
BRANCH  41  42
ATOM     42  C   UNL     1       4.803  -6.156  28.943  0.00  0.00    +0.000 C 
ATOM     43  O   UNL     1       5.892  -5.619  29.039  0.00  0.00    +0.000 OA
BRANCH  42  44
ATOM     44  O   UNL     1       4.707  -7.503  28.943  0.00  0.00    +0.000 OA
ATOM     45  H   UNL     1       3.888  -7.961  29.189  0.00  0.00    +0.000 HD
ENDBRANCH  42  44
ENDBRANCH  41  42
ENDBRANCH  40  41
ENDBRANCH  23  40
TORSDOF 8
ENDMDL
MODEL 8
REMARK VINA RESULT:      -4.9      5.298      8.432
REMARK  Name = 
REMARK  14 active torsions:
REMARK  status: ('A' for Active; 'I' for Inactive)
REMARK    1  A    between atoms: C_1  and  C_2
REMARK    2  A    between atoms: C_4  and  C_5
REMARK    3  A    between atoms: C_13  and  C_14
REMARK    4  A    between atoms: C_14  and  C_15
REMARK    5  A    between atoms: C_15  and  C_16
REMARK    6  A    between atoms: C_16  and  O_17
REMARK    7  A    between atoms: C_19  and  C_20
REMARK    8  A    between atoms: C_31  and  C_32
REMARK    9  A    between atoms: C_34  and  C_35
REMARK   10  A    between atoms: C_36  and  C_37
REMARK   11  A    between atoms: C_37  and  C_38
REMARK   12  A    between atoms: C_38  and  C_39
REMARK   13  A    between atoms: C_39  and  O_40
REMARK   14  A    between atoms: C_42  and  C_43
REMARK                            x       y       z     vdW  Elec       q    Type
REMARK                         _______ _______ _______ _____ _____    ______ ____
ROOT
ATOM      1  C   UNL     1      10.534  -1.246  22.221  0.00  0.00    +0.000 C 
ATOM      2  C   UNL     1       9.887  -0.106  23.142  0.00  0.00    +0.000 C 
ATOM      3  C   UNL     1       8.914   0.695  24.248  0.00  0.00    +0.000 A 
ATOM      4  C   UNL     1       7.555   1.013  25.489  0.00  0.00    +0.000 A 
ATOM      5  N   UNL     1       7.623   2.311  25.513  0.00  0.00    +0.000 N 
ATOM      6 ZN   UNL     1       5.853   3.298  26.030  0.00  0.00    +0.000 Zn
ATOM      7  N   UNL     1       4.000   4.368  25.860  0.00  0.00    +0.000 N 
ATOM      8  C   UNL     1       3.122   5.035  26.600  0.00  0.00    +0.000 A 
ATOM      9  C   UNL     1       3.032   4.777  27.894  0.00  0.00    +0.000 C 
ATOM     10  C   UNL     1       3.650   3.688  28.301  0.00  0.00    +0.000 A 
ATOM     11  C   UNL     1       2.991   3.116  29.327  0.00  0.00    +0.000 A 
ATOM     12  C   UNL     1       1.838   3.779  30.152  0.00  0.00    +0.000 C 
ATOM     13  C   UNL     1       0.994   5.226  30.270  0.00  0.00    +0.000 C 
ATOM     14  C   UNL     1       3.588   1.734  29.284  0.00  0.00    +0.000 A 
ATOM     15  C   UNL     1       2.642   1.034  30.485  0.00  0.00    +0.000 C 
ATOM     16  C   UNL     1       4.831   1.689  27.986  0.00  0.00    +0.000 A 
ATOM     17  C   UNL     1       2.410   5.994  25.906  0.00  0.00    +0.000 A 
ATOM     18  C   UNL     1       1.541   7.103  26.497  0.00  0.00    +0.000 C 
ATOM     19  C   UNL     1       2.945   5.876  24.660  0.00  0.00    +0.000 A 
ATOM     20  C   UNL     1       3.774   4.804  24.703  0.00  0.00    +0.000 A 
ATOM     21  C   UNL     1       4.715   4.303  23.954  0.00  0.00    +0.000 C 
ATOM     22  C   UNL     1       5.833   4.948  24.130  0.00  0.00    +0.000 A 
ATOM     23  C   UNL     1       6.315   6.131  24.695  0.00  0.00    +0.000 A 
ATOM     24  C   UNL     1       7.680   6.077  24.574  0.00  0.00    +0.000 A 
ATOM     25  C   UNL     1       8.847   6.951  24.933  0.00  0.00    +0.000 C 
ATOM     26  C   UNL     1       7.856   4.782  24.471  0.00  0.00    +0.000 A 
ATOM     27  C   UNL     1       8.971   4.182  24.546  0.00  0.00    +0.000 C 
ATOM     28  N   UNL     1       4.721   2.971  27.617  0.00  0.00    +0.000 N 
ATOM     29  N   UNL     1       6.701   4.118  24.387  0.00  0.00    +0.000 N 
ATOM     30  C   UNL     1       8.762   2.812  24.808  0.00  0.00    +0.000 A 
ATOM     31  C   UNL     1       6.224   0.828  26.681  0.00  0.00    +0.000 C 
ATOM     32  C   UNL     1       9.550   2.058  24.152  0.00  0.00    +0.000 A 
ATOM     33  C   UNL     1      10.967   2.720  23.276  0.00  0.00    +0.000 C 
ENDROOT
BRANCH  19  34
ATOM     34  C   UNL     1       2.969   6.789  23.530  0.00  0.00    +0.000 C 
BRANCH  34  35
ATOM     35  C   UNL     1       1.766   6.481  22.670  0.00  0.00    +0.000 C 
BRANCH  35  36
ATOM     36  C   UNL     1       2.060   5.541  21.580  0.00  0.00    +0.000 C 
ATOM     37  O   UNL     1       1.694   4.376  21.621  0.00  0.00    +0.000 OA
BRANCH  36  38
ATOM     38  O   UNL     1       2.671   6.031  20.490  0.00  0.00    +0.000 OA
ATOM     39  H   UNL     1       3.621   5.868  20.368  0.00  0.00    +0.000 HD
ENDBRANCH  36  38
ENDBRANCH  35  36
ENDBRANCH  34  35
ENDBRANCH  19  34
BRANCH  23  40
ATOM     40  C   UNL     1       5.647   6.739  25.886  0.00  0.00    +0.000 C 
BRANCH  40  41
ATOM     41  C   UNL     1       6.561   7.107  26.985  0.00  0.00    +0.000 C 
BRANCH  41  42
ATOM     42  C   UNL     1       6.568   6.037  28.009  0.00  0.00    +0.000 C 
ATOM     43  O   UNL     1       5.965   6.191  29.055  0.00  0.00    +0.000 OA
BRANCH  42  44
ATOM     44  O   UNL     1       7.233   4.885  27.770  0.00  0.00    +0.000 OA
ATOM     45  H   UNL     1       6.865   4.019  28.008  0.00  0.00    +0.000 HD
ENDBRANCH  42  44
ENDBRANCH  41  42
ENDBRANCH  40  41
ENDBRANCH  23  40
TORSDOF 8
ENDMDL
MODEL 9
REMARK VINA RESULT:      -4.6      3.377      7.037
REMARK  Name = 
REMARK  14 active torsions:
REMARK  status: ('A' for Active; 'I' for Inactive)
REMARK    1  A    between atoms: C_1  and  C_2
REMARK    2  A    between atoms: C_4  and  C_5
REMARK    3  A    between atoms: C_13  and  C_14
REMARK    4  A    between atoms: C_14  and  C_15
REMARK    5  A    between atoms: C_15  and  C_16
REMARK    6  A    between atoms: C_16  and  O_17
REMARK    7  A    between atoms: C_19  and  C_20
REMARK    8  A    between atoms: C_31  and  C_32
REMARK    9  A    between atoms: C_34  and  C_35
REMARK   10  A    between atoms: C_36  and  C_37
REMARK   11  A    between atoms: C_37  and  C_38
REMARK   12  A    between atoms: C_38  and  C_39
REMARK   13  A    between atoms: C_39  and  O_40
REMARK   14  A    between atoms: C_42  and  C_43
REMARK                            x       y       z     vdW  Elec       q    Type
REMARK                         _______ _______ _______ _____ _____    ______ ____
ROOT
ATOM      1  C   UNL     1       2.117  -6.416  23.355  0.00  0.00    +0.000 C 
ATOM      2  C   UNL     1       2.830  -5.314  24.274  0.00  0.00    +0.000 C 
ATOM      3  C   UNL     1       3.096  -3.988  25.266  0.00  0.00    +0.000 A 
ATOM      4  C   UNL     1       2.771  -2.435  26.250  0.00  0.00    +0.000 A 
ATOM      5  N   UNL     1       4.005  -2.083  26.457  0.00  0.00    +0.000 N 
ATOM      6 ZN   UNL     1       4.323  -0.036  26.746  0.00  0.00    +0.000 Zn
ATOM      7  N   UNL     1       4.822   2.016  26.361  0.00  0.00    +0.000 N 
ATOM      8  C   UNL     1       5.056   3.158  26.997  0.00  0.00    +0.000 A 
ATOM      9  C   UNL     1       4.550   3.347  28.204  0.00  0.00    +0.000 C 
ATOM     10  C   UNL     1       3.631   2.479  28.578  0.00  0.00    +0.000 A 
ATOM     11  C   UNL     1       2.714   3.064  29.372  0.00  0.00    +0.000 A 
ATOM     12  C   UNL     1       2.849   4.474  30.038  0.00  0.00    +0.000 C 
ATOM     13  C   UNL     1       3.941   5.741  30.178  0.00  0.00    +0.000 C 
ATOM     14  C   UNL     1       1.598   2.058  29.266  0.00  0.00    +0.000 A 
ATOM     15  C   UNL     1       0.444   2.896  30.158  0.00  0.00    +0.000 C 
ATOM     16  C   UNL     1       2.155   0.692  28.238  0.00  0.00    +0.000 A 
ATOM     17  C   UNL     1       5.878   4.031  26.310  0.00  0.00    +0.000 A 
ATOM     18  C   UNL     1       6.558   5.282  26.861  0.00  0.00    +0.000 C 
ATOM     19  C   UNL     1       6.152   3.312  25.187  0.00  0.00    +0.000 A 
ATOM     20  C   UNL     1       5.378   2.201  25.249  0.00  0.00    +0.000 A 
ATOM     21  C   UNL     1       5.319   1.051  24.638  0.00  0.00    +0.000 C 
ATOM     22  C   UNL     1       6.217   0.234  25.110  0.00  0.00    +0.000 A 
ATOM     23  C   UNL     1       7.363   0.240  25.907  0.00  0.00    +0.000 A 
ATOM     24  C   UNL     1       7.731  -1.073  26.047  0.00  0.00    +0.000 A 
ATOM     25  C   UNL     1       8.824  -1.838  26.737  0.00  0.00    +0.000 C 
ATOM     26  C   UNL     1       6.586  -1.665  25.812  0.00  0.00    +0.000 A 
ATOM     27  C   UNL     1       6.332  -2.890  26.022  0.00  0.00    +0.000 C 
ATOM     28  N   UNL     1       3.395   1.150  28.026  0.00  0.00    +0.000 N 
ATOM     29  N   UNL     1       5.642  -0.806  25.419  0.00  0.00    +0.000 N 
ATOM     30  C   UNL     1       4.937  -3.092  26.058  0.00  0.00    +0.000 A 
ATOM     31  C   UNL     1       1.991  -1.075  27.127  0.00  0.00    +0.000 C 
ATOM     32  C   UNL     1       4.578  -4.165  25.474  0.00  0.00    +0.000 A 
ATOM     33  C   UNL     1       5.772  -5.408  24.983  0.00  0.00    +0.000 C 
ENDROOT
BRANCH  19  34
ATOM     34  C   UNL     1       7.225   3.417  24.212  0.00  0.00    +0.000 C 
BRANCH  34  35
ATOM     35  C   UNL     1       8.527   3.486  24.974  0.00  0.00    +0.000 C 
BRANCH  35  36
ATOM     36  C   UNL     1       9.678   3.005  24.198  0.00  0.00    +0.000 C 
ATOM     37  O   UNL     1      10.303   3.743  23.452  0.00  0.00    +0.000 OA
BRANCH  36  38
ATOM     38  O   UNL     1      10.077   1.740  24.406  0.00  0.00    +0.000 OA
ATOM     39  H   UNL     1      10.284   1.453  25.311  0.00  0.00    +0.000 HD
ENDBRANCH  36  38
ENDBRANCH  35  36
ENDBRANCH  34  35
ENDBRANCH  19  34
BRANCH  23  40
ATOM     40  C   UNL     1       7.521   1.231  27.016  0.00  0.00    +0.000 C 
BRANCH  40  41
ATOM     41  C   UNL     1       7.192   0.713  28.358  0.00  0.00    +0.000 C 
BRANCH  41  42
ATOM     42  C   UNL     1       7.824   1.565  29.391  0.00  0.00    +0.000 C 
ATOM     43  O   UNL     1       7.554   2.752  29.450  0.00  0.00    +0.000 OA
BRANCH  42  44
ATOM     44  O   UNL     1       8.686   1.020  30.276  0.00  0.00    +0.000 OA
ATOM     45  H   UNL     1       8.627   1.194  31.228  0.00  0.00    +0.000 HD
ENDBRANCH  42  44
ENDBRANCH  41  42
ENDBRANCH  40  41
ENDBRANCH  23  40
TORSDOF 8
ENDMDL
