MODEL 1
REMARK VINA RESULT:      -6.8      0.000      0.000
REMARK  Name = 
REMARK  12 active torsions:
REMARK  status: ('A' for Active; 'I' for Inactive)
REMARK    1  A    between atoms: C_1  and  C_2
REMARK    2  A    between atoms: C_3  and  C_4
REMARK    3  A    between atoms: C_4  and  C_5
REMARK    4  A    between atoms: C_5  and  O_6
REMARK    5  A    between atoms: O_6  and  P_7
REMARK    6  A    between atoms: P_7  and  O_8
REMARK    7  A    between atoms: P_7  and  O_10
REMARK    8  A    between atoms: O_10  and  P_11
REMARK    9  A    between atoms: P_11  and  O_12
REMARK   10  A    between atoms: N_17  and  C_18
REMARK   11  A    between atoms: C_18  and  C_19
REMARK   12  A    between atoms: C_22  and  C_23
REMARK                            x       y       z     vdW  Elec       q    Type
REMARK                         _______ _______ _______ _____ _____    ______ ____
ROOT
ATOM      1  C   UNL     1       9.660  -4.186  24.911  0.00  0.00    +0.122 C 
ATOM      2  C   UNL     1       8.664  -3.650  23.949  0.00  0.00    +0.191 A 
ATOM      3  N   UNL     1       8.931  -2.491  23.204  0.00  0.00    -0.190 N 
ATOM      4  C   UNL     1       8.011  -2.182  22.314  0.00  0.00    +0.357 A 
ATOM      5  S   UNL     1       6.783  -3.341  22.269  0.00  0.00    -0.027 S 
ATOM      6  C   UNL     1       7.385  -4.126  23.694  0.00  0.00    +0.064 A 
ENDROOT
BRANCH   3   7
ATOM      7  C   UNL     1      10.137  -1.653  23.260  0.00  0.00    +0.397 C 
BRANCH   7   8
ATOM      8  C   UNL     1       9.870  -0.180  23.190  0.00  0.00    +0.057 A 
ATOM      9  C   UNL     1       9.585   0.507  24.369  0.00  0.00    +0.126 A 
ATOM     10  N   UNL     1       9.796  -0.058  25.623  0.00  0.00    -0.343 N 
ATOM     11  H   UNL     1       9.229  -0.866  25.837  0.00  0.00    +0.144 HD
ATOM     12  H   UNL     1       9.588   0.685  26.295  0.00  0.00    +0.144 HD
ATOM     13  N   UNL     1       9.151   1.773  24.387  0.00  0.00    -0.237 NA
ATOM     14  C   UNL     1       9.058   2.441  23.213  0.00  0.00    +0.040 A 
ATOM     15  C   UNL     1       8.411   3.793  23.237  0.00  0.00    +0.065 C 
ATOM     16  C   UNL     1       9.529   1.906  22.025  0.00  0.00    +0.023 A 
ATOM     17  C   UNL     1       9.945   0.578  22.015  0.00  0.00    +0.015 A 
ENDBRANCH   7   8
ENDBRANCH   3   7
BRANCH   6  18
ATOM     18  C   UNL     1       6.518  -5.151  24.412  0.00  0.00    +0.077 C 
BRANCH  18  19
ATOM     19  C   UNL     1       5.299  -4.443  25.012  0.00  0.00    +0.178 C 
BRANCH  19  20
ATOM     20  O   UNL     1       4.168  -5.231  25.283  0.00  0.00    -0.286 OA
BRANCH  20  21
ATOM     21  P   UNL     1       4.486  -6.502  26.325  0.00  0.00    +0.480 P 
ATOM     22  O   UNL     1       3.151  -6.878  27.001  0.00  0.00    -0.227 OA
BRANCH  21  23
ATOM     23  O   UNL     1       4.049  -7.611  25.070  0.00  0.00    -0.302 OA
ATOM     24  H   UNL     1       3.988  -7.011  24.301  0.00  0.00    +0.222 HD
ENDBRANCH  21  23
BRANCH  21  25
ATOM     25  O   UNL     1       4.922  -5.394  27.579  0.00  0.00    -0.229 OA
BRANCH  25  26
ATOM     26  P   UNL     1       6.077  -6.030  28.497  0.00  0.00    +0.220 P 
ATOM     27  O   UNL     1       7.392  -5.933  27.790  0.00  0.00    -0.517 OA
ATOM     28  O   UNL     1       5.873  -5.555  29.912  0.00  0.00    -0.437 OA
BRANCH  26  29
ATOM     29  O   UNL     1       5.577  -7.558  28.537  0.00  0.00    -0.343 OA
ATOM     30  H   UNL     1       5.363  -7.699  29.477  0.00  0.00    +0.218 HD
ENDBRANCH  26  29
ENDBRANCH  25  26
ENDBRANCH  21  25
ENDBRANCH  20  21
ENDBRANCH  19  20
ENDBRANCH  18  19
ENDBRANCH   6  18
TORSDOF 10
ENDMDL
MODEL 2
REMARK VINA RESULT:      -6.7      2.672      4.354
REMARK  Name = 
REMARK  12 active torsions:
REMARK  status: ('A' for Active; 'I' for Inactive)
REMARK    1  A    between atoms: C_1  and  C_2
REMARK    2  A    between atoms: C_3  and  C_4
REMARK    3  A    between atoms: C_4  and  C_5
REMARK    4  A    between atoms: C_5  and  O_6
REMARK    5  A    between atoms: O_6  and  P_7
REMARK    6  A    between atoms: P_7  and  O_8
REMARK    7  A    between atoms: P_7  and  O_10
REMARK    8  A    between atoms: O_10  and  P_11
REMARK    9  A    between atoms: P_11  and  O_12
REMARK   10  A    between atoms: N_17  and  C_18
REMARK   11  A    between atoms: C_18  and  C_19
REMARK   12  A    between atoms: C_22  and  C_23
REMARK                            x       y       z     vdW  Elec       q    Type
REMARK                         _______ _______ _______ _____ _____    ______ ____
ROOT
ATOM      1  C   UNL     1      11.406   0.532  24.733  0.00  0.00    +0.122 C 
ATOM      2  C   UNL     1      10.522   0.305  23.562  0.00  0.00    +0.191 A 
ATOM      3  N   UNL     1       9.967   1.383  22.856  0.00  0.00    -0.190 N 
ATOM      4  C   UNL     1       9.287   1.047  21.779  0.00  0.00    +0.357 A 
ATOM      5  S   UNL     1       9.348  -0.618  21.507  0.00  0.00    -0.027 S 
ATOM      6  C   UNL     1      10.081  -0.909  23.052  0.00  0.00    +0.064 A 
ENDROOT
BRANCH   3   7
ATOM      7  C   UNL     1      10.127   2.815  23.145  0.00  0.00    +0.397 C 
BRANCH   7   8
ATOM      8  C   UNL     1       9.161   3.354  24.156  0.00  0.00    +0.057 A 
ATOM      9  C   UNL     1       9.024   4.736  24.283  0.00  0.00    +0.126 A 
ATOM     10  N   UNL     1       9.544   5.620  23.343  0.00  0.00    -0.343 N 
ATOM     11  H   UNL     1      10.551   5.625  23.261  0.00  0.00    +0.144 HD
ATOM     12  H   UNL     1       9.227   6.547  23.637  0.00  0.00    +0.144 HD
ATOM     13  N   UNL     1       8.334   5.310  25.276  0.00  0.00    -0.237 NA
ATOM     14  C   UNL     1       7.677   4.514  26.151  0.00  0.00    +0.040 A 
ATOM     15  C   UNL     1       7.055   5.167  27.348  0.00  0.00    +0.065 C 
ATOM     16  C   UNL     1       7.579   3.143  25.966  0.00  0.00    +0.023 A 
ATOM     17  C   UNL     1       8.328   2.557  24.952  0.00  0.00    +0.015 A 
ENDBRANCH   7   8
ENDBRANCH   3   7
BRANCH   6  18
ATOM     18  C   UNL     1      10.148  -2.328  23.598  0.00  0.00    +0.077 C 
BRANCH  18  19
ATOM     19  C   UNL     1       8.876  -2.618  24.400  0.00  0.00    +0.178 C 
BRANCH  19  20
ATOM     20  O   UNL     1       9.010  -3.415  25.550  0.00  0.00    -0.286 OA
BRANCH  20  21
ATOM     21  P   UNL     1       8.671  -5.031  25.274  0.00  0.00    +0.480 P 
ATOM     22  O   UNL     1       8.538  -5.212  23.747  0.00  0.00    -0.227 OA
BRANCH  21  23
ATOM     23  O   UNL     1      10.363  -5.326  25.063  0.00  0.00    -0.302 OA
ATOM     24  H   UNL     1      10.680  -4.436  24.814  0.00  0.00    +0.222 HD
ENDBRANCH  21  23
BRANCH  21  25
ATOM     25  O   UNL     1       6.981  -4.735  25.485  0.00  0.00    -0.229 OA
BRANCH  25  26
ATOM     26  P   UNL     1       6.496  -5.302  26.908  0.00  0.00    +0.220 P 
ATOM     27  O   UNL     1       5.930  -4.186  27.727  0.00  0.00    -0.517 OA
ATOM     28  O   UNL     1       5.765  -6.598  26.678  0.00  0.00    -0.437 OA
BRANCH  26  29
ATOM     29  O   UNL     1       7.914  -5.770  27.506  0.00  0.00    -0.343 OA
ATOM     30  H   UNL     1       7.865  -5.494  28.438  0.00  0.00    +0.218 HD
ENDBRANCH  26  29
ENDBRANCH  25  26
ENDBRANCH  21  25
ENDBRANCH  20  21
ENDBRANCH  19  20
ENDBRANCH  18  19
ENDBRANCH   6  18
TORSDOF 10
ENDMDL
MODEL 3
REMARK VINA RESULT:      -6.7      5.377      7.533
REMARK  Name = 
REMARK  12 active torsions:
REMARK  status: ('A' for Active; 'I' for Inactive)
REMARK    1  A    between atoms: C_1  and  C_2
REMARK    2  A    between atoms: C_3  and  C_4
REMARK    3  A    between atoms: C_4  and  C_5
REMARK    4  A    between atoms: C_5  and  O_6
REMARK    5  A    between atoms: O_6  and  P_7
REMARK    6  A    between atoms: P_7  and  O_8
REMARK    7  A    between atoms: P_7  and  O_10
REMARK    8  A    between atoms: O_10  and  P_11
REMARK    9  A    between atoms: P_11  and  O_12
REMARK   10  A    between atoms: N_17  and  C_18
REMARK   11  A    between atoms: C_18  and  C_19
REMARK   12  A    between atoms: C_22  and  C_23
REMARK                            x       y       z     vdW  Elec       q    Type
REMARK                         _______ _______ _______ _____ _____    ______ ____
ROOT
ATOM      1  C   UNL     1       9.040  -1.025  26.653  0.00  0.00    +0.122 C 
ATOM      2  C   UNL     1       7.590  -0.786  26.435  0.00  0.00    +0.191 A 
ATOM      3  N   UNL     1       6.668  -1.842  26.490  0.00  0.00    -0.190 N 
ATOM      4  C   UNL     1       5.406  -1.480  26.383  0.00  0.00    +0.357 A 
ATOM      5  S   UNL     1       5.253   0.199  26.287  0.00  0.00    -0.027 S 
ATOM      6  C   UNL     1       6.965   0.409  26.104  0.00  0.00    +0.064 A 
ENDROOT
BRANCH   3   7
ATOM      7  C   UNL     1       6.954  -3.264  26.727  0.00  0.00    +0.397 C 
BRANCH   7   8
ATOM      8  C   UNL     1       6.908  -4.117  25.496  0.00  0.00    +0.057 A 
ATOM      9  C   UNL     1       8.108  -4.559  24.941  0.00  0.00    +0.126 A 
ATOM     10  N   UNL     1       9.317  -4.464  25.624  0.00  0.00    -0.343 N 
ATOM     11  H   UNL     1       9.635  -3.524  25.816  0.00  0.00    +0.144 HD
ATOM     12  H   UNL     1      10.004  -4.934  25.028  0.00  0.00    +0.144 HD
ATOM     13  N   UNL     1       8.180  -5.161  23.748  0.00  0.00    -0.237 NA
ATOM     14  C   UNL     1       7.029  -5.421  23.085  0.00  0.00    +0.040 A 
ATOM     15  C   UNL     1       7.141  -5.939  21.682  0.00  0.00    +0.065 C 
ATOM     16  C   UNL     1       5.786  -5.216  23.663  0.00  0.00    +0.023 A 
ATOM     17  C   UNL     1       5.726  -4.558  24.888  0.00  0.00    +0.015 A 
ENDBRANCH   7   8
ENDBRANCH   3   7
BRANCH   6  18
ATOM     18  C   UNL     1       7.515   1.755  25.654  0.00  0.00    +0.077 C 
BRANCH  18  19
ATOM     19  C   UNL     1       7.707   1.735  24.134  0.00  0.00    +0.178 C 
BRANCH  19  20
ATOM     20  O   UNL     1       8.981   2.071  23.645  0.00  0.00    -0.286 OA
BRANCH  20  21
ATOM     21  P   UNL     1       9.483   1.088  22.386  0.00  0.00    +0.480 P 
ATOM     22  O   UNL     1       8.468   1.269  21.238  0.00  0.00    -0.227 OA
BRANCH  21  23
ATOM     23  O   UNL     1      10.339   2.431  21.709  0.00  0.00    -0.302 OA
ATOM     24  H   UNL     1      11.151   1.993  21.385  0.00  0.00    +0.222 HD
ENDBRANCH  21  23
BRANCH  21  25
ATOM     25  O   UNL     1       8.627  -0.253  23.063  0.00  0.00    -0.229 OA
BRANCH  25  26
ATOM     26  P   UNL     1       9.226  -1.631  22.495  0.00  0.00    +0.220 P 
ATOM     27  O   UNL     1      10.167  -2.221  23.497  0.00  0.00    -0.517 OA
ATOM     28  O   UNL     1       8.102  -2.415  21.869  0.00  0.00    -0.437 OA
BRANCH  26  29
ATOM     29  O   UNL     1      10.041  -1.066  21.229  0.00  0.00    -0.343 OA
ATOM     30  H   UNL     1      10.112  -0.113  21.416  0.00  0.00    +0.218 HD
ENDBRANCH  26  29
ENDBRANCH  25  26
ENDBRANCH  21  25
ENDBRANCH  20  21
ENDBRANCH  19  20
ENDBRANCH  18  19
ENDBRANCH   6  18
TORSDOF 10
ENDMDL
MODEL 4
REMARK VINA RESULT:      -6.7      1.539      2.098
REMARK  Name = 
REMARK  12 active torsions:
REMARK  status: ('A' for Active; 'I' for Inactive)
REMARK    1  A    between atoms: C_1  and  C_2
REMARK    2  A    between atoms: C_3  and  C_4
REMARK    3  A    between atoms: C_4  and  C_5
REMARK    4  A    between atoms: C_5  and  O_6
REMARK    5  A    between atoms: O_6  and  P_7
REMARK    6  A    between atoms: P_7  and  O_8
REMARK    7  A    between atoms: P_7  and  O_10
REMARK    8  A    between atoms: O_10  and  P_11
REMARK    9  A    between atoms: P_11  and  O_12
REMARK   10  A    between atoms: N_17  and  C_18
REMARK   11  A    between atoms: C_18  and  C_19
REMARK   12  A    between atoms: C_22  and  C_23
REMARK                            x       y       z     vdW  Elec       q    Type
REMARK                         _______ _______ _______ _____ _____    ______ ____
ROOT
ATOM      1  C   UNL     1       7.720  -3.024  25.951  0.00  0.00    +0.122 C 
ATOM      2  C   UNL     1       7.287  -3.137  24.535  0.00  0.00    +0.191 A 
ATOM      3  N   UNL     1       8.167  -2.833  23.485  0.00  0.00    -0.190 N 
ATOM      4  C   UNL     1       7.693  -3.074  22.280  0.00  0.00    +0.357 A 
ATOM      5  S   UNL     1       6.157  -3.771  22.349  0.00  0.00    -0.027 S 
ATOM      6  C   UNL     1       6.029  -3.472  24.053  0.00  0.00    +0.064 A 
ENDROOT
BRANCH   3   7
ATOM      7  C   UNL     1       9.554  -2.358  23.592  0.00  0.00    +0.397 C 
BRANCH   7   8
ATOM      8  C   UNL     1       9.697  -0.867  23.607  0.00  0.00    +0.057 A 
ATOM      9  C   UNL     1       9.925  -0.203  22.402  0.00  0.00    +0.126 A 
ATOM     10  N   UNL     1       9.765  -0.831  21.170  0.00  0.00    -0.343 N 
ATOM     11  H   UNL     1      10.399  -1.596  20.986  0.00  0.00    +0.144 HD
ATOM     12  H   UNL     1       9.912  -0.098  20.471  0.00  0.00    +0.144 HD
ATOM     13  N   UNL     1      10.252   1.093  22.336  0.00  0.00    -0.237 NA
ATOM     14  C   UNL     1      10.287   1.810  23.484  0.00  0.00    +0.040 A 
ATOM     15  C   UNL     1      10.818   3.210  23.409  0.00  0.00    +0.065 C 
ATOM     16  C   UNL     1       9.859   1.282  24.692  0.00  0.00    +0.023 A 
ATOM     17  C   UNL     1       9.556  -0.074  24.753  0.00  0.00    +0.015 A 
ENDBRANCH   7   8
ENDBRANCH   3   7
BRANCH   6  18
ATOM     18  C   UNL     1       4.679  -3.611  24.743  0.00  0.00    +0.077 C 
BRANCH  18  19
ATOM     19  C   UNL     1       3.905  -4.767  24.101  0.00  0.00    +0.178 C 
BRANCH  19  20
ATOM     20  O   UNL     1       3.258  -5.665  24.967  0.00  0.00    -0.286 OA
BRANCH  20  21
ATOM     21  P   UNL     1       4.154  -7.044  25.276  0.00  0.00    +0.480 P 
ATOM     22  O   UNL     1       3.214  -8.251  25.073  0.00  0.00    -0.227 OA
BRANCH  21  23
ATOM     23  O   UNL     1       4.511  -7.163  23.587  0.00  0.00    -0.302 OA
ATOM     24  H   UNL     1       3.666  -7.509  23.239  0.00  0.00    +0.222 HD
ENDBRANCH  21  23
BRANCH  21  25
ATOM     25  O   UNL     1       3.797  -6.925  26.963  0.00  0.00    -0.229 OA
BRANCH  25  26
ATOM     26  P   UNL     1       5.081  -6.378  27.760  0.00  0.00    +0.220 P 
ATOM     27  O   UNL     1       4.780  -5.030  28.333  0.00  0.00    -0.517 OA
ATOM     28  O   UNL     1       5.644  -7.508  28.582  0.00  0.00    -0.437 OA
BRANCH  26  29
ATOM     29  O   UNL     1       6.117  -6.247  26.538  0.00  0.00    -0.343 OA
ATOM     30  H   UNL     1       5.941  -5.355  26.190  0.00  0.00    +0.218 HD
ENDBRANCH  26  29
ENDBRANCH  25  26
ENDBRANCH  21  25
ENDBRANCH  20  21
ENDBRANCH  19  20
ENDBRANCH  18  19
ENDBRANCH   6  18
TORSDOF 10
ENDMDL
MODEL 5
REMARK VINA RESULT:      -6.7      2.236      3.496
REMARK  Name = 
REMARK  12 active torsions:
REMARK  status: ('A' for Active; 'I' for Inactive)
REMARK    1  A    between atoms: C_1  and  C_2
REMARK    2  A    between atoms: C_3  and  C_4
REMARK    3  A    between atoms: C_4  and  C_5
REMARK    4  A    between atoms: C_5  and  O_6
REMARK    5  A    between atoms: O_6  and  P_7
REMARK    6  A    between atoms: P_7  and  O_8
REMARK    7  A    between atoms: P_7  and  O_10
REMARK    8  A    between atoms: O_10  and  P_11
REMARK    9  A    between atoms: P_11  and  O_12
REMARK   10  A    between atoms: N_17  and  C_18
REMARK   11  A    between atoms: C_18  and  C_19
REMARK   12  A    between atoms: C_22  and  C_23
REMARK                            x       y       z     vdW  Elec       q    Type
REMARK                         _______ _______ _______ _____ _____    ______ ____
ROOT
ATOM      1  C   UNL     1       9.740  -4.968  25.575  0.00  0.00    +0.122 C 
ATOM      2  C   UNL     1       8.575  -4.051  25.486  0.00  0.00    +0.191 A 
ATOM      3  N   UNL     1       8.619  -2.907  24.675  0.00  0.00    -0.190 N 
ATOM      4  C   UNL     1       7.487  -2.236  24.604  0.00  0.00    +0.357 A 
ATOM      5  S   UNL     1       6.258  -3.009  25.467  0.00  0.00    -0.027 S 
ATOM      6  C   UNL     1       7.375  -4.129  26.180  0.00  0.00    +0.064 A 
ENDROOT
BRANCH   3   7
ATOM      7  C   UNL     1       9.745  -2.435  23.857  0.00  0.00    +0.397 C 
BRANCH   7   8
ATOM      8  C   UNL     1       9.873  -0.944  23.782  0.00  0.00    +0.057 A 
ATOM      9  C   UNL     1       9.895  -0.335  22.528  0.00  0.00    +0.126 A 
ATOM     10  N   UNL     1       9.543  -1.018  21.368  0.00  0.00    -0.343 N 
ATOM     11  H   UNL     1      10.147  -1.789  21.117  0.00  0.00    +0.144 HD
ATOM     12  H   UNL     1       9.566  -0.318  20.622  0.00  0.00    +0.144 HD
ATOM     13  N   UNL     1      10.193   0.958  22.352  0.00  0.00    -0.237 NA
ATOM     14  C   UNL     1      10.406   1.726  23.446  0.00  0.00    +0.040 A 
ATOM     15  C   UNL     1      10.903   3.123  23.224  0.00  0.00    +0.065 C 
ATOM     16  C   UNL     1      10.186   1.253  24.730  0.00  0.00    +0.023 A 
ATOM     17  C   UNL     1       9.912  -0.100  24.899  0.00  0.00    +0.015 A 
ENDBRANCH   7   8
ENDBRANCH   3   7
BRANCH   6  18
ATOM     18  C   UNL     1       6.935  -4.982  27.361  0.00  0.00    +0.077 C 
BRANCH  18  19
ATOM     19  C   UNL     1       5.676  -5.764  26.972  0.00  0.00    +0.178 C 
BRANCH  19  20
ATOM     20  O   UNL     1       5.743  -6.552  25.811  0.00  0.00    -0.286 OA
BRANCH  20  21
ATOM     21  P   UNL     1       4.351  -6.480  24.885  0.00  0.00    +0.480 P 
ATOM     22  O   UNL     1       3.672  -7.863  24.978  0.00  0.00    -0.227 OA
BRANCH  21  23
ATOM     23  O   UNL     1       3.456  -6.054  26.303  0.00  0.00    -0.302 OA
ATOM     24  H   UNL     1       3.929  -5.249  26.590  0.00  0.00    +0.222 HD
ENDBRANCH  21  23
BRANCH  21  25
ATOM     25  O   UNL     1       5.245  -6.906  23.467  0.00  0.00    -0.229 OA
BRANCH  25  26
ATOM     26  P   UNL     1       5.500  -5.601  22.565  0.00  0.00    +0.220 P 
ATOM     27  O   UNL     1       4.373  -4.634  22.750  0.00  0.00    -0.517 OA
ATOM     28  O   UNL     1       6.946  -5.205  22.702  0.00  0.00    -0.437 OA
BRANCH  26  29
ATOM     29  O   UNL     1       5.428  -6.268  21.104  0.00  0.00    -0.343 OA
ATOM     30  H   UNL     1       4.675  -5.813  20.687  0.00  0.00    +0.218 HD
ENDBRANCH  26  29
ENDBRANCH  25  26
ENDBRANCH  21  25
ENDBRANCH  20  21
ENDBRANCH  19  20
ENDBRANCH  18  19
ENDBRANCH   6  18
TORSDOF 10
ENDMDL
MODEL 6
REMARK VINA RESULT:      -6.6      2.949      4.888
REMARK  Name = 
REMARK  12 active torsions:
REMARK  status: ('A' for Active; 'I' for Inactive)
REMARK    1  A    between atoms: C_1  and  C_2
REMARK    2  A    between atoms: C_3  and  C_4
REMARK    3  A    between atoms: C_4  and  C_5
REMARK    4  A    between atoms: C_5  and  O_6
REMARK    5  A    between atoms: O_6  and  P_7
REMARK    6  A    between atoms: P_7  and  O_8
REMARK    7  A    between atoms: P_7  and  O_10
REMARK    8  A    between atoms: O_10  and  P_11
REMARK    9  A    between atoms: P_11  and  O_12
REMARK   10  A    between atoms: N_17  and  C_18
REMARK   11  A    between atoms: C_18  and  C_19
REMARK   12  A    between atoms: C_22  and  C_23
REMARK                            x       y       z     vdW  Elec       q    Type
REMARK                         _______ _______ _______ _____ _____    ______ ____
ROOT
ATOM      1  C   UNL     1      11.371   0.543  24.836  0.00  0.00    +0.122 C 
ATOM      2  C   UNL     1      10.525   0.303  23.639  0.00  0.00    +0.191 A 
ATOM      3  N   UNL     1      10.099   1.368  22.830  0.00  0.00    -0.190 N 
ATOM      4  C   UNL     1       9.444   1.010  21.746  0.00  0.00    +0.357 A 
ATOM      5  S   UNL     1       9.371  -0.670  21.595  0.00  0.00    -0.027 S 
ATOM      6  C   UNL     1      10.004  -0.904  23.193  0.00  0.00    +0.064 A 
ENDROOT
BRANCH   3   7
ATOM      7  C   UNL     1      10.370   2.799  23.025  0.00  0.00    +0.397 C 
BRANCH   7   8
ATOM      8  C   UNL     1       9.434   3.482  23.974  0.00  0.00    +0.057 A 
ATOM      9  C   UNL     1       9.495   4.870  24.095  0.00  0.00    +0.126 A 
ATOM     10  N   UNL     1      10.199   5.660  23.191  0.00  0.00    -0.343 N 
ATOM     11  H   UNL     1      11.198   5.515  23.173  0.00  0.00    +0.144 HD
ATOM     12  H   UNL     1      10.005   6.627  23.467  0.00  0.00    +0.144 HD
ATOM     13  N   UNL     1       8.838   5.547  25.044  0.00  0.00    -0.237 NA
ATOM     14  C   UNL     1       8.016   4.863  25.875  0.00  0.00    +0.040 A 
ATOM     15  C   UNL     1       7.424   5.610  27.032  0.00  0.00    +0.065 C 
ATOM     16  C   UNL     1       7.728   3.521  25.681  0.00  0.00    +0.023 A 
ATOM     17  C   UNL     1       8.444   2.823  24.714  0.00  0.00    +0.015 A 
ENDBRANCH   7   8
ENDBRANCH   3   7
BRANCH   6  18
ATOM     18  C   UNL     1       9.922  -2.280  23.841  0.00  0.00    +0.077 C 
BRANCH  18  19
ATOM     19  C   UNL     1       8.504  -2.496  24.381  0.00  0.00    +0.178 C 
BRANCH  19  20
ATOM     20  O   UNL     1       8.344  -3.457  25.394  0.00  0.00    -0.286 OA
BRANCH  20  21
ATOM     21  P   UNL     1       7.778  -4.926  24.824  0.00  0.00    +0.480 P 
ATOM     22  O   UNL     1       8.949  -5.606  24.085  0.00  0.00    -0.227 OA
BRANCH  21  23
ATOM     23  O   UNL     1       8.372  -5.686  26.261  0.00  0.00    -0.302 OA
ATOM     24  H   UNL     1       8.166  -5.007  26.932  0.00  0.00    +0.222 HD
ENDBRANCH  21  23
BRANCH  21  25
ATOM     25  O   UNL     1       7.185  -4.166  23.389  0.00  0.00    -0.229 OA
BRANCH  25  26
ATOM     26  P   UNL     1       6.214  -5.171  22.596  0.00  0.00    +0.220 P 
ATOM     27  O   UNL     1       5.576  -6.119  23.561  0.00  0.00    -0.517 OA
ATOM     28  O   UNL     1       5.424  -4.373  21.592  0.00  0.00    -0.437 OA
BRANCH  26  29
ATOM     29  O   UNL     1       7.301  -5.939  21.695  0.00  0.00    -0.343 OA
ATOM     30  H   UNL     1       7.065  -5.678  20.787  0.00  0.00    +0.218 HD
ENDBRANCH  26  29
ENDBRANCH  25  26
ENDBRANCH  21  25
ENDBRANCH  20  21
ENDBRANCH  19  20
ENDBRANCH  18  19
ENDBRANCH   6  18
TORSDOF 10
ENDMDL
MODEL 7
REMARK VINA RESULT:      -6.6      2.525      3.870
REMARK  Name = 
REMARK  12 active torsions:
REMARK  status: ('A' for Active; 'I' for Inactive)
REMARK    1  A    between atoms: C_1  and  C_2
REMARK    2  A    between atoms: C_3  and  C_4
REMARK    3  A    between atoms: C_4  and  C_5
REMARK    4  A    between atoms: C_5  and  O_6
REMARK    5  A    between atoms: O_6  and  P_7
REMARK    6  A    between atoms: P_7  and  O_8
REMARK    7  A    between atoms: P_7  and  O_10
REMARK    8  A    between atoms: O_10  and  P_11
REMARK    9  A    between atoms: P_11  and  O_12
REMARK   10  A    between atoms: N_17  and  C_18
REMARK   11  A    between atoms: C_18  and  C_19
REMARK   12  A    between atoms: C_22  and  C_23
REMARK                            x       y       z     vdW  Elec       q    Type
REMARK                         _______ _______ _______ _____ _____    ______ ____
ROOT
ATOM      1  C   UNL     1       9.752  -1.103  21.776  0.00  0.00    +0.122 C 
ATOM      2  C   UNL     1       8.608  -0.967  22.714  0.00  0.00    +0.191 A 
ATOM      3  N   UNL     1       7.786   0.169  22.689  0.00  0.00    -0.190 N 
ATOM      4  C   UNL     1       6.748   0.118  23.499  0.00  0.00    +0.357 A 
ATOM      5  S   UNL     1       6.659  -1.369  24.293  0.00  0.00    -0.027 S 
ATOM      6  C   UNL     1       8.231  -1.837  23.728  0.00  0.00    +0.064 A 
ENDROOT
BRANCH   3   7
ATOM      7  C   UNL     1       7.917   1.347  21.819  0.00  0.00    +0.397 C 
BRANCH   7   8
ATOM      8  C   UNL     1       8.294   2.606  22.538  0.00  0.00    +0.057 A 
ATOM      9  C   UNL     1       7.476   3.728  22.399  0.00  0.00    +0.126 A 
ATOM     10  N   UNL     1       6.203   3.650  21.843  0.00  0.00    -0.343 N 
ATOM     11  H   UNL     1       6.170   3.379  20.870  0.00  0.00    +0.144 HD
ATOM     12  H   UNL     1       5.805   4.588  21.944  0.00  0.00    +0.144 HD
ATOM     13  N   UNL     1       7.825   4.941  22.844  0.00  0.00    -0.237 NA
ATOM     14  C   UNL     1       8.987   5.071  23.525  0.00  0.00    +0.040 A 
ATOM     15  C   UNL     1       9.439   6.459  23.864  0.00  0.00    +0.065 C 
ATOM     16  C   UNL     1       9.746   3.972  23.897  0.00  0.00    +0.023 A 
ATOM     17  C   UNL     1       9.391   2.723  23.400  0.00  0.00    +0.015 A 
ENDBRANCH   7   8
ENDBRANCH   3   7
BRANCH   6  18
ATOM     18  C   UNL     1       8.929  -3.038  24.352  0.00  0.00    +0.077 C 
BRANCH  18  19
ATOM     19  C   UNL     1       8.150  -4.309  24.000  0.00  0.00    +0.178 C 
BRANCH  19  20
ATOM     20  O   UNL     1       7.492  -4.336  22.758  0.00  0.00    -0.286 OA
BRANCH  20  21
ATOM     21  P   UNL     1       6.198  -5.397  22.721  0.00  0.00    +0.480 P 
ATOM     22  O   UNL     1       4.980  -4.607  22.197  0.00  0.00    -0.227 OA
BRANCH  21  23
ATOM     23  O   UNL     1       6.560  -5.745  21.065  0.00  0.00    -0.302 OA
ATOM     24  H   UNL     1       5.879  -5.214  20.607  0.00  0.00    +0.222 HD
ENDBRANCH  21  23
BRANCH  21  25
ATOM     25  O   UNL     1       5.837  -5.048  24.375  0.00  0.00    -0.229 OA
BRANCH  25  26
ATOM     26  P   UNL     1       4.807  -6.137  24.954  0.00  0.00    +0.220 P 
ATOM     27  O   UNL     1       5.384  -6.773  26.180  0.00  0.00    -0.517 OA
ATOM     28  O   UNL     1       3.422  -5.548  24.915  0.00  0.00    -0.437 OA
BRANCH  26  29
ATOM     29  O   UNL     1       4.807  -7.182  23.732  0.00  0.00    -0.343 OA
ATOM     30  H   UNL     1       4.931  -6.612  22.951  0.00  0.00    +0.218 HD
ENDBRANCH  26  29
ENDBRANCH  25  26
ENDBRANCH  21  25
ENDBRANCH  20  21
ENDBRANCH  19  20
ENDBRANCH  18  19
ENDBRANCH   6  18
TORSDOF 10
ENDMDL
MODEL 8
REMARK VINA RESULT:      -6.5      3.310      5.045
REMARK  Name = 
REMARK  12 active torsions:
REMARK  status: ('A' for Active; 'I' for Inactive)
REMARK    1  A    between atoms: C_1  and  C_2
REMARK    2  A    between atoms: C_3  and  C_4
REMARK    3  A    between atoms: C_4  and  C_5
REMARK    4  A    between atoms: C_5  and  O_6
REMARK    5  A    between atoms: O_6  and  P_7
REMARK    6  A    between atoms: P_7  and  O_8
REMARK    7  A    between atoms: P_7  and  O_10
REMARK    8  A    between atoms: O_10  and  P_11
REMARK    9  A    between atoms: P_11  and  O_12
REMARK   10  A    between atoms: N_17  and  C_18
REMARK   11  A    between atoms: C_18  and  C_19
REMARK   12  A    between atoms: C_22  and  C_23
REMARK                            x       y       z     vdW  Elec       q    Type
REMARK                         _______ _______ _______ _____ _____    ______ ____
ROOT
ATOM      1  C   UNL     1       9.464  -0.237  21.412  0.00  0.00    +0.122 C 
ATOM      2  C   UNL     1       9.503  -0.043  22.883  0.00  0.00    +0.191 A 
ATOM      3  N   UNL     1       9.499   1.245  23.442  0.00  0.00    -0.190 N 
ATOM      4  C   UNL     1       9.431   1.277  24.757  0.00  0.00    +0.357 A 
ATOM      5  S   UNL     1       9.283  -0.276  25.404  0.00  0.00    -0.027 S 
ATOM      6  C   UNL     1       9.605  -1.016  23.868  0.00  0.00    +0.064 A 
ENDROOT
BRANCH   3   7
ATOM      7  C   UNL     1       9.486   2.528  22.725  0.00  0.00    +0.397 C 
BRANCH   7   8
ATOM      8  C   UNL     1       8.145   3.193  22.673  0.00  0.00    +0.057 A 
ATOM      9  C   UNL     1       8.046   4.535  23.039  0.00  0.00    +0.126 A 
ATOM     10  N   UNL     1       9.168   5.342  23.196  0.00  0.00    -0.343 N 
ATOM     11  H   UNL     1       9.793   5.078  23.944  0.00  0.00    +0.144 HD
ATOM     12  H   UNL     1       8.804   6.281  23.379  0.00  0.00    +0.144 HD
ATOM     13  N   UNL     1       6.874   5.159  23.206  0.00  0.00    -0.237 NA
ATOM     14  C   UNL     1       5.735   4.481  22.932  0.00  0.00    +0.040 A 
ATOM     15  C   UNL     1       4.436   5.139  23.286  0.00  0.00    +0.065 C 
ATOM     16  C   UNL     1       5.752   3.221  22.353  0.00  0.00    +0.023 A 
ATOM     17  C   UNL     1       6.975   2.571  22.218  0.00  0.00    +0.015 A 
ENDBRANCH   7   8
ENDBRANCH   3   7
BRANCH   6  18
ATOM     18  C   UNL     1       9.922  -2.504  23.801  0.00  0.00    +0.077 C 
BRANCH  18  19
ATOM     19  C   UNL     1       8.611  -3.297  23.833  0.00  0.00    +0.178 C 
BRANCH  19  20
ATOM     20  O   UNL     1       7.713  -3.094  22.771  0.00  0.00    -0.286 OA
BRANCH  20  21
ATOM     21  P   UNL     1       6.133  -2.873  23.279  0.00  0.00    +0.480 P 
ATOM     22  O   UNL     1       6.190  -2.430  24.756  0.00  0.00    -0.227 OA
BRANCH  21  23
ATOM     23  O   UNL     1       6.261  -1.196  22.873  0.00  0.00    -0.302 OA
ATOM     24  H   UNL     1       7.095  -0.956  23.321  0.00  0.00    +0.222 HD
ENDBRANCH  21  23
BRANCH  21  25
ATOM     25  O   UNL     1       6.007  -4.549  23.685  0.00  0.00    -0.229 OA
BRANCH  25  26
ATOM     26  P   UNL     1       5.626  -5.404  22.379  0.00  0.00    +0.220 P 
ATOM     27  O   UNL     1       6.740  -6.348  22.054  0.00  0.00    -0.517 OA
ATOM     28  O   UNL     1       4.192  -5.845  22.502  0.00  0.00    -0.437 OA
BRANCH  26  29
ATOM     29  O   UNL     1       5.565  -4.220  21.293  0.00  0.00    -0.343 OA
ATOM     30  H   UNL     1       5.578  -3.414  21.840  0.00  0.00    +0.218 HD
ENDBRANCH  26  29
ENDBRANCH  25  26
ENDBRANCH  21  25
ENDBRANCH  20  21
ENDBRANCH  19  20
ENDBRANCH  18  19
ENDBRANCH   6  18
TORSDOF 10
ENDMDL
MODEL 9
REMARK VINA RESULT:      -6.5      3.153      4.886
REMARK  Name = 
REMARK  12 active torsions:
REMARK  status: ('A' for Active; 'I' for Inactive)
REMARK    1  A    between atoms: C_1  and  C_2
REMARK    2  A    between atoms: C_3  and  C_4
REMARK    3  A    between atoms: C_4  and  C_5
REMARK    4  A    between atoms: C_5  and  O_6
REMARK    5  A    between atoms: O_6  and  P_7
REMARK    6  A    between atoms: P_7  and  O_8
REMARK    7  A    between atoms: P_7  and  O_10
REMARK    8  A    between atoms: O_10  and  P_11
REMARK    9  A    between atoms: P_11  and  O_12
REMARK   10  A    between atoms: N_17  and  C_18
REMARK   11  A    between atoms: C_18  and  C_19
REMARK   12  A    between atoms: C_22  and  C_23
REMARK                            x       y       z     vdW  Elec       q    Type
REMARK                         _______ _______ _______ _____ _____    ______ ____
ROOT
ATOM      1  C   UNL     1       5.791   1.285  24.122  0.00  0.00    +0.122 C 
ATOM      2  C   UNL     1       6.954   0.986  23.249  0.00  0.00    +0.191 A 
ATOM      3  N   UNL     1       7.501   1.970  22.411  0.00  0.00    -0.190 N 
ATOM      4  C   UNL     1       8.591   1.605  21.769  0.00  0.00    +0.357 A 
ATOM      5  S   UNL     1       9.075   0.049  22.210  0.00  0.00    -0.027 S 
ATOM      6  C   UNL     1       7.601  -0.231  23.082  0.00  0.00    +0.064 A 
ENDROOT
BRANCH   3   7
ATOM      7  C   UNL     1       7.037   3.355  22.241  0.00  0.00    +0.397 C 
BRANCH   7   8
ATOM      8  C   UNL     1       7.706   4.345  23.145  0.00  0.00    +0.057 A 
ATOM      9  C   UNL     1       7.985   5.620  22.653  0.00  0.00    +0.126 A 
ATOM     10  N   UNL     1       7.439   6.088  21.462  0.00  0.00    -0.343 N 
ATOM     11  H   UNL     1       7.724   5.594  20.628  0.00  0.00    +0.144 HD
ATOM     12  H   UNL     1       7.739   7.064  21.391  0.00  0.00    +0.144 HD
ATOM     13  N   UNL     1       8.741   6.505  23.313  0.00  0.00    -0.237 NA
ATOM     14  C   UNL     1       9.192   6.177  24.547  0.00  0.00    +0.040 A 
ATOM     15  C   UNL     1      10.173   7.107  25.195  0.00  0.00    +0.065 C 
ATOM     16  C   UNL     1       8.778   5.025  25.197  0.00  0.00    +0.023 A 
ATOM     17  C   UNL     1       8.021   4.099  24.487  0.00  0.00    +0.015 A 
ENDBRANCH   7   8
ENDBRANCH   3   7
BRANCH   6  18
ATOM     18  C   UNL     1       7.243  -1.644  23.520  0.00  0.00    +0.077 C 
BRANCH  18  19
ATOM     19  C   UNL     1       7.999  -2.648  22.643  0.00  0.00    +0.178 C 
BRANCH  19  20
ATOM     20  O   UNL     1       7.982  -3.993  23.048  0.00  0.00    -0.286 OA
BRANCH  20  21
ATOM     21  P   UNL     1       8.627  -4.230  24.574  0.00  0.00    +0.480 P 
ATOM     22  O   UNL     1       9.466  -5.524  24.516  0.00  0.00    -0.227 OA
BRANCH  21  23
ATOM     23  O   UNL     1      10.059  -3.397  24.073  0.00  0.00    -0.302 OA
ATOM     24  H   UNL     1       9.694  -2.522  23.835  0.00  0.00    +0.222 HD
ENDBRANCH  21  23
BRANCH  21  25
ATOM     25  O   UNL     1       7.197  -5.063  25.074  0.00  0.00    -0.229 OA
BRANCH  25  26
ATOM     26  P   UNL     1       7.035  -4.968  26.669  0.00  0.00    +0.220 P 
ATOM     27  O   UNL     1       6.613  -3.584  27.051  0.00  0.00    -0.517 OA
ATOM     28  O   UNL     1       6.314  -6.202  27.146  0.00  0.00    -0.437 OA
BRANCH  26  29
ATOM     29  O   UNL     1       8.559  -5.228  27.109  0.00  0.00    -0.343 OA
ATOM     30  H   UNL     1       9.064  -4.625  26.534  0.00  0.00    +0.218 HD
ENDBRANCH  26  29
ENDBRANCH  25  26
ENDBRANCH  21  25
ENDBRANCH  20  21
ENDBRANCH  19  20
ENDBRANCH  18  19
ENDBRANCH   6  18
TORSDOF 10
ENDMDL
