MODEL 1
REMARK VINA RESULT:      -7.9      0.000      0.000
REMARK  Name = 
REMARK  7 active torsions:
REMARK  status: ('A' for Active; 'I' for Inactive)
REMARK    1  A    between atoms: C_2  and  N_3
REMARK    2  A    between atoms: C_2  and  C_4
REMARK    3  A    between atoms: C_2  and  C_22
REMARK    4  A    between atoms: C_4  and  O_5
REMARK    5  A    between atoms: O_5  and  C_6
REMARK    6  A    between atoms: C_10  and  C_12
REMARK    7  A    between atoms: C_22  and  C_23
REMARK                            x       y       z     vdW  Elec       q    Type
REMARK                         _______ _______ _______ _____ _____    ______ ____
ROOT
ATOM      1  O   UNL     1       7.565  -5.144  27.472  0.00  0.00    -0.489 OA
ENDROOT
BRANCH   1   2
ATOM      2  C   UNL     1       8.305  -4.575  26.475  0.00  0.00    +0.139 A 
ATOM      3  C   UNL     1       8.246  -3.182  26.404  0.00  0.00    +0.057 A 
ATOM      4  C   UNL     1       8.940  -2.474  25.411  0.00  0.00    +0.004 A 
ATOM      5  C   UNL     1       9.690  -3.258  24.528  0.00  0.00    +0.119 A 
ATOM      6  N   UNL     1       9.793  -4.608  24.571  0.00  0.00    -0.259 NA
ATOM      7  C   UNL     1       9.094  -5.233  25.540  0.00  0.00    +0.156 A 
BRANCH   4   8
ATOM      8  C   UNL     1       8.866  -1.001  25.288  0.00  0.00    -0.016 A 
ATOM      9  C   UNL     1       7.803  -0.270  25.845  0.00  0.00    +0.009 A 
ATOM     10  C   UNL     1       7.714   1.118  25.699  0.00  0.00    +0.010 A 
ATOM     11  C   UNL     1       8.681   1.818  24.964  0.00  0.00    +0.000 A 
ATOM     12  C   UNL     1       8.628   3.198  24.751  0.00  0.00    +0.119 A 
ATOM     13  N   UNL     1       9.531   3.895  24.022  0.00  0.00    -0.263 NA
ATOM     14  C   UNL     1      10.545   3.189  23.485  0.00  0.00    +0.111 A 
ATOM     15  C   UNL     1      10.707   1.824  23.646  0.00  0.00    +0.028 A 
ATOM     16  C   UNL     1       9.759   1.117  24.397  0.00  0.00    -0.014 A 
ATOM     17  C   UNL     1       9.848  -0.275  24.584  0.00  0.00    +0.017 A 
ENDBRANCH   4   8
ENDBRANCH   1   2
BRANCH   1  18
ATOM     18  C   UNL     1       6.170  -4.824  27.469  0.00  0.00    +0.247 C 
BRANCH  18  19
ATOM     19  C   UNL     1       5.455  -5.712  26.433  0.00  0.00    +0.089 C 
BRANCH  19  20
ATOM     20  N   UNL     1       5.298  -7.078  26.958  0.00  0.00    -0.324 NA
ATOM     21  H   UNL     1       4.685  -7.616  26.345  0.00  0.00    +0.119 HD
ATOM     22  H   UNL     1       6.210  -7.542  26.923  0.00  0.00    +0.119 HD
ENDBRANCH  19  20
BRANCH  19  23
ATOM     23  C   UNL     1       4.069  -5.165  26.049  0.00  0.00    +0.035 C 
BRANCH  23  24
ATOM     24  C   UNL     1       4.046  -4.410  24.717  0.00  0.00    +0.064 C 
ATOM     25  C   UNL     1       5.070  -4.890  23.737  0.00  0.00    -0.014 A 
ATOM     26  C   UNL     1       5.234  -6.124  23.133  0.00  0.00    +0.006 A 
ATOM     27  C   UNL     1       6.284  -6.268  22.223  0.00  0.00    +0.000 A 
ATOM     28  C   UNL     1       7.137  -5.188  21.934  0.00  0.00    +0.002 A 
ATOM     29  C   UNL     1       6.955  -3.949  22.551  0.00  0.00    +0.028 A 
ATOM     30  C   UNL     1       5.916  -3.813  23.451  0.00  0.00    +0.067 A 
ATOM     31  N   UNL     1       5.569  -2.648  24.152  0.00  0.00    -0.259 NA
ATOM     32  C   UNL     1       4.526  -2.966  24.858  0.00  0.00    +0.092 C 
ENDBRANCH  23  24
ENDBRANCH  19  23
ENDBRANCH  18  19
ENDBRANCH   1  18
TORSDOF 7
ENDMDL
MODEL 2
REMARK VINA RESULT:      -7.7      1.776      3.621
REMARK  Name = 
REMARK  7 active torsions:
REMARK  status: ('A' for Active; 'I' for Inactive)
REMARK    1  A    between atoms: C_2  and  N_3
REMARK    2  A    between atoms: C_2  and  C_4
REMARK    3  A    between atoms: C_2  and  C_22
REMARK    4  A    between atoms: C_4  and  O_5
REMARK    5  A    between atoms: O_5  and  C_6
REMARK    6  A    between atoms: C_10  and  C_12
REMARK    7  A    between atoms: C_22  and  C_23
REMARK                            x       y       z     vdW  Elec       q    Type
REMARK                         _______ _______ _______ _____ _____    ______ ____
ROOT
ATOM      1  O   UNL     1       8.678  -5.603  25.245  0.00  0.00    -0.489 OA
ENDROOT
BRANCH   1   2
ATOM      2  C   UNL     1       8.315  -4.797  24.204  0.00  0.00    +0.139 A 
ATOM      3  C   UNL     1       8.760  -3.476  24.284  0.00  0.00    +0.057 A 
ATOM      4  C   UNL     1       8.437  -2.538  23.292  0.00  0.00    +0.004 A 
ATOM      5  C   UNL     1       7.663  -3.026  22.234  0.00  0.00    +0.119 A 
ATOM      6  N   UNL     1       7.226  -4.301  22.104  0.00  0.00    -0.259 NA
ATOM      7  C   UNL     1       7.559  -5.154  23.095  0.00  0.00    +0.156 A 
BRANCH   4   8
ATOM      8  C   UNL     1       8.863  -1.123  23.369  0.00  0.00    -0.016 A 
ATOM      9  C   UNL     1      10.173  -0.769  23.731  0.00  0.00    +0.009 A 
ATOM     10  C   UNL     1      10.568   0.569  23.839  0.00  0.00    +0.010 A 
ATOM     11  C   UNL     1       9.647   1.600  23.608  0.00  0.00    +0.000 A 
ATOM     12  C   UNL     1       9.969   2.954  23.735  0.00  0.00    +0.119 A 
ATOM     13  N   UNL     1       9.094   3.970  23.547  0.00  0.00    -0.263 NA
ATOM     14  C   UNL     1       7.836   3.626  23.205  0.00  0.00    +0.111 A 
ATOM     15  C   UNL     1       7.412   2.319  23.034  0.00  0.00    +0.028 A 
ATOM     16  C   UNL     1       8.328   1.281  23.240  0.00  0.00    -0.014 A 
ATOM     17  C   UNL     1       7.961  -0.072  23.105  0.00  0.00    +0.017 A 
ENDBRANCH   4   8
ENDBRANCH   1   2
BRANCH   1  18
ATOM     18  C   UNL     1       8.505  -5.044  26.552  0.00  0.00    +0.247 C 
BRANCH  18  19
ATOM     19  C   UNL     1       7.077  -5.353  27.043  0.00  0.00    +0.089 C 
BRANCH  19  20
ATOM     20  N   UNL     1       7.127  -6.215  28.235  0.00  0.00    -0.324 NA
ATOM     21  H   UNL     1       6.195  -6.297  28.642  0.00  0.00    +0.119 HD
ATOM     22  H   UNL     1       7.389  -7.159  27.939  0.00  0.00    +0.119 HD
ENDBRANCH  19  20
BRANCH  19  23
ATOM     23  C   UNL     1       6.285  -4.079  27.383  0.00  0.00    +0.035 C 
BRANCH  23  24
ATOM     24  C   UNL     1       6.059  -3.151  26.187  0.00  0.00    +0.064 C 
ATOM     25  C   UNL     1       6.486  -1.738  26.433  0.00  0.00    -0.014 A 
ATOM     26  C   UNL     1       7.731  -1.207  26.720  0.00  0.00    +0.006 A 
ATOM     27  C   UNL     1       7.827   0.178  26.873  0.00  0.00    +0.000 A 
ATOM     28  C   UNL     1       6.692   0.997  26.736  0.00  0.00    +0.002 A 
ATOM     29  C   UNL     1       5.443   0.444  26.444  0.00  0.00    +0.028 A 
ATOM     30  C   UNL     1       5.355  -0.926  26.295  0.00  0.00    +0.067 A 
ATOM     31  N   UNL     1       4.196  -1.657  25.986  0.00  0.00    -0.259 NA
ATOM     32  C   UNL     1       4.576  -2.897  25.919  0.00  0.00    +0.092 C 
ENDBRANCH  23  24
ENDBRANCH  19  23
ENDBRANCH  18  19
ENDBRANCH   1  18
TORSDOF 7
ENDMDL
MODEL 3
REMARK VINA RESULT:      -7.6      1.934      2.676
REMARK  Name = 
REMARK  7 active torsions:
REMARK  status: ('A' for Active; 'I' for Inactive)
REMARK    1  A    between atoms: C_2  and  N_3
REMARK    2  A    between atoms: C_2  and  C_4
REMARK    3  A    between atoms: C_2  and  C_22
REMARK    4  A    between atoms: C_4  and  O_5
REMARK    5  A    between atoms: O_5  and  C_6
REMARK    6  A    between atoms: C_10  and  C_12
REMARK    7  A    between atoms: C_22  and  C_23
REMARK                            x       y       z     vdW  Elec       q    Type
REMARK                         _______ _______ _______ _____ _____    ______ ____
ROOT
ATOM      1  O   UNL     1       8.673  -2.686  26.327  0.00  0.00    -0.489 OA
ENDROOT
BRANCH   1   2
ATOM      2  C   UNL     1       9.012  -2.213  25.091  0.00  0.00    +0.139 A 
ATOM      3  C   UNL     1       8.616  -0.903  24.820  0.00  0.00    +0.057 A 
ATOM      4  C   UNL     1       8.881  -0.304  23.579  0.00  0.00    +0.004 A 
ATOM      5  C   UNL     1       9.570  -1.105  22.662  0.00  0.00    +0.119 A 
ATOM      6  N   UNL     1       9.991  -2.372  22.887  0.00  0.00    -0.259 NA
ATOM      7  C   UNL     1       9.696  -2.897  24.095  0.00  0.00    +0.156 A 
BRANCH   4   8
ATOM      8  C   UNL     1       8.441   1.070  23.250  0.00  0.00    -0.016 A 
ATOM      9  C   UNL     1       7.383   1.308  22.357  0.00  0.00    +0.009 A 
ATOM     10  C   UNL     1       6.989   2.607  22.017  0.00  0.00    +0.010 A 
ATOM     11  C   UNL     1       7.666   3.714  22.547  0.00  0.00    +0.000 A 
ATOM     12  C   UNL     1       7.345   5.034  22.218  0.00  0.00    +0.119 A 
ATOM     13  N   UNL     1       7.999   6.121  22.691  0.00  0.00    -0.263 NA
ATOM     14  C   UNL     1       9.018   5.888  23.542  0.00  0.00    +0.111 A 
ATOM     15  C   UNL     1       9.410   4.625  23.950  0.00  0.00    +0.028 A 
ATOM     16  C   UNL     1       8.728   3.511  23.445  0.00  0.00    -0.014 A 
ATOM     17  C   UNL     1       9.086   2.196  23.799  0.00  0.00    +0.017 A 
ENDBRANCH   4   8
ENDBRANCH   1   2
BRANCH   1  18
ATOM     18  C   UNL     1       8.959  -4.069  26.563  0.00  0.00    +0.247 C 
BRANCH  18  19
ATOM     19  C   UNL     1       7.634  -4.854  26.604  0.00  0.00    +0.089 C 
BRANCH  19  20
ATOM     20  N   UNL     1       7.752  -6.001  27.517  0.00  0.00    -0.324 NA
ATOM     21  H   UNL     1       6.940  -6.610  27.415  0.00  0.00    +0.119 HD
ATOM     22  H   UNL     1       8.561  -6.559  27.230  0.00  0.00    +0.119 HD
ENDBRANCH  19  20
BRANCH  19  23
ATOM     23  C   UNL     1       6.449  -3.981  27.054  0.00  0.00    +0.035 C 
BRANCH  23  24
ATOM     24  C   UNL     1       5.367  -3.803  25.985  0.00  0.00    +0.064 C 
ATOM     25  C   UNL     1       5.883  -3.904  24.585  0.00  0.00    -0.014 A 
ATOM     26  C   UNL     1       6.491  -4.954  23.919  0.00  0.00    +0.006 A 
ATOM     27  C   UNL     1       6.844  -4.758  22.582  0.00  0.00    +0.000 A 
ATOM     28  C   UNL     1       6.586  -3.532  21.942  0.00  0.00    +0.002 A 
ATOM     29  C   UNL     1       5.970  -2.484  22.630  0.00  0.00    +0.028 A 
ATOM     30  C   UNL     1       5.623  -2.684  23.951  0.00  0.00    +0.067 A 
ATOM     31  N   UNL     1       4.985  -1.760  24.794  0.00  0.00    -0.259 NA
ATOM     32  C   UNL     1       4.833  -2.372  25.928  0.00  0.00    +0.092 C 
ENDBRANCH  23  24
ENDBRANCH  19  23
ENDBRANCH  18  19
ENDBRANCH   1  18
TORSDOF 7
ENDMDL
MODEL 4
REMARK VINA RESULT:      -7.6      2.025      4.050
REMARK  Name = 
REMARK  7 active torsions:
REMARK  status: ('A' for Active; 'I' for Inactive)
REMARK    1  A    between atoms: C_2  and  N_3
REMARK    2  A    between atoms: C_2  and  C_4
REMARK    3  A    between atoms: C_2  and  C_22
REMARK    4  A    between atoms: C_4  and  O_5
REMARK    5  A    between atoms: O_5  and  C_6
REMARK    6  A    between atoms: C_10  and  C_12
REMARK    7  A    between atoms: C_22  and  C_23
REMARK                            x       y       z     vdW  Elec       q    Type
REMARK                         _______ _______ _______ _____ _____    ______ ____
ROOT
ATOM      1  O   UNL     1       4.044  -4.740  24.067  0.00  0.00    -0.489 OA
ENDROOT
BRANCH   1   2
ATOM      2  C   UNL     1       4.093  -3.623  24.852  0.00  0.00    +0.139 A 
ATOM      3  C   UNL     1       5.143  -2.744  24.580  0.00  0.00    +0.057 A 
ATOM      4  C   UNL     1       5.323  -1.571  25.328  0.00  0.00    +0.004 A 
ATOM      5  C   UNL     1       4.378  -1.352  26.336  0.00  0.00    +0.119 A 
ATOM      6  N   UNL     1       3.333  -2.165  26.623  0.00  0.00    -0.259 NA
ATOM      7  C   UNL     1       3.220  -3.283  25.876  0.00  0.00    +0.156 A 
BRANCH   4   8
ATOM      8  C   UNL     1       6.447  -0.639  25.087  0.00  0.00    -0.016 A 
ATOM      9  C   UNL     1       7.631  -0.707  25.841  0.00  0.00    +0.009 A 
ATOM     10  C   UNL     1       8.680   0.196  25.640  0.00  0.00    +0.010 A 
ATOM     11  C   UNL     1       8.564   1.216  24.685  0.00  0.00    +0.000 A 
ATOM     12  C   UNL     1       9.561   2.170  24.462  0.00  0.00    +0.119 A 
ATOM     13  N   UNL     1       9.465   3.182  23.569  0.00  0.00    -0.263 NA
ATOM     14  C   UNL     1       8.326   3.247  22.853  0.00  0.00    +0.111 A 
ATOM     15  C   UNL     1       7.281   2.347  22.978  0.00  0.00    +0.028 A 
ATOM     16  C   UNL     1       7.395   1.310  23.912  0.00  0.00    -0.014 A 
ATOM     17  C   UNL     1       6.364   0.371  24.108  0.00  0.00    +0.017 A 
ENDBRANCH   4   8
ENDBRANCH   1   2
BRANCH   1  18
ATOM     18  C   UNL     1       5.086  -5.697  24.286  0.00  0.00    +0.247 C 
BRANCH  18  19
ATOM     19  C   UNL     1       5.784  -5.991  22.943  0.00  0.00    +0.089 C 
BRANCH  19  20
ATOM     20  N   UNL     1       5.141  -5.231  21.860  0.00  0.00    -0.324 NA
ATOM     21  H   UNL     1       4.415  -5.798  21.423  0.00  0.00    +0.119 HD
ATOM     22  H   UNL     1       4.660  -4.427  22.273  0.00  0.00    +0.119 HD
ENDBRANCH  19  20
BRANCH  19  23
ATOM     23  C   UNL     1       7.283  -5.642  22.974  0.00  0.00    +0.035 C 
BRANCH  23  24
ATOM     24  C   UNL     1       7.636  -4.500  23.930  0.00  0.00    +0.064 C 
ATOM     25  C   UNL     1       8.319  -3.347  23.264  0.00  0.00    -0.014 A 
ATOM     26  C   UNL     1       7.884  -2.493  22.266  0.00  0.00    +0.006 A 
ATOM     27  C   UNL     1       8.750  -1.474  21.860  0.00  0.00    +0.000 A 
ATOM     28  C   UNL     1      10.016  -1.328  22.453  0.00  0.00    +0.002 A 
ATOM     29  C   UNL     1      10.438  -2.199  23.461  0.00  0.00    +0.028 A 
ATOM     30  C   UNL     1       9.578  -3.204  23.857  0.00  0.00    +0.067 A 
ATOM     31  N   UNL     1       9.818  -4.158  24.859  0.00  0.00    -0.259 NA
ATOM     32  C   UNL     1       8.742  -4.883  24.912  0.00  0.00    +0.092 C 
ENDBRANCH  23  24
ENDBRANCH  19  23
ENDBRANCH  18  19
ENDBRANCH   1  18
TORSDOF 7
ENDMDL
MODEL 5
REMARK VINA RESULT:      -7.6      2.431      4.185
REMARK  Name = 
REMARK  7 active torsions:
REMARK  status: ('A' for Active; 'I' for Inactive)
REMARK    1  A    between atoms: C_2  and  N_3
REMARK    2  A    between atoms: C_2  and  C_4
REMARK    3  A    between atoms: C_2  and  C_22
REMARK    4  A    between atoms: C_4  and  O_5
REMARK    5  A    between atoms: O_5  and  C_6
REMARK    6  A    between atoms: C_10  and  C_12
REMARK    7  A    between atoms: C_22  and  C_23
REMARK                            x       y       z     vdW  Elec       q    Type
REMARK                         _______ _______ _______ _____ _____    ______ ____
ROOT
ATOM      1  O   UNL     1       2.450  -4.505  24.510  0.00  0.00    -0.489 OA
ENDROOT
BRANCH   1   2
ATOM      2  C   UNL     1       2.872  -3.435  25.247  0.00  0.00    +0.139 A 
ATOM      3  C   UNL     1       4.189  -3.032  25.020  0.00  0.00    +0.057 A 
ATOM      4  C   UNL     1       4.755  -1.961  25.729  0.00  0.00    +0.004 A 
ATOM      5  C   UNL     1       3.907  -1.336  26.649  0.00  0.00    +0.119 A 
ATOM      6  N   UNL     1       2.618  -1.679  26.888  0.00  0.00    -0.259 NA
ATOM      7  C   UNL     1       2.135  -2.724  26.184  0.00  0.00    +0.156 A 
BRANCH   4   8
ATOM      8  C   UNL     1       6.159  -1.535  25.537  0.00  0.00    -0.016 A 
ATOM      9  C   UNL     1       7.065  -1.489  26.610  0.00  0.00    +0.009 A 
ATOM     10  C   UNL     1       8.383  -1.052  26.438  0.00  0.00    +0.010 A 
ATOM     11  C   UNL     1       8.828  -0.623  25.180  0.00  0.00    +0.000 A 
ATOM     12  C   UNL     1      10.120  -0.141  24.951  0.00  0.00    +0.119 A 
ATOM     13  N   UNL     1      10.569   0.307  23.755  0.00  0.00    -0.263 NA
ATOM     14  C   UNL     1       9.695   0.267  22.730  0.00  0.00    +0.111 A 
ATOM     15  C   UNL     1       8.398  -0.207  22.838  0.00  0.00    +0.028 A 
ATOM     16  C   UNL     1       7.948  -0.659  24.085  0.00  0.00    -0.014 A 
ATOM     17  C   UNL     1       6.636  -1.133  24.274  0.00  0.00    +0.017 A 
ENDBRANCH   4   8
ENDBRANCH   1   2
BRANCH   1  18
ATOM     18  C   UNL     1       3.484  -5.362  24.012  0.00  0.00    +0.247 C 
BRANCH  18  19
ATOM     19  C   UNL     1       3.534  -6.637  24.875  0.00  0.00    +0.089 C 
BRANCH  19  20
ATOM     20  N   UNL     1       3.170  -7.811  24.066  0.00  0.00    -0.324 NA
ATOM     21  H   UNL     1       3.679  -8.631  24.397  0.00  0.00    +0.119 HD
ATOM     22  H   UNL     1       2.179  -8.014  24.221  0.00  0.00    +0.119 HD
ENDBRANCH  19  20
BRANCH  19  23
ATOM     23  C   UNL     1       4.923  -6.872  25.494  0.00  0.00    +0.035 C 
BRANCH  23  24
ATOM     24  C   UNL     1       5.513  -5.637  26.181  0.00  0.00    +0.064 C 
ATOM     25  C   UNL     1       6.829  -5.205  25.615  0.00  0.00    -0.014 A 
ATOM     26  C   UNL     1       7.167  -4.767  24.347  0.00  0.00    +0.006 A 
ATOM     27  C   UNL     1       8.495  -4.400  24.119  0.00  0.00    +0.000 A 
ATOM     28  C   UNL     1       9.448  -4.473  25.150  0.00  0.00    +0.002 A 
ATOM     29  C   UNL     1       9.088  -4.915  26.425  0.00  0.00    +0.028 A 
ATOM     30  C   UNL     1       7.774  -5.278  26.644  0.00  0.00    +0.067 A 
ATOM     31  N   UNL     1       7.225  -5.727  27.855  0.00  0.00    -0.259 NA
ATOM     32  C   UNL     1       5.965  -5.927  27.612  0.00  0.00    +0.092 C 
ENDBRANCH  23  24
ENDBRANCH  19  23
ENDBRANCH  18  19
ENDBRANCH   1  18
TORSDOF 7
ENDMDL
MODEL 6
REMARK VINA RESULT:      -7.6      2.778      7.069
REMARK  Name = 
REMARK  7 active torsions:
REMARK  status: ('A' for Active; 'I' for Inactive)
REMARK    1  A    between atoms: C_2  and  N_3
REMARK    2  A    between atoms: C_2  and  C_4
REMARK    3  A    between atoms: C_2  and  C_22
REMARK    4  A    between atoms: C_4  and  O_5
REMARK    5  A    between atoms: O_5  and  C_6
REMARK    6  A    between atoms: C_10  and  C_12
REMARK    7  A    between atoms: C_22  and  C_23
REMARK                            x       y       z     vdW  Elec       q    Type
REMARK                         _______ _______ _______ _____ _____    ______ ____
ROOT
ATOM      1  O   UNL     1       7.884   2.381  25.625  0.00  0.00    -0.489 OA
ENDROOT
BRANCH   1   2
ATOM      2  C   UNL     1       7.303   1.265  26.158  0.00  0.00    +0.139 A 
ATOM      3  C   UNL     1       7.483   0.089  25.427  0.00  0.00    +0.057 A 
ATOM      4  C   UNL     1       6.918  -1.124  25.851  0.00  0.00    +0.004 A 
ATOM      5  C   UNL     1       6.190  -1.062  27.044  0.00  0.00    +0.119 A 
ATOM      6  N   UNL     1       6.007   0.050  27.796  0.00  0.00    -0.259 NA
ATOM      7  C   UNL     1       6.564   1.187  27.330  0.00  0.00    +0.156 A 
BRANCH   4   8
ATOM      8  C   UNL     1       7.059  -2.378  25.079  0.00  0.00    -0.016 A 
ATOM      9  C   UNL     1       7.884  -3.425  25.523  0.00  0.00    +0.009 A 
ATOM     10  C   UNL     1       8.047  -4.597  24.777  0.00  0.00    +0.010 A 
ATOM     11  C   UNL     1       7.400  -4.746  23.542  0.00  0.00    +0.000 A 
ATOM     12  C   UNL     1       7.551  -5.876  22.733  0.00  0.00    +0.119 A 
ATOM     13  N   UNL     1       6.963  -6.035  21.524  0.00  0.00    -0.263 NA
ATOM     14  C   UNL     1       6.177  -5.026  21.099  0.00  0.00    +0.111 A 
ATOM     15  C   UNL     1       5.943  -3.871  21.824  0.00  0.00    +0.028 A 
ATOM     16  C   UNL     1       6.565  -3.719  23.070  0.00  0.00    -0.014 A 
ATOM     17  C   UNL     1       6.389  -2.562  23.852  0.00  0.00    +0.017 A 
ENDBRANCH   4   8
ENDBRANCH   1   2
BRANCH   1  18
ATOM     18  C   UNL     1       7.153   3.018  24.571  0.00  0.00    +0.247 C 
BRANCH  18  19
ATOM     19  C   UNL     1       7.367   2.227  23.266  0.00  0.00    +0.089 C 
BRANCH  19  20
ATOM     20  N   UNL     1       6.086   2.045  22.567  0.00  0.00    -0.324 NA
ATOM     21  H   UNL     1       6.070   1.137  22.103  0.00  0.00    +0.119 HD
ATOM     22  H   UNL     1       5.339   2.017  23.267  0.00  0.00    +0.119 HD
ENDBRANCH  19  20
BRANCH  19  23
ATOM     23  C   UNL     1       8.358   2.922  22.316  0.00  0.00    +0.035 C 
BRANCH  23  24
ATOM     24  C   UNL     1       9.741   2.266  22.272  0.00  0.00    +0.064 C 
ATOM     25  C   UNL     1       9.699   0.772  22.322  0.00  0.00    -0.014 A 
ATOM     26  C   UNL     1       9.142  -0.146  21.449  0.00  0.00    +0.006 A 
ATOM     27  C   UNL     1       9.290  -1.502  21.751  0.00  0.00    +0.000 A 
ATOM     28  C   UNL     1       9.986  -1.911  22.902  0.00  0.00    +0.002 A 
ATOM     29  C   UNL     1      10.544  -0.970  23.770  0.00  0.00    +0.028 A 
ATOM     30  C   UNL     1      10.394   0.369  23.467  0.00  0.00    +0.067 A 
ATOM     31  N   UNL     1      10.896   1.451  24.207  0.00  0.00    -0.259 NA
ATOM     32  C   UNL     1      10.543   2.514  23.550  0.00  0.00    +0.092 C 
ENDBRANCH  23  24
ENDBRANCH  19  23
ENDBRANCH  18  19
ENDBRANCH   1  18
TORSDOF 7
ENDMDL
MODEL 7
REMARK VINA RESULT:      -7.5      2.933      7.473
REMARK  Name = 
REMARK  7 active torsions:
REMARK  status: ('A' for Active; 'I' for Inactive)
REMARK    1  A    between atoms: C_2  and  N_3
REMARK    2  A    between atoms: C_2  and  C_4
REMARK    3  A    between atoms: C_2  and  C_22
REMARK    4  A    between atoms: C_4  and  O_5
REMARK    5  A    between atoms: O_5  and  C_6
REMARK    6  A    between atoms: C_10  and  C_12
REMARK    7  A    between atoms: C_22  and  C_23
REMARK                            x       y       z     vdW  Elec       q    Type
REMARK                         _______ _______ _______ _____ _____    ______ ____
ROOT
ATOM      1  O   UNL     1       5.708   3.299  23.736  0.00  0.00    -0.489 OA
ENDROOT
BRANCH   1   2
ATOM      2  C   UNL     1       5.370   2.225  24.510  0.00  0.00    +0.139 A 
ATOM      3  C   UNL     1       6.026   1.033  24.201  0.00  0.00    +0.057 A 
ATOM      4  C   UNL     1       5.753  -0.151  24.904  0.00  0.00    +0.004 A 
ATOM      5  C   UNL     1       4.802  -0.038  25.923  0.00  0.00    +0.119 A 
ATOM      6  N   UNL     1       4.155   1.101  26.271  0.00  0.00    -0.259 NA
ATOM      7  C   UNL     1       4.452   2.203  25.551  0.00  0.00    +0.156 A 
BRANCH   4   8
ATOM      8  C   UNL     1       6.406  -1.438  24.575  0.00  0.00    -0.016 A 
ATOM      9  C   UNL     1       5.995  -2.210  23.475  0.00  0.00    +0.009 A 
ATOM     10  C   UNL     1       6.587  -3.443  23.184  0.00  0.00    +0.010 A 
ATOM     11  C   UNL     1       7.599  -3.956  24.008  0.00  0.00    +0.000 A 
ATOM     12  C   UNL     1       8.203  -5.198  23.792  0.00  0.00    +0.119 A 
ATOM     13  N   UNL     1       9.161  -5.731  24.586  0.00  0.00    -0.263 NA
ATOM     14  C   UNL     1       9.547  -4.990  25.644  0.00  0.00    +0.111 A 
ATOM     15  C   UNL     1       9.031  -3.741  25.943  0.00  0.00    +0.028 A 
ATOM     16  C   UNL     1       8.035  -3.208  25.115  0.00  0.00    -0.014 A 
ATOM     17  C   UNL     1       7.449  -1.954  25.370  0.00  0.00    +0.017 A 
ENDBRANCH   4   8
ENDBRANCH   1   2
BRANCH   1  18
ATOM     18  C   UNL     1       6.056   3.001  22.379  0.00  0.00    +0.247 C 
BRANCH  18  19
ATOM     19  C   UNL     1       7.447   3.591  22.079  0.00  0.00    +0.089 C 
BRANCH  19  20
ATOM     20  N   UNL     1       7.343   5.038  21.835  0.00  0.00    -0.324 NA
ATOM     21  H   UNL     1       8.050   5.327  21.159  0.00  0.00    +0.119 HD
ATOM     22  H   UNL     1       6.438   5.225  21.394  0.00  0.00    +0.119 HD
ENDBRANCH  19  20
BRANCH  19  23
ATOM     23  C   UNL     1       8.446   3.350  23.225  0.00  0.00    +0.035 C 
BRANCH  23  24
ATOM     24  C   UNL     1       9.741   2.663  22.786  0.00  0.00    +0.064 C 
ATOM     25  C   UNL     1       9.575   1.209  22.475  0.00  0.00    -0.014 A 
ATOM     26  C   UNL     1       8.810   0.571  21.514  0.00  0.00    +0.006 A 
ATOM     27  C   UNL     1       8.882  -0.822  21.446  0.00  0.00    +0.000 A 
ATOM     28  C   UNL     1       9.708  -1.543  22.325  0.00  0.00    +0.002 A 
ATOM     29  C   UNL     1      10.476  -0.883  23.288  0.00  0.00    +0.028 A 
ATOM     30  C   UNL     1      10.400   0.494  23.351  0.00  0.00    +0.067 A 
ATOM     31  N   UNL     1      11.105   1.327  24.234  0.00  0.00    -0.259 NA
ATOM     32  C   UNL     1      10.751   2.538  23.927  0.00  0.00    +0.092 C 
ENDBRANCH  23  24
ENDBRANCH  19  23
ENDBRANCH  18  19
ENDBRANCH   1  18
TORSDOF 7
ENDMDL
MODEL 8
REMARK VINA RESULT:      -7.4      2.089      3.212
REMARK  Name = 
REMARK  7 active torsions:
REMARK  status: ('A' for Active; 'I' for Inactive)
REMARK    1  A    between atoms: C_2  and  N_3
REMARK    2  A    between atoms: C_2  and  C_4
REMARK    3  A    between atoms: C_2  and  C_22
REMARK    4  A    between atoms: C_4  and  O_5
REMARK    5  A    between atoms: O_5  and  C_6
REMARK    6  A    between atoms: C_10  and  C_12
REMARK    7  A    between atoms: C_22  and  C_23
REMARK                            x       y       z     vdW  Elec       q    Type
REMARK                         _______ _______ _______ _____ _____    ______ ____
ROOT
ATOM      1  O   UNL     1       4.664  -4.076  27.784  0.00  0.00    -0.489 OA
ENDROOT
BRANCH   1   2
ATOM      2  C   UNL     1       4.910  -2.733  27.742  0.00  0.00    +0.139 A 
ATOM      3  C   UNL     1       5.882  -2.330  26.826  0.00  0.00    +0.057 A 
ATOM      4  C   UNL     1       6.247  -0.980  26.699  0.00  0.00    +0.004 A 
ATOM      5  C   UNL     1       5.563  -0.093  27.537  0.00  0.00    +0.119 A 
ATOM      6  N   UNL     1       4.600  -0.436  28.425  0.00  0.00    -0.259 NA
ATOM      7  C   UNL     1       4.301  -1.749  28.509  0.00  0.00    +0.156 A 
BRANCH   4   8
ATOM      8  C   UNL     1       7.300  -0.527  25.763  0.00  0.00    -0.016 A 
ATOM      9  C   UNL     1       8.663  -0.614  26.094  0.00  0.00    +0.009 A 
ATOM     10  C   UNL     1       9.658  -0.153  25.225  0.00  0.00    +0.010 A 
ATOM     11  C   UNL     1       9.312   0.436  24.001  0.00  0.00    +0.000 A 
ATOM     12  C   UNL     1      10.257   0.949  23.107  0.00  0.00    +0.119 A 
ATOM     13  N   UNL     1       9.952   1.548  21.932  0.00  0.00    -0.263 NA
ATOM     14  C   UNL     1       8.644   1.635  21.622  0.00  0.00    +0.111 A 
ATOM     15  C   UNL     1       7.625   1.146  22.423  0.00  0.00    +0.028 A 
ATOM     16  C   UNL     1       7.958   0.536  23.638  0.00  0.00    -0.014 A 
ATOM     17  C   UNL     1       6.975   0.035  24.513  0.00  0.00    +0.017 A 
ENDBRANCH   4   8
ENDBRANCH   1   2
BRANCH   1  18
ATOM     18  C   UNL     1       5.822  -4.918  27.812  0.00  0.00    +0.247 C 
BRANCH  18  19
ATOM     19  C   UNL     1       5.629  -6.066  26.802  0.00  0.00    +0.089 C 
BRANCH  19  20
ATOM     20  N   UNL     1       5.009  -7.225  27.464  0.00  0.00    -0.324 NA
ATOM     21  H   UNL     1       4.005  -7.228  27.287  0.00  0.00    +0.119 HD
ATOM     22  H   UNL     1       5.374  -8.077  27.029  0.00  0.00    +0.119 HD
ENDBRANCH  19  20
BRANCH  19  23
ATOM     23  C   UNL     1       4.758  -5.653  25.603  0.00  0.00    +0.035 C 
BRANCH  23  24
ATOM     24  C   UNL     1       5.421  -5.886  24.243  0.00  0.00    +0.064 C 
ATOM     25  C   UNL     1       6.486  -4.888  23.915  0.00  0.00    -0.014 A 
ATOM     26  C   UNL     1       7.684  -4.604  24.547  0.00  0.00    +0.006 A 
ATOM     27  C   UNL     1       8.499  -3.621  23.982  0.00  0.00    +0.000 A 
ATOM     28  C   UNL     1       8.110  -2.950  22.809  0.00  0.00    +0.002 A 
ATOM     29  C   UNL     1       6.898  -3.252  22.183  0.00  0.00    +0.028 A 
ATOM     30  C   UNL     1       6.096  -4.224  22.747  0.00  0.00    +0.067 A 
ATOM     31  N   UNL     1       4.860  -4.671  22.255  0.00  0.00    -0.259 NA
ATOM     32  C   UNL     1       4.475  -5.600  23.077  0.00  0.00    +0.092 C 
ENDBRANCH  23  24
ENDBRANCH  19  23
ENDBRANCH  18  19
ENDBRANCH   1  18
TORSDOF 7
ENDMDL
MODEL 9
REMARK VINA RESULT:      -7.3      3.319      7.457
REMARK  Name = 
REMARK  7 active torsions:
REMARK  status: ('A' for Active; 'I' for Inactive)
REMARK    1  A    between atoms: C_2  and  N_3
REMARK    2  A    between atoms: C_2  and  C_4
REMARK    3  A    between atoms: C_2  and  C_22
REMARK    4  A    between atoms: C_4  and  O_5
REMARK    5  A    between atoms: O_5  and  C_6
REMARK    6  A    between atoms: C_10  and  C_12
REMARK    7  A    between atoms: C_22  and  C_23
REMARK                            x       y       z     vdW  Elec       q    Type
REMARK                         _______ _______ _______ _____ _____    ______ ____
ROOT
ATOM      1  O   UNL     1       6.893   4.784  26.790  0.00  0.00    -0.489 OA
ENDROOT
BRANCH   1   2
ATOM      2  C   UNL     1       6.822   3.582  27.434  0.00  0.00    +0.139 A 
ATOM      3  C   UNL     1       7.158   2.468  26.663  0.00  0.00    +0.057 A 
ATOM      4  C   UNL     1       7.103   1.171  27.197  0.00  0.00    +0.004 A 
ATOM      5  C   UNL     1       6.707   1.089  28.535  0.00  0.00    +0.119 A 
ATOM      6  N   UNL     1       6.391   2.142  29.327  0.00  0.00    -0.259 NA
ATOM      7  C   UNL     1       6.451   3.362  28.754  0.00  0.00    +0.156 A 
BRANCH   4   8
ATOM      8  C   UNL     1       7.418  -0.032  26.394  0.00  0.00    -0.016 A 
ATOM      9  C   UNL     1       8.366  -0.975  26.826  0.00  0.00    +0.009 A 
ATOM     10  C   UNL     1       8.691  -2.094  26.051  0.00  0.00    +0.010 A 
ATOM     11  C   UNL     1       8.088  -2.290  24.801  0.00  0.00    +0.000 A 
ATOM     12  C   UNL     1       8.397  -3.366  23.965  0.00  0.00    +0.119 A 
ATOM     13  N   UNL     1       7.853  -3.566  22.741  0.00  0.00    -0.263 NA
ATOM     14  C   UNL     1       6.949  -2.655  22.329  0.00  0.00    +0.111 A 
ATOM     15  C   UNL     1       6.555  -1.561  23.080  0.00  0.00    +0.028 A 
ATOM     16  C   UNL     1       7.133  -1.367  24.341  0.00  0.00    -0.014 A 
ATOM     17  C   UNL     1       6.797  -0.265  25.150  0.00  0.00    +0.017 A 
ENDBRANCH   4   8
ENDBRANCH   1   2
BRANCH   1  18
ATOM     18  C   UNL     1       6.821   4.728  25.361  0.00  0.00    +0.247 C 
BRANCH  18  19
ATOM     19  C   UNL     1       8.099   5.355  24.771  0.00  0.00    +0.089 C 
BRANCH  19  20
ATOM     20  N   UNL     1       9.068   5.636  25.843  0.00  0.00    -0.324 NA
ATOM     21  H   UNL     1       8.574   5.847  26.710  0.00  0.00    +0.119 HD
ATOM     22  H   UNL     1       9.603   4.782  26.025  0.00  0.00    +0.119 HD
ENDBRANCH  19  20
BRANCH  19  23
ATOM     23  C   UNL     1       8.767   4.449  23.722  0.00  0.00    +0.035 C 
BRANCH  23  24
ATOM     24  C   UNL     1       8.095   3.083  23.564  0.00  0.00    +0.064 C 
ATOM     25  C   UNL     1       9.059   1.939  23.532  0.00  0.00    -0.014 A 
ATOM     26  C   UNL     1       9.955   1.484  24.484  0.00  0.00    +0.006 A 
ATOM     27  C   UNL     1      10.716   0.355  24.174  0.00  0.00    +0.000 A 
ATOM     28  C   UNL     1      10.568  -0.293  22.935  0.00  0.00    +0.002 A 
ATOM     29  C   UNL     1       9.658   0.179  21.986  0.00  0.00    +0.028 A 
ATOM     30  C   UNL     1       8.909   1.296  22.299  0.00  0.00    +0.067 A 
ATOM     31  N   UNL     1       7.938   1.902  21.485  0.00  0.00    -0.259 NA
ATOM     32  C   UNL     1       7.474   2.895  22.180  0.00  0.00    +0.092 C 
ENDBRANCH  23  24
ENDBRANCH  19  23
ENDBRANCH  18  19
ENDBRANCH   1  18
TORSDOF 7
ENDMDL
