MODEL 1
REMARK VINA RESULT:      -4.4      0.000      0.000
REMARK  Name = 
REMARK  8 active torsions:
REMARK  status: ('A' for Active; 'I' for Inactive)
REMARK    1  A    between atoms: N_1  and  C_2
REMARK    2  A    between atoms: C_2  and  C_3
REMARK    3  A    between atoms: C_3  and  C_4
REMARK    4  A    between atoms: C_4  and  C_5
REMARK    5  A    between atoms: C_5  and  N_6
REMARK    6  A    between atoms: C_5  and  C_7
REMARK    7  A    between atoms: C_5  and  C_10
REMARK    8  A    between atoms: C_10  and  O_11
REMARK                            x       y       z     vdW  Elec       q    Type
REMARK                         _______ _______ _______ _____ _____    ______ ____
ROOT
ATOM      1  C   UNL     1       9.471   2.863  23.104  0.00  0.00    +0.175 C 
ENDROOT
BRANCH   1   2
ATOM      2  C   UNL     1       9.208   1.874  24.260  0.00  0.00    +0.372 C 
ATOM      3  F   UNL     1       8.675   2.498  25.338  0.00  0.00    -0.207 F 
ATOM      4  F   UNL     1      10.392   1.341  24.678  0.00  0.00    -0.207 F 
ENDBRANCH   1   2
BRANCH   1   5
ATOM      5  N   UNL     1      10.124   2.196  21.901  0.00  0.00    -0.311 NA
ATOM      6  H   UNL     1      10.331   2.925  21.209  0.00  0.00    +0.119 HD
ATOM      7  H   UNL     1      11.051   1.876  22.209  0.00  0.00    +0.119 HD
ENDBRANCH   1   5
BRANCH   1   8
ATOM      8  C   UNL     1       8.075   3.332  22.664  0.00  0.00    +0.331 C 
ATOM      9  O   UNL     1       7.076   2.637  22.576  0.00  0.00    -0.249 OA
BRANCH   8  10
ATOM     10  O   UNL     1       8.070   4.659  22.355  0.00  0.00    -0.479 OA
ATOM     11  H   UNL     1       7.895   5.147  23.199  0.00  0.00    +0.295 HD
ENDBRANCH   8  10
ENDBRANCH   1   8
BRANCH   1  12
ATOM     12  C   UNL     1      10.308   4.088  23.533  0.00  0.00    +0.040 C 
BRANCH  12  13
ATOM     13  C   UNL     1      11.821   3.968  23.286  0.00  0.00    +0.017 C 
BRANCH  13  14
ATOM     14  C   UNL     1      12.550   5.311  23.405  0.00  0.00    +0.078 C 
BRANCH  14  15
ATOM     15  N   UNL     1      13.971   5.173  23.134  0.00  0.00    -0.330 NA
ATOM     16  H   UNL     1      14.374   4.446  23.726  0.00  0.00    +0.118 HD
ATOM     17  H   UNL     1      14.113   4.868  22.170  0.00  0.00    +0.118 HD
ENDBRANCH  14  15
ENDBRANCH  13  14
ENDBRANCH  12  13
ENDBRANCH   1  12
TORSDOF 8
ENDMDL
MODEL 2
REMARK VINA RESULT:      -4.4      2.645      3.367
REMARK  Name = 
REMARK  8 active torsions:
REMARK  status: ('A' for Active; 'I' for Inactive)
REMARK    1  A    between atoms: N_1  and  C_2
REMARK    2  A    between atoms: C_2  and  C_3
REMARK    3  A    between atoms: C_3  and  C_4
REMARK    4  A    between atoms: C_4  and  C_5
REMARK    5  A    between atoms: C_5  and  N_6
REMARK    6  A    between atoms: C_5  and  C_7
REMARK    7  A    between atoms: C_5  and  C_10
REMARK    8  A    between atoms: C_10  and  O_11
REMARK                            x       y       z     vdW  Elec       q    Type
REMARK                         _______ _______ _______ _____ _____    ______ ____
ROOT
ATOM      1  C   UNL     1      10.075   1.629  23.633  0.00  0.00    +0.175 C 
ENDROOT
BRANCH   1   2
ATOM      2  C   UNL     1      10.839   0.473  24.314  0.00  0.00    +0.372 C 
ATOM      3  F   UNL     1      10.279   0.136  25.500  0.00  0.00    -0.207 F 
ATOM      4  F   UNL     1      12.111   0.876  24.597  0.00  0.00    -0.207 F 
ENDBRANCH   1   2
BRANCH   1   5
ATOM      5  N   UNL     1      10.895   2.910  23.561  0.00  0.00    -0.311 NA
ATOM      6  H   UNL     1      11.262   2.997  22.606  0.00  0.00    +0.119 HD
ATOM      7  H   UNL     1      10.230   3.690  23.643  0.00  0.00    +0.119 HD
ENDBRANCH   1   5
BRANCH   1   8
ATOM      8  C   UNL     1       9.846   1.151  22.190  0.00  0.00    +0.331 C 
ATOM      9  O   UNL     1       9.922   0.001  21.790  0.00  0.00    -0.249 OA
BRANCH   8  10
ATOM     10  O   UNL     1       9.550   2.193  21.363  0.00  0.00    -0.479 OA
ATOM     11  H   UNL     1       9.760   3.022  21.863  0.00  0.00    +0.295 HD
ENDBRANCH   8  10
ENDBRANCH   1   8
BRANCH   1  12
ATOM     12  C   UNL     1       8.710   1.926  24.294  0.00  0.00    +0.040 C 
BRANCH  12  13
ATOM     13  C   UNL     1       8.477   3.394  24.686  0.00  0.00    +0.017 C 
BRANCH  13  14
ATOM     14  C   UNL     1       7.544   4.126  23.716  0.00  0.00    +0.078 C 
BRANCH  14  15
ATOM     15  N   UNL     1       8.269   4.640  22.565  0.00  0.00    -0.330 NA
ATOM     16  H   UNL     1       9.126   4.106  22.421  0.00  0.00    +0.118 HD
ATOM     17  H   UNL     1       7.711   4.518  21.720  0.00  0.00    +0.118 HD
ENDBRANCH  14  15
ENDBRANCH  13  14
ENDBRANCH  12  13
ENDBRANCH   1  12
TORSDOF 8
ENDMDL
MODEL 3
REMARK VINA RESULT:      -4.4      3.208      4.808
REMARK  Name = 
REMARK  8 active torsions:
REMARK  status: ('A' for Active; 'I' for Inactive)
REMARK    1  A    between atoms: N_1  and  C_2
REMARK    2  A    between atoms: C_2  and  C_3
REMARK    3  A    between atoms: C_3  and  C_4
REMARK    4  A    between atoms: C_4  and  C_5
REMARK    5  A    between atoms: C_5  and  N_6
REMARK    6  A    between atoms: C_5  and  C_7
REMARK    7  A    between atoms: C_5  and  C_10
REMARK    8  A    between atoms: C_10  and  O_11
REMARK                            x       y       z     vdW  Elec       q    Type
REMARK                         _______ _______ _______ _____ _____    ______ ____
ROOT
ATOM      1  C   UNL     1       9.423   0.903  23.383  0.00  0.00    +0.175 C 
ENDROOT
BRANCH   1   2
ATOM      2  C   UNL     1       9.880   2.321  23.788  0.00  0.00    +0.372 C 
ATOM      3  F   UNL     1      11.214   2.367  24.020  0.00  0.00    -0.207 F 
ATOM      4  F   UNL     1       9.280   2.673  24.960  0.00  0.00    -0.207 F 
ENDBRANCH   1   2
BRANCH   1   5
ATOM      5  N   UNL     1       7.960   0.642  23.719  0.00  0.00    -0.311 NA
ATOM      6  H   UNL     1       7.418   1.465  23.434  0.00  0.00    +0.119 HD
ATOM      7  H   UNL     1       7.640  -0.099  23.083  0.00  0.00    +0.119 HD
ENDBRANCH   1   5
BRANCH   1   8
ATOM      8  C   UNL     1       9.550   0.873  21.851  0.00  0.00    +0.331 C 
ATOM      9  O   UNL     1       9.457  -0.114  21.139  0.00  0.00    -0.249 OA
BRANCH   8  10
ATOM     10  O   UNL     1       9.803   2.114  21.348  0.00  0.00    -0.479 OA
ATOM     11  H   UNL     1      10.098   2.675  22.110  0.00  0.00    +0.295 HD
ENDBRANCH   8  10
ENDBRANCH   1   8
BRANCH   1  12
ATOM     12  C   UNL     1      10.300  -0.214  23.989  0.00  0.00    +0.040 C 
BRANCH  12  13
ATOM     13  C   UNL     1       9.528  -1.378  24.632  0.00  0.00    +0.017 C 
BRANCH  13  14
ATOM     14  C   UNL     1       9.491  -2.627  23.745  0.00  0.00    +0.078 C 
BRANCH  14  15
ATOM     15  N   UNL     1       8.479  -2.514  22.708  0.00  0.00    -0.330 NA
ATOM     16  H   UNL     1       8.807  -2.950  21.846  0.00  0.00    +0.118 HD
ATOM     17  H   UNL     1       7.639  -3.023  22.985  0.00  0.00    +0.118 HD
ENDBRANCH  14  15
ENDBRANCH  13  14
ENDBRANCH  12  13
ENDBRANCH   1  12
TORSDOF 8
ENDMDL
MODEL 4
REMARK VINA RESULT:      -4.4      3.167      3.919
REMARK  Name = 
REMARK  8 active torsions:
REMARK  status: ('A' for Active; 'I' for Inactive)
REMARK    1  A    between atoms: N_1  and  C_2
REMARK    2  A    between atoms: C_2  and  C_3
REMARK    3  A    between atoms: C_3  and  C_4
REMARK    4  A    between atoms: C_4  and  C_5
REMARK    5  A    between atoms: C_5  and  N_6
REMARK    6  A    between atoms: C_5  and  C_7
REMARK    7  A    between atoms: C_5  and  C_10
REMARK    8  A    between atoms: C_10  and  O_11
REMARK                            x       y       z     vdW  Elec       q    Type
REMARK                         _______ _______ _______ _____ _____    ______ ____
ROOT
ATOM      1  C   UNL     1       9.557   1.247  22.722  0.00  0.00    +0.175 C 
ENDROOT
BRANCH   1   2
ATOM      2  C   UNL     1      10.219   1.594  24.073  0.00  0.00    +0.372 C 
ATOM      3  F   UNL     1       9.355   2.229  24.902  0.00  0.00    -0.207 F 
ATOM      4  F   UNL     1      11.249   2.462  23.862  0.00  0.00    -0.207 F 
ENDBRANCH   1   2
BRANCH   1   5
ATOM      5  N   UNL     1      10.096   2.089  21.573  0.00  0.00    -0.311 NA
ATOM      6  H   UNL     1      10.022   3.077  21.843  0.00  0.00    +0.119 HD
ATOM      7  H   UNL     1      11.109   1.918  21.533  0.00  0.00    +0.119 HD
ENDBRANCH   1   5
BRANCH   1   8
ATOM      8  C   UNL     1       9.963  -0.210  22.448  0.00  0.00    +0.331 C 
ATOM      9  O   UNL     1      10.469  -0.979  23.248  0.00  0.00    -0.249 OA
BRANCH   8  10
ATOM     10  O   UNL     1       9.701  -0.566  21.160  0.00  0.00    -0.479 OA
ATOM     11  H   UNL     1       9.840   0.244  20.606  0.00  0.00    +0.295 HD
ENDBRANCH   8  10
ENDBRANCH   1   8
BRANCH   1  12
ATOM     12  C   UNL     1       8.016   1.348  22.757  0.00  0.00    +0.040 C 
BRANCH  12  13
ATOM     13  C   UNL     1       7.405   2.391  21.806  0.00  0.00    +0.017 C 
BRANCH  13  14
ATOM     14  C   UNL     1       7.081   3.715  22.508  0.00  0.00    +0.078 C 
BRANCH  14  15
ATOM     15  N   UNL     1       8.243   4.587  22.564  0.00  0.00    -0.330 NA
ATOM     16  H   UNL     1       8.237   5.233  21.774  0.00  0.00    +0.118 HD
ATOM     17  H   UNL     1       8.205   5.162  23.405  0.00  0.00    +0.118 HD
ENDBRANCH  14  15
ENDBRANCH  13  14
ENDBRANCH  12  13
ENDBRANCH   1  12
TORSDOF 8
ENDMDL
MODEL 5
REMARK VINA RESULT:      -4.3      4.683      6.396
REMARK  Name = 
REMARK  8 active torsions:
REMARK  status: ('A' for Active; 'I' for Inactive)
REMARK    1  A    between atoms: N_1  and  C_2
REMARK    2  A    between atoms: C_2  and  C_3
REMARK    3  A    between atoms: C_3  and  C_4
REMARK    4  A    between atoms: C_4  and  C_5
REMARK    5  A    between atoms: C_5  and  N_6
REMARK    6  A    between atoms: C_5  and  C_7
REMARK    7  A    between atoms: C_5  and  C_10
REMARK    8  A    between atoms: C_10  and  O_11
REMARK                            x       y       z     vdW  Elec       q    Type
REMARK                         _______ _______ _______ _____ _____    ______ ____
ROOT
ATOM      1  C   UNL     1       9.323  -1.166  23.659  0.00  0.00    +0.175 C 
ENDROOT
BRANCH   1   2
ATOM      2  C   UNL     1       9.719  -0.149  24.752  0.00  0.00    +0.372 C 
ATOM      3  F   UNL     1      11.062   0.007  24.823  0.00  0.00    -0.207 F 
ATOM      4  F   UNL     1       9.327  -0.620  25.970  0.00  0.00    -0.207 F 
ENDBRANCH   1   2
BRANCH   1   5
ATOM      5  N   UNL     1       7.814  -1.285  23.490  0.00  0.00    -0.311 NA
ATOM      6  H   UNL     1       7.369  -0.798  24.276  0.00  0.00    +0.119 HD
ATOM      7  H   UNL     1       7.565  -0.715  22.671  0.00  0.00    +0.119 HD
ENDBRANCH   1   5
BRANCH   1   8
ATOM      8  C   UNL     1       9.883  -0.576  22.354  0.00  0.00    +0.331 C 
ATOM      9  O   UNL     1       9.950   0.608  22.069  0.00  0.00    -0.249 OA
BRANCH   8  10
ATOM     10  O   UNL     1      10.303  -1.556  21.506  0.00  0.00    -0.479 OA
ATOM     11  H   UNL     1      10.258  -2.408  22.010  0.00  0.00    +0.295 HD
ENDBRANCH   8  10
ENDBRANCH   1   8
BRANCH   1  12
ATOM     12  C   UNL     1       9.930  -2.568  23.886  0.00  0.00    +0.040 C 
BRANCH  12  13
ATOM     13  C   UNL     1       8.918  -3.673  24.231  0.00  0.00    +0.017 C 
BRANCH  13  14
ATOM     14  C   UNL     1       9.259  -4.404  25.533  0.00  0.00    +0.078 C 
BRANCH  14  15
ATOM     15  N   UNL     1      10.168  -5.514  25.299  0.00  0.00    -0.330 NA
ATOM     16  H   UNL     1      11.124  -5.172  25.203  0.00  0.00    +0.118 HD
ATOM     17  H   UNL     1      10.167  -6.140  26.105  0.00  0.00    +0.118 HD
ENDBRANCH  14  15
ENDBRANCH  13  14
ENDBRANCH  12  13
ENDBRANCH   1  12
TORSDOF 8
ENDMDL
MODEL 6
REMARK VINA RESULT:      -4.3      2.724      3.954
REMARK  Name = 
REMARK  8 active torsions:
REMARK  status: ('A' for Active; 'I' for Inactive)
REMARK    1  A    between atoms: N_1  and  C_2
REMARK    2  A    between atoms: C_2  and  C_3
REMARK    3  A    between atoms: C_3  and  C_4
REMARK    4  A    between atoms: C_4  and  C_5
REMARK    5  A    between atoms: C_5  and  N_6
REMARK    6  A    between atoms: C_5  and  C_7
REMARK    7  A    between atoms: C_5  and  C_10
REMARK    8  A    between atoms: C_10  and  O_11
REMARK                            x       y       z     vdW  Elec       q    Type
REMARK                         _______ _______ _______ _____ _____    ______ ____
ROOT
ATOM      1  C   UNL     1       9.062   2.133  22.744  0.00  0.00    +0.175 C 
ENDROOT
BRANCH   1   2
ATOM      2  C   UNL     1       7.719   1.822  22.049  0.00  0.00    +0.372 C 
ATOM      3  F   UNL     1       7.144   0.704  22.554  0.00  0.00    -0.207 F 
ATOM      4  F   UNL     1       7.941   1.570  20.727  0.00  0.00    -0.207 F 
ENDBRANCH   1   2
BRANCH   1   5
ATOM      5  N   UNL     1      10.216   2.257  21.757  0.00  0.00    -0.311 NA
ATOM      6  H   UNL     1      10.039   3.077  21.165  0.00  0.00    +0.119 HD
ATOM      7  H   UNL     1      11.044   2.521  22.306  0.00  0.00    +0.119 HD
ENDBRANCH   1   5
BRANCH   1   8
ATOM      8  C   UNL     1       8.861   3.515  23.386  0.00  0.00    +0.331 C 
ATOM      9  O   UNL     1       9.161   3.830  24.526  0.00  0.00    -0.249 OA
BRANCH   8  10
ATOM     10  O   UNL     1       8.275   4.386  22.518  0.00  0.00    -0.479 OA
ATOM     11  H   UNL     1       7.306   4.177  22.515  0.00  0.00    +0.295 HD
ENDBRANCH   8  10
ENDBRANCH   1   8
BRANCH   1  12
ATOM     12  C   UNL     1       9.429   1.109  23.841  0.00  0.00    +0.040 C 
BRANCH  12  13
ATOM     13  C   UNL     1      10.525   0.101  23.457  0.00  0.00    +0.017 C 
BRANCH  13  14
ATOM     14  C   UNL     1       9.962  -1.168  22.807  0.00  0.00    +0.078 C 
BRANCH  14  15
ATOM     15  N   UNL     1       9.895  -1.040  21.361  0.00  0.00    -0.330 NA
ATOM     16  H   UNL     1       9.515  -1.892  20.949  0.00  0.00    +0.118 HD
ATOM     17  H   UNL     1       9.252  -0.289  21.108  0.00  0.00    +0.118 HD
ENDBRANCH  14  15
ENDBRANCH  13  14
ENDBRANCH  12  13
ENDBRANCH   1  12
TORSDOF 8
ENDMDL
MODEL 7
REMARK VINA RESULT:      -4.3      4.652      5.484
REMARK  Name = 
REMARK  8 active torsions:
REMARK  status: ('A' for Active; 'I' for Inactive)
REMARK    1  A    between atoms: N_1  and  C_2
REMARK    2  A    between atoms: C_2  and  C_3
REMARK    3  A    between atoms: C_3  and  C_4
REMARK    4  A    between atoms: C_4  and  C_5
REMARK    5  A    between atoms: C_5  and  N_6
REMARK    6  A    between atoms: C_5  and  C_7
REMARK    7  A    between atoms: C_5  and  C_10
REMARK    8  A    between atoms: C_10  and  O_11
REMARK                            x       y       z     vdW  Elec       q    Type
REMARK                         _______ _______ _______ _____ _____    ______ ____
ROOT
ATOM      1  C   UNL     1       9.333  -0.154  23.011  0.00  0.00    +0.175 C 
ENDROOT
BRANCH   1   2
ATOM      2  C   UNL     1       9.810   0.704  21.819  0.00  0.00    +0.372 C 
ATOM      3  F   UNL     1      10.357   1.872  22.234  0.00  0.00    -0.207 F 
ATOM      4  F   UNL     1       8.738   1.041  21.047  0.00  0.00    -0.207 F 
ENDBRANCH   1   2
BRANCH   1   5
ATOM      5  N   UNL     1       7.822  -0.342  23.029  0.00  0.00    -0.311 NA
ATOM      6  H   UNL     1       7.409   0.353  22.397  0.00  0.00    +0.119 HD
ATOM      7  H   UNL     1       7.632  -1.241  22.568  0.00  0.00    +0.119 HD
ENDBRANCH   1   5
BRANCH   1   8
ATOM      8  C   UNL     1       9.962  -1.537  22.775  0.00  0.00    +0.331 C 
ATOM      9  O   UNL     1      10.122  -2.409  23.613  0.00  0.00    -0.249 OA
BRANCH   8  10
ATOM     10  O   UNL     1      10.352  -1.691  21.478  0.00  0.00    -0.479 OA
ATOM     11  H   UNL     1      10.721  -2.607  21.398  0.00  0.00    +0.295 HD
ENDBRANCH   8  10
ENDBRANCH   1   8
BRANCH   1  12
ATOM     12  C   UNL     1       9.802   0.392  24.378  0.00  0.00    +0.040 C 
BRANCH  12  13
ATOM     13  C   UNL     1       8.722   0.439  25.472  0.00  0.00    +0.017 C 
BRANCH  13  14
ATOM     14  C   UNL     1       8.832  -0.723  26.464  0.00  0.00    +0.078 C 
BRANCH  14  15
ATOM     15  N   UNL     1       8.193  -1.924  25.952  0.00  0.00    -0.330 NA
ATOM     16  H   UNL     1       7.595  -2.338  26.668  0.00  0.00    +0.118 HD
ATOM     17  H   UNL     1       7.581  -1.686  25.171  0.00  0.00    +0.118 HD
ENDBRANCH  14  15
ENDBRANCH  13  14
ENDBRANCH  12  13
ENDBRANCH   1  12
TORSDOF 8
ENDMDL
MODEL 8
REMARK VINA RESULT:      -4.3      3.710      4.397
REMARK  Name = 
REMARK  8 active torsions:
REMARK  status: ('A' for Active; 'I' for Inactive)
REMARK    1  A    between atoms: N_1  and  C_2
REMARK    2  A    between atoms: C_2  and  C_3
REMARK    3  A    between atoms: C_3  and  C_4
REMARK    4  A    between atoms: C_4  and  C_5
REMARK    5  A    between atoms: C_5  and  N_6
REMARK    6  A    between atoms: C_5  and  C_7
REMARK    7  A    between atoms: C_5  and  C_10
REMARK    8  A    between atoms: C_10  and  O_11
REMARK                            x       y       z     vdW  Elec       q    Type
REMARK                         _______ _______ _______ _____ _____    ______ ____
ROOT
ATOM      1  C   UNL     1       9.197   0.135  22.966  0.00  0.00    +0.175 C 
ENDROOT
BRANCH   1   2
ATOM      2  C   UNL     1       9.483   0.714  21.563  0.00  0.00    +0.372 C 
ATOM      3  F   UNL     1      10.440   1.672  21.606  0.00  0.00    -0.207 F 
ATOM      4  F   UNL     1       8.359   1.323  21.088  0.00  0.00    -0.207 F 
ENDBRANCH   1   2
BRANCH   1   5
ATOM      5  N   UNL     1       7.711  -0.091  23.214  0.00  0.00    -0.311 NA
ATOM      6  H   UNL     1       7.380  -0.789  22.538  0.00  0.00    +0.119 HD
ATOM      7  H   UNL     1       7.634  -0.567  24.121  0.00  0.00    +0.119 HD
ENDBRANCH   1   5
BRANCH   1   8
ATOM      8  C   UNL     1       9.874  -1.245  22.965  0.00  0.00    +0.331 C 
ATOM      9  O   UNL     1      10.037  -1.969  23.934  0.00  0.00    -0.249 OA
BRANCH   8  10
ATOM     10  O   UNL     1      10.304  -1.587  21.719  0.00  0.00    -0.479 OA
ATOM     11  H   UNL     1      11.041  -0.965  21.491  0.00  0.00    +0.295 HD
ENDBRANCH   8  10
ENDBRANCH   1   8
BRANCH   1  12
ATOM     12  C   UNL     1       9.787   0.991  24.108  0.00  0.00    +0.040 C 
BRANCH  12  13
ATOM     13  C   UNL     1       8.893   2.144  24.593  0.00  0.00    +0.017 C 
BRANCH  13  14
ATOM     14  C   UNL     1       9.379   3.515  24.111  0.00  0.00    +0.078 C 
BRANCH  14  15
ATOM     15  N   UNL     1       8.615   3.979  22.965  0.00  0.00    -0.330 NA
ATOM     16  H   UNL     1       8.683   4.994  22.883  0.00  0.00    +0.118 HD
ATOM     17  H   UNL     1       9.009   3.595  22.106  0.00  0.00    +0.118 HD
ENDBRANCH  14  15
ENDBRANCH  13  14
ENDBRANCH  12  13
ENDBRANCH   1  12
TORSDOF 8
ENDMDL
MODEL 9
REMARK VINA RESULT:      -4.3      8.484      9.093
REMARK  Name = 
REMARK  8 active torsions:
REMARK  status: ('A' for Active; 'I' for Inactive)
REMARK    1  A    between atoms: N_1  and  C_2
REMARK    2  A    between atoms: C_2  and  C_3
REMARK    3  A    between atoms: C_3  and  C_4
REMARK    4  A    between atoms: C_4  and  C_5
REMARK    5  A    between atoms: C_5  and  N_6
REMARK    6  A    between atoms: C_5  and  C_7
REMARK    7  A    between atoms: C_5  and  C_10
REMARK    8  A    between atoms: C_10  and  O_11
REMARK                            x       y       z     vdW  Elec       q    Type
REMARK                         _______ _______ _______ _____ _____    ______ ____
ROOT
ATOM      1  C   UNL     1       6.669  -4.658  22.926  0.00  0.00    +0.175 C 
ENDROOT
BRANCH   1   2
ATOM      2  C   UNL     1       6.918  -6.000  22.205  0.00  0.00    +0.372 C 
ATOM      3  F   UNL     1       8.168  -6.467  22.441  0.00  0.00    -0.207 F 
ATOM      4  F   UNL     1       6.833  -5.811  20.857  0.00  0.00    -0.207 F 
ENDBRANCH   1   2
BRANCH   1   5
ATOM      5  N   UNL     1       7.672  -3.583  22.526  0.00  0.00    -0.311 NA
ATOM      6  H   UNL     1       7.911  -3.727  21.538  0.00  0.00    +0.119 HD
ATOM      7  H   UNL     1       7.163  -2.690  22.531  0.00  0.00    +0.119 HD
ENDBRANCH   1   5
BRANCH   1   8
ATOM      8  C   UNL     1       5.287  -4.198  22.434  0.00  0.00    +0.331 C 
ATOM      9  O   UNL     1       4.217  -4.721  22.697  0.00  0.00    -0.249 OA
BRANCH   8  10
ATOM     10  O   UNL     1       5.386  -3.106  21.625  0.00  0.00    -0.479 OA
ATOM     11  H   UNL     1       4.637  -3.161  20.978  0.00  0.00    +0.295 HD
ENDBRANCH   8  10
ENDBRANCH   1   8
BRANCH   1  12
ATOM     12  C   UNL     1       6.643  -4.792  24.465  0.00  0.00    +0.040 C 
BRANCH  12  13
ATOM     13  C   UNL     1       7.884  -4.248  25.192  0.00  0.00    +0.017 C 
BRANCH  13  14
ATOM     14  C   UNL     1       8.676  -5.344  25.913  0.00  0.00    +0.078 C 
BRANCH  14  15
ATOM     15  N   UNL     1       9.867  -5.718  25.169  0.00  0.00    -0.330 NA
ATOM     16  H   UNL     1      10.497  -4.920  25.086  0.00  0.00    +0.118 HD
ATOM     17  H   UNL     1      10.382  -6.438  25.676  0.00  0.00    +0.118 HD
ENDBRANCH  14  15
ENDBRANCH  13  14
ENDBRANCH  12  13
ENDBRANCH   1  12
TORSDOF 8
ENDMDL
