MODEL 1
REMARK VINA RESULT:      -4.8      0.000      0.000
REMARK  Name = 
REMARK  40 active torsions:
REMARK  status: ('A' for Active; 'I' for Inactive)
REMARK    1  A    between atoms: C_1  and  C_2
REMARK    2  A    between atoms: C_2  and  C_3
REMARK    3  A    between atoms: C_3  and  C_4
REMARK    4  A    between atoms: C_5  and  C_6
REMARK    5  A    between atoms: C_6  and  C_7
REMARK    6  A    between atoms: C_8  and  C_9
REMARK    7  A    between atoms: C_9  and  C_10
REMARK    8  A    between atoms: C_10  and  C_11
REMARK    9  A    between atoms: C_11  and  C_12
REMARK   10  A    between atoms: C_12  and  C_13
REMARK   11  A    between atoms: C_13  and  C_14
REMARK   12  A    between atoms: C_14  and  C_15
REMARK   13  A    between atoms: C_15  and  C_16
REMARK   14  A    between atoms: C_16  and  O_18
REMARK   15  A    between atoms: O_18  and  C_19
REMARK   16  A    between atoms: C_19  and  C_21
REMARK   17  A    between atoms: C_19  and  C_42
REMARK   18  A    between atoms: C_21  and  O_22
REMARK   19  A    between atoms: O_22  and  C_23
REMARK   20  A    between atoms: C_23  and  C_25
REMARK   21  A    between atoms: C_25  and  C_26
REMARK   22  A    between atoms: C_26  and  C_27
REMARK   23  A    between atoms: C_27  and  C_28
REMARK   24  A    between atoms: C_28  and  C_29
REMARK   25  A    between atoms: C_29  and  C_30
REMARK   26  A    between atoms: C_30  and  C_31
REMARK   27  A    between atoms: C_32  and  C_33
REMARK   28  A    between atoms: C_33  and  C_34
REMARK   29  A    between atoms: C_34  and  C_35
REMARK   30  A    between atoms: C_36  and  C_37
REMARK   31  A    between atoms: C_37  and  C_38
REMARK   32  A    between atoms: C_38  and  C_39
REMARK   33  A    between atoms: C_40  and  C_41
REMARK   34  A    between atoms: C_42  and  O_43
REMARK   35  A    between atoms: O_43  and  P_44
REMARK   36  A    between atoms: P_44  and  O_45
REMARK   37  A    between atoms: P_44  and  O_47
REMARK   38  A    between atoms: O_47  and  C_48
REMARK   39  A    between atoms: C_48  and  C_49
REMARK   40  A    between atoms: C_49  and  N_50
REMARK                            x       y       z     vdW  Elec       q    Type
REMARK                         _______ _______ _______ _____ _____    ______ ____
ROOT
ATOM      1  C   UNL     1       5.072  -4.829  23.995  0.00  0.00    +0.240 C 
ENDROOT
BRANCH   1   2
ATOM      2  C   UNL     1       5.653  -5.423  25.290  0.00  0.00    +0.279 C 
BRANCH   2   3
ATOM      3  O   UNL     1       7.086  -5.292  25.369  0.00  0.00    -0.461 OA
BRANCH   3   4
ATOM      4  C   UNL     1       7.601  -5.055  26.603  0.00  0.00    +0.307 C 
ATOM      5  O   UNL     1       7.407  -5.758  27.589  0.00  0.00    -0.251 OA
BRANCH   4   6
ATOM      6  C   UNL     1       8.542  -3.876  26.568  0.00  0.00    +0.120 C 
BRANCH   6   7
ATOM      7  C   UNL     1       7.770  -2.561  26.473  0.00  0.00    +0.011 C 
BRANCH   7   8
ATOM      8  C   UNL     1       8.679  -1.346  26.661  0.00  0.00    +0.001 C 
BRANCH   8   9
ATOM      9  C   UNL     1       8.124  -0.109  25.954  0.00  0.00    +0.000 C 
BRANCH   9  10
ATOM     10  C   UNL     1       6.797  -0.386  25.249  0.00  0.00    +0.004 C 
BRANCH  10  11
ATOM     11  C   UNL     1       6.762   0.198  23.837  0.00  0.00    +0.027 C 
BRANCH  11  12
ATOM     12  C   UNL     1       6.062   1.515  23.769  0.00  0.00    -0.031 C 
ATOM     13  C   UNL     1       6.146   2.379  22.746  0.00  0.00    -0.031 C 
BRANCH  13  14
ATOM     14  C   UNL     1       5.470   3.723  22.693  0.00  0.00    +0.031 C 
BRANCH  14  15
ATOM     15  C   UNL     1       4.365   3.906  23.738  0.00  0.00    +0.031 C 
BRANCH  15  16
ATOM     16  C   UNL     1       3.046   3.381  23.268  0.00  0.00    -0.031 C 
ATOM     17  C   UNL     1       2.733   3.297  21.967  0.00  0.00    -0.031 C 
BRANCH  17  18
ATOM     18  C   UNL     1       1.433   2.754  21.461  0.00  0.00    +0.031 C 
BRANCH  18  19
ATOM     19  C   UNL     1       1.439   2.632  19.936  0.00  0.00    +0.031 C 
BRANCH  19  20
ATOM     20  C   UNL     1       1.745   3.960  19.303  0.00  0.00    -0.031 C 
ATOM     21  C   UNL     1       1.469   4.252  18.024  0.00  0.00    -0.034 C 
ATOM     22  C   UNL     1       1.749   5.577  17.397  0.00  0.00    +0.035 C 
ENDBRANCH  19  20
ENDBRANCH  18  19
ENDBRANCH  17  18
ENDBRANCH  15  16
ENDBRANCH  14  15
ENDBRANCH  13  14
ENDBRANCH  11  12
ENDBRANCH  10  11
ENDBRANCH   9  10
ENDBRANCH   8   9
ENDBRANCH   7   8
ENDBRANCH   6   7
ENDBRANCH   4   6
ENDBRANCH   3   4
ENDBRANCH   2   3
ENDBRANCH   1   2
BRANCH   1  23
ATOM     23  C   UNL     1       3.570  -4.519  24.129  0.00  0.00    +0.220 C 
BRANCH  23  24
ATOM     24  O   UNL     1       2.840  -5.135  23.063  0.00  0.00    -0.283 OA
BRANCH  24  25
ATOM     25  P   UNL     1       1.448  -5.917  23.469  0.00  0.00    +0.475 P 
ATOM     26  O   UNL     1       1.166  -5.614  24.941  0.00  0.00    -0.227 OA
BRANCH  25  27
ATOM     27  O   UNL     1       0.558  -4.486  23.079  0.00  0.00    -0.302 OA
ATOM     28  H   UNL     1      -0.331  -4.850  22.882  0.00  0.00    +0.222 HD
ENDBRANCH  25  27
BRANCH  25  29
ATOM     29  O   UNL     1       2.338  -7.348  23.860  0.00  0.00    -0.285 OA
BRANCH  29  30
ATOM     30  C   UNL     1       1.625  -8.511  23.448  0.00  0.00    +0.187 C 
BRANCH  30  31
ATOM     31  C   UNL     1       0.743  -8.195  22.244  0.00  0.00    +0.106 C 
BRANCH  31  32
ATOM     32  N   UNL     1       1.332  -8.712  21.010  0.00  0.00    -0.328 NA
ATOM     33  H   UNL     1       0.740  -8.450  20.222  0.00  0.00    +0.118 HD
ATOM     34  H   UNL     1       2.229  -8.254  20.843  0.00  0.00    +0.118 HD
ENDBRANCH  31  32
ENDBRANCH  30  31
ENDBRANCH  29  30
ENDBRANCH  25  29
ENDBRANCH  24  25
ENDBRANCH  23  24
ENDBRANCH   1  23
BRANCH   1  35
ATOM     35  O   UNL     1       5.760  -3.605  23.642  0.00  0.00    -0.456 OA
BRANCH  35  36
ATOM     36  C   UNL     1       6.179  -3.504  22.351  0.00  0.00    +0.308 C 
ATOM     37  O   UNL     1       5.599  -3.979  21.382  0.00  0.00    -0.251 OA
BRANCH  36  38
ATOM     38  C   UNL     1       7.451  -2.699  22.249  0.00  0.00    +0.120 C 
BRANCH  38  39
ATOM     39  C   UNL     1       8.602  -3.284  23.064  0.00  0.00    +0.011 C 
BRANCH  39  40
ATOM     40  C   UNL     1       9.772  -2.319  23.280  0.00  0.00    +0.001 C 
BRANCH  40  41
ATOM     41  C   UNL     1       9.807  -1.132  22.310  0.00  0.00    +0.000 C 
BRANCH  41  42
ATOM     42  C   UNL     1      10.395   0.157  22.898  0.00  0.00    +0.000 C 
BRANCH  42  43
ATOM     43  C   UNL     1       9.824   1.450  22.301  0.00  0.00    +0.004 C 
BRANCH  43  44
ATOM     44  C   UNL     1      10.353   2.698  23.007  0.00  0.00    +0.027 C 
BRANCH  44  46
ATOM     45  C   UNL     1       9.067   4.342  24.379  0.00  0.00    -0.027 C 
ATOM     46  C   UNL     1       9.493   3.085  24.172  0.00  0.00    -0.031 C 
BRANCH  45  47
ATOM     47  C   UNL     1       8.187   4.758  25.519  0.00  0.00    +0.053 C 
BRANCH  47  49
ATOM     48  C   UNL     1       6.377   3.638  26.855  0.00  0.00    -0.031 C 
ATOM     49  C   UNL     1       7.501   3.568  26.125  0.00  0.00    -0.027 C 
BRANCH  48  50
ATOM     50  C   UNL     1       5.710   2.445  27.476  0.00  0.00    +0.026 C 
BRANCH  50  52
ATOM     51  C   UNL     1       3.808   0.937  26.814  0.00  0.00    +0.004 C 
ATOM     52  C   UNL     1       4.231   2.370  27.096  0.00  0.00    +0.001 C 
ENDBRANCH  50  52
ENDBRANCH  48  50
ENDBRANCH  47  49
ENDBRANCH  45  47
ENDBRANCH  44  46
ENDBRANCH  43  44
ENDBRANCH  42  43
ENDBRANCH  41  42
ENDBRANCH  40  41
ENDBRANCH  39  40
ENDBRANCH  38  39
ENDBRANCH  36  38
ENDBRANCH  35  36
ENDBRANCH   1  35
TORSDOF 38
ENDMDL
MODEL 2
REMARK VINA RESULT:      -4.7      2.937      6.025
REMARK  Name = 
REMARK  40 active torsions:
REMARK  status: ('A' for Active; 'I' for Inactive)
REMARK    1  A    between atoms: C_1  and  C_2
REMARK    2  A    between atoms: C_2  and  C_3
REMARK    3  A    between atoms: C_3  and  C_4
REMARK    4  A    between atoms: C_5  and  C_6
REMARK    5  A    between atoms: C_6  and  C_7
REMARK    6  A    between atoms: C_8  and  C_9
REMARK    7  A    between atoms: C_9  and  C_10
REMARK    8  A    between atoms: C_10  and  C_11
REMARK    9  A    between atoms: C_11  and  C_12
REMARK   10  A    between atoms: C_12  and  C_13
REMARK   11  A    between atoms: C_13  and  C_14
REMARK   12  A    between atoms: C_14  and  C_15
REMARK   13  A    between atoms: C_15  and  C_16
REMARK   14  A    between atoms: C_16  and  O_18
REMARK   15  A    between atoms: O_18  and  C_19
REMARK   16  A    between atoms: C_19  and  C_21
REMARK   17  A    between atoms: C_19  and  C_42
REMARK   18  A    between atoms: C_21  and  O_22
REMARK   19  A    between atoms: O_22  and  C_23
REMARK   20  A    between atoms: C_23  and  C_25
REMARK   21  A    between atoms: C_25  and  C_26
REMARK   22  A    between atoms: C_26  and  C_27
REMARK   23  A    between atoms: C_27  and  C_28
REMARK   24  A    between atoms: C_28  and  C_29
REMARK   25  A    between atoms: C_29  and  C_30
REMARK   26  A    between atoms: C_30  and  C_31
REMARK   27  A    between atoms: C_32  and  C_33
REMARK   28  A    between atoms: C_33  and  C_34
REMARK   29  A    between atoms: C_34  and  C_35
REMARK   30  A    between atoms: C_36  and  C_37
REMARK   31  A    between atoms: C_37  and  C_38
REMARK   32  A    between atoms: C_38  and  C_39
REMARK   33  A    between atoms: C_40  and  C_41
REMARK   34  A    between atoms: C_42  and  O_43
REMARK   35  A    between atoms: O_43  and  P_44
REMARK   36  A    between atoms: P_44  and  O_45
REMARK   37  A    between atoms: P_44  and  O_47
REMARK   38  A    between atoms: O_47  and  C_48
REMARK   39  A    between atoms: C_48  and  C_49
REMARK   40  A    between atoms: C_49  and  N_50
REMARK                            x       y       z     vdW  Elec       q    Type
REMARK                         _______ _______ _______ _____ _____    ______ ____
ROOT
ATOM      1  C   UNL     1       7.666  -2.311  23.136  0.00  0.00    +0.240 C 
ENDROOT
BRANCH   1   2
ATOM      2  C   UNL     1       6.409  -1.453  23.358  0.00  0.00    +0.279 C 
BRANCH   2   3
ATOM      3  O   UNL     1       6.274  -1.002  24.720  0.00  0.00    -0.461 OA
BRANCH   3   4
ATOM      4  C   UNL     1       5.472  -1.746  25.524  0.00  0.00    +0.307 C 
ATOM      5  O   UNL     1       4.255  -1.832  25.412  0.00  0.00    -0.251 OA
BRANCH   4   6
ATOM      6  C   UNL     1       6.297  -2.548  26.500  0.00  0.00    +0.120 C 
BRANCH   6   7
ATOM      7  C   UNL     1       6.235  -4.040  26.177  0.00  0.00    +0.011 C 
BRANCH   7   8
ATOM      8  C   UNL     1       7.146  -4.864  27.087  0.00  0.00    +0.001 C 
BRANCH   8   9
ATOM      9  C   UNL     1       6.343  -5.762  28.029  0.00  0.00    +0.000 C 
BRANCH   9  10
ATOM     10  C   UNL     1       5.518  -4.961  29.036  0.00  0.00    +0.004 C 
BRANCH  10  11
ATOM     11  C   UNL     1       4.020  -5.225  28.894  0.00  0.00    +0.027 C 
BRANCH  11  12
ATOM     12  C   UNL     1       3.185  -4.026  29.199  0.00  0.00    -0.031 C 
ATOM     13  C   UNL     1       3.542  -2.756  28.951  0.00  0.00    -0.031 C 
BRANCH  13  14
ATOM     14  C   UNL     1       2.716  -1.545  29.292  0.00  0.00    +0.031 C 
BRANCH  14  15
ATOM     15  C   UNL     1       3.170  -0.264  28.585  0.00  0.00    +0.031 C 
BRANCH  15  16
ATOM     16  C   UNL     1       4.637  -0.019  28.737  0.00  0.00    -0.031 C 
ATOM     17  C   UNL     1       5.325   0.756  27.886  0.00  0.00    -0.031 C 
BRANCH  17  18
ATOM     18  C   UNL     1       6.788   1.041  28.024  0.00  0.00    +0.031 C 
BRANCH  18  19
ATOM     19  C   UNL     1       7.409   1.411  26.676  0.00  0.00    +0.031 C 
BRANCH  19  20
ATOM     20  C   UNL     1       7.118   2.845  26.336  0.00  0.00    -0.031 C 
ATOM     21  C   UNL     1       7.128   3.836  27.238  0.00  0.00    -0.034 C 
ATOM     22  C   UNL     1       6.862   5.266  26.901  0.00  0.00    +0.035 C 
ENDBRANCH  19  20
ENDBRANCH  18  19
ENDBRANCH  17  18
ENDBRANCH  15  16
ENDBRANCH  14  15
ENDBRANCH  13  14
ENDBRANCH  11  12
ENDBRANCH  10  11
ENDBRANCH   9  10
ENDBRANCH   8   9
ENDBRANCH   7   8
ENDBRANCH   6   7
ENDBRANCH   4   6
ENDBRANCH   3   4
ENDBRANCH   2   3
ENDBRANCH   1   2
BRANCH   1  23
ATOM     23  C   UNL     1       7.354  -3.592  22.341  0.00  0.00    +0.220 C 
BRANCH  23  24
ATOM     24  O   UNL     1       6.213  -4.253  22.895  0.00  0.00    -0.283 OA
BRANCH  24  25
ATOM     25  P   UNL     1       5.869  -5.755  22.314  0.00  0.00    +0.475 P 
ATOM     26  O   UNL     1       5.698  -5.632  20.800  0.00  0.00    -0.227 OA
BRANCH  25  27
ATOM     27  O   UNL     1       7.556  -6.007  22.030  0.00  0.00    -0.302 OA
ATOM     28  H   UNL     1       7.803  -6.581  22.785  0.00  0.00    +0.222 HD
ENDBRANCH  25  27
BRANCH  25  29
ATOM     29  O   UNL     1       4.181  -5.504  22.598  0.00  0.00    -0.285 OA
BRANCH  29  30
ATOM     30  C   UNL     1       3.653  -6.532  23.432  0.00  0.00    +0.187 C 
BRANCH  30  31
ATOM     31  C   UNL     1       2.182  -6.773  23.113  0.00  0.00    +0.106 C 
BRANCH  31  32
ATOM     32  N   UNL     1       1.532  -5.542  22.663  0.00  0.00    -0.328 NA
ATOM     33  H   UNL     1       1.206  -5.669  21.704  0.00  0.00    +0.118 HD
ATOM     34  H   UNL     1       0.692  -5.379  23.219  0.00  0.00    +0.118 HD
ENDBRANCH  31  32
ENDBRANCH  30  31
ENDBRANCH  29  30
ENDBRANCH  25  29
ENDBRANCH  24  25
ENDBRANCH  23  24
ENDBRANCH   1  23
BRANCH   1  35
ATOM     35  O   UNL     1       8.674  -1.562  22.416  0.00  0.00    -0.456 OA
BRANCH  35  36
ATOM     36  C   UNL     1       9.898  -1.481  23.008  0.00  0.00    +0.308 C 
ATOM     37  O   UNL     1      10.940  -1.921  22.536  0.00  0.00    -0.251 OA
BRANCH  36  38
ATOM     38  C   UNL     1       9.822  -0.747  24.324  0.00  0.00    +0.120 C 
BRANCH  38  39
ATOM     39  C   UNL     1      10.787   0.433  24.413  0.00  0.00    +0.011 C 
BRANCH  39  40
ATOM     40  C   UNL     1      10.152   1.788  24.084  0.00  0.00    +0.001 C 
BRANCH  40  41
ATOM     41  C   UNL     1      10.201   2.172  22.601  0.00  0.00    +0.000 C 
BRANCH  41  42
ATOM     42  C   UNL     1       8.906   1.895  21.826  0.00  0.00    +0.000 C 
BRANCH  42  43
ATOM     43  C   UNL     1       7.625   2.018  22.659  0.00  0.00    +0.004 C 
BRANCH  43  44
ATOM     44  C   UNL     1       6.664   3.065  22.093  0.00  0.00    +0.027 C 
BRANCH  44  46
ATOM     45  C   UNL     1       7.645   4.970  23.377  0.00  0.00    -0.027 C 
ATOM     46  C   UNL     1       7.219   4.451  22.213  0.00  0.00    -0.031 C 
BRANCH  45  47
ATOM     47  C   UNL     1       8.227   6.343  23.526  0.00  0.00    +0.053 C 
BRANCH  47  49
ATOM     48  C   UNL     1      10.568   5.993  24.368  0.00  0.00    -0.031 C 
ATOM     49  C   UNL     1       9.720   6.309  23.377  0.00  0.00    -0.027 C 
BRANCH  48  50
ATOM     50  C   UNL     1      12.062   5.984  24.216  0.00  0.00    +0.026 C 
BRANCH  50  52
ATOM     51  C   UNL     1      13.253   5.601  22.033  0.00  0.00    +0.004 C 
ATOM     52  C   UNL     1      12.514   4.946  23.188  0.00  0.00    +0.001 C 
ENDBRANCH  50  52
ENDBRANCH  48  50
ENDBRANCH  47  49
ENDBRANCH  45  47
ENDBRANCH  44  46
ENDBRANCH  43  44
ENDBRANCH  42  43
ENDBRANCH  41  42
ENDBRANCH  40  41
ENDBRANCH  39  40
ENDBRANCH  38  39
ENDBRANCH  36  38
ENDBRANCH  35  36
ENDBRANCH   1  35
TORSDOF 38
ENDMDL
MODEL 3
REMARK VINA RESULT:      -4.6      4.720      8.998
REMARK  Name = 
REMARK  40 active torsions:
REMARK  status: ('A' for Active; 'I' for Inactive)
REMARK    1  A    between atoms: C_1  and  C_2
REMARK    2  A    between atoms: C_2  and  C_3
REMARK    3  A    between atoms: C_3  and  C_4
REMARK    4  A    between atoms: C_5  and  C_6
REMARK    5  A    between atoms: C_6  and  C_7
REMARK    6  A    between atoms: C_8  and  C_9
REMARK    7  A    between atoms: C_9  and  C_10
REMARK    8  A    between atoms: C_10  and  C_11
REMARK    9  A    between atoms: C_11  and  C_12
REMARK   10  A    between atoms: C_12  and  C_13
REMARK   11  A    between atoms: C_13  and  C_14
REMARK   12  A    between atoms: C_14  and  C_15
REMARK   13  A    between atoms: C_15  and  C_16
REMARK   14  A    between atoms: C_16  and  O_18
REMARK   15  A    between atoms: O_18  and  C_19
REMARK   16  A    between atoms: C_19  and  C_21
REMARK   17  A    between atoms: C_19  and  C_42
REMARK   18  A    between atoms: C_21  and  O_22
REMARK   19  A    between atoms: O_22  and  C_23
REMARK   20  A    between atoms: C_23  and  C_25
REMARK   21  A    between atoms: C_25  and  C_26
REMARK   22  A    between atoms: C_26  and  C_27
REMARK   23  A    between atoms: C_27  and  C_28
REMARK   24  A    between atoms: C_28  and  C_29
REMARK   25  A    between atoms: C_29  and  C_30
REMARK   26  A    between atoms: C_30  and  C_31
REMARK   27  A    between atoms: C_32  and  C_33
REMARK   28  A    between atoms: C_33  and  C_34
REMARK   29  A    between atoms: C_34  and  C_35
REMARK   30  A    between atoms: C_36  and  C_37
REMARK   31  A    between atoms: C_37  and  C_38
REMARK   32  A    between atoms: C_38  and  C_39
REMARK   33  A    between atoms: C_40  and  C_41
REMARK   34  A    between atoms: C_42  and  O_43
REMARK   35  A    between atoms: O_43  and  P_44
REMARK   36  A    between atoms: P_44  and  O_45
REMARK   37  A    between atoms: P_44  and  O_47
REMARK   38  A    between atoms: O_47  and  C_48
REMARK   39  A    between atoms: C_48  and  C_49
REMARK   40  A    between atoms: C_49  and  N_50
REMARK                            x       y       z     vdW  Elec       q    Type
REMARK                         _______ _______ _______ _____ _____    ______ ____
ROOT
ATOM      1  C   UNL     1       9.752  -1.410  24.488  0.00  0.00    +0.240 C 
ENDROOT
BRANCH   1   2
ATOM      2  C   UNL     1       9.570  -2.611  23.544  0.00  0.00    +0.279 C 
BRANCH   2   3
ATOM      3  O   UNL     1       8.728  -3.638  24.104  0.00  0.00    -0.461 OA
BRANCH   3   4
ATOM      4  C   UNL     1       9.325  -4.508  24.957  0.00  0.00    +0.307 C 
ATOM      5  O   UNL     1      10.488  -4.887  24.871  0.00  0.00    -0.251 OA
BRANCH   4   6
ATOM      6  C   UNL     1       8.399  -4.854  26.097  0.00  0.00    +0.120 C 
BRANCH   6   7
ATOM      7  C   UNL     1       7.020  -5.261  25.579  0.00  0.00    +0.011 C 
BRANCH   7   8
ATOM      8  C   UNL     1       6.172  -5.925  26.664  0.00  0.00    +0.001 C 
BRANCH   8   9
ATOM      9  C   UNL     1       6.586  -5.469  28.064  0.00  0.00    +0.000 C 
BRANCH   9  10
ATOM     10  C   UNL     1       6.023  -6.372  29.162  0.00  0.00    +0.004 C 
BRANCH  10  11
ATOM     11  C   UNL     1       5.215  -5.588  30.195  0.00  0.00    +0.027 C 
BRANCH  11  12
ATOM     12  C   UNL     1       3.741  -5.690  29.981  0.00  0.00    -0.031 C 
ATOM     13  C   UNL     1       3.155  -6.210  28.891  0.00  0.00    -0.031 C 
BRANCH  13  14
ATOM     14  C   UNL     1       1.670  -6.280  28.659  0.00  0.00    +0.031 C 
BRANCH  14  15
ATOM     15  C   UNL     1       1.281  -6.698  27.237  0.00  0.00    +0.031 C 
BRANCH  15  16
ATOM     16  C   UNL     1       2.456  -6.725  26.312  0.00  0.00    -0.031 C 
ATOM     17  C   UNL     1       2.397  -6.227  25.068  0.00  0.00    -0.031 C 
BRANCH  17  18
ATOM     18  C   UNL     1       3.560  -6.216  24.125  0.00  0.00    +0.031 C 
BRANCH  18  19
ATOM     19  C   UNL     1       3.686  -4.865  23.418  0.00  0.00    +0.031 C 
BRANCH  19  20
ATOM     20  C   UNL     1       4.990  -4.777  22.678  0.00  0.00    -0.031 C 
ATOM     21  C   UNL     1       5.736  -5.845  22.361  0.00  0.00    -0.034 C 
ATOM     22  C   UNL     1       7.020  -5.765  21.605  0.00  0.00    +0.035 C 
ENDBRANCH  19  20
ENDBRANCH  18  19
ENDBRANCH  17  18
ENDBRANCH  15  16
ENDBRANCH  14  15
ENDBRANCH  13  14
ENDBRANCH  11  12
ENDBRANCH  10  11
ENDBRANCH   9  10
ENDBRANCH   8   9
ENDBRANCH   7   8
ENDBRANCH   6   7
ENDBRANCH   4   6
ENDBRANCH   3   4
ENDBRANCH   2   3
ENDBRANCH   1   2
BRANCH   1  23
ATOM     23  C   UNL     1      10.483  -0.243  23.800  0.00  0.00    +0.220 C 
BRANCH  23  24
ATOM     24  O   UNL     1      10.112   0.999  24.405  0.00  0.00    -0.283 OA
BRANCH  24  25
ATOM     25  P   UNL     1       9.728   2.236  23.387  0.00  0.00    +0.475 P 
ATOM     26  O   UNL     1      10.101   1.796  21.971  0.00  0.00    -0.227 OA
BRANCH  25  27
ATOM     27  O   UNL     1       8.179   1.512  23.127  0.00  0.00    -0.302 OA
ATOM     28  H   UNL     1       7.614   2.020  23.747  0.00  0.00    +0.222 HD
ENDBRANCH  25  27
BRANCH  25  29
ATOM     29  O   UNL     1      11.277   2.961  23.647  0.00  0.00    -0.285 OA
BRANCH  29  30
ATOM     30  C   UNL     1      11.211   4.372  23.454  0.00  0.00    +0.187 C 
BRANCH  30  31
ATOM     31  C   UNL     1      12.611   4.952  23.289  0.00  0.00    +0.106 C 
BRANCH  31  32
ATOM     32  N   UNL     1      12.842   6.047  24.232  0.00  0.00    -0.328 NA
ATOM     33  H   UNL     1      12.327   5.860  25.092  0.00  0.00    +0.118 HD
ATOM     34  H   UNL     1      13.827   6.063  24.499  0.00  0.00    +0.118 HD
ENDBRANCH  31  32
ENDBRANCH  30  31
ENDBRANCH  29  30
ENDBRANCH  25  29
ENDBRANCH  24  25
ENDBRANCH  23  24
ENDBRANCH   1  23
BRANCH   1  35
ATOM     35  O   UNL     1       8.468  -0.931  24.957  0.00  0.00    -0.456 OA
BRANCH  35  36
ATOM     36  C   UNL     1       8.227  -1.068  26.290  0.00  0.00    +0.308 C 
ATOM     37  O   UNL     1       9.017  -0.779  27.182  0.00  0.00    -0.251 OA
BRANCH  36  38
ATOM     38  C   UNL     1       6.839  -1.598  26.544  0.00  0.00    +0.120 C 
BRANCH  38  39
ATOM     39  C   UNL     1       6.034  -1.822  25.266  0.00  0.00    +0.011 C 
BRANCH  39  40
ATOM     40  C   UNL     1       4.542  -2.078  25.499  0.00  0.00    +0.001 C 
BRANCH  40  41
ATOM     41  C   UNL     1       4.233  -3.030  26.659  0.00  0.00    +0.000 C 
BRANCH  41  42
ATOM     42  C   UNL     1       2.767  -3.035  27.110  0.00  0.00    +0.000 C 
BRANCH  42  43
ATOM     43  C   UNL     1       2.525  -2.436  28.502  0.00  0.00    +0.004 C 
BRANCH  43  44
ATOM     44  C   UNL     1       3.831  -2.084  29.216  0.00  0.00    +0.027 C 
BRANCH  44  46
ATOM     45  C   UNL     1       4.272   0.215  28.344  0.00  0.00    -0.027 C 
ATOM     46  C   UNL     1       3.998  -0.603  29.374  0.00  0.00    -0.031 C 
BRANCH  45  47
ATOM     47  C   UNL     1       4.421   1.702  28.465  0.00  0.00    +0.053 C 
BRANCH  47  49
ATOM     48  C   UNL     1       4.772   1.636  25.977  0.00  0.00    -0.031 C 
ATOM     49  C   UNL     1       4.615   2.330  27.115  0.00  0.00    -0.027 C 
BRANCH  48  50
ATOM     50  C   UNL     1       4.988   2.273  24.635  0.00  0.00    +0.026 C 
BRANCH  50  52
ATOM     51  C   UNL     1       5.824   4.320  23.435  0.00  0.00    +0.004 C 
ATOM     52  C   UNL     1       5.802   3.562  24.752  0.00  0.00    +0.001 C 
ENDBRANCH  50  52
ENDBRANCH  48  50
ENDBRANCH  47  49
ENDBRANCH  45  47
ENDBRANCH  44  46
ENDBRANCH  43  44
ENDBRANCH  42  43
ENDBRANCH  41  42
ENDBRANCH  40  41
ENDBRANCH  39  40
ENDBRANCH  38  39
ENDBRANCH  36  38
ENDBRANCH  35  36
ENDBRANCH   1  35
TORSDOF 38
ENDMDL
MODEL 4
REMARK VINA RESULT:      -4.6      3.721      8.171
REMARK  Name = 
REMARK  40 active torsions:
REMARK  status: ('A' for Active; 'I' for Inactive)
REMARK    1  A    between atoms: C_1  and  C_2
REMARK    2  A    between atoms: C_2  and  C_3
REMARK    3  A    between atoms: C_3  and  C_4
REMARK    4  A    between atoms: C_5  and  C_6
REMARK    5  A    between atoms: C_6  and  C_7
REMARK    6  A    between atoms: C_8  and  C_9
REMARK    7  A    between atoms: C_9  and  C_10
REMARK    8  A    between atoms: C_10  and  C_11
REMARK    9  A    between atoms: C_11  and  C_12
REMARK   10  A    between atoms: C_12  and  C_13
REMARK   11  A    between atoms: C_13  and  C_14
REMARK   12  A    between atoms: C_14  and  C_15
REMARK   13  A    between atoms: C_15  and  C_16
REMARK   14  A    between atoms: C_16  and  O_18
REMARK   15  A    between atoms: O_18  and  C_19
REMARK   16  A    between atoms: C_19  and  C_21
REMARK   17  A    between atoms: C_19  and  C_42
REMARK   18  A    between atoms: C_21  and  O_22
REMARK   19  A    between atoms: O_22  and  C_23
REMARK   20  A    between atoms: C_23  and  C_25
REMARK   21  A    between atoms: C_25  and  C_26
REMARK   22  A    between atoms: C_26  and  C_27
REMARK   23  A    between atoms: C_27  and  C_28
REMARK   24  A    between atoms: C_28  and  C_29
REMARK   25  A    between atoms: C_29  and  C_30
REMARK   26  A    between atoms: C_30  and  C_31
REMARK   27  A    between atoms: C_32  and  C_33
REMARK   28  A    between atoms: C_33  and  C_34
REMARK   29  A    between atoms: C_34  and  C_35
REMARK   30  A    between atoms: C_36  and  C_37
REMARK   31  A    between atoms: C_37  and  C_38
REMARK   32  A    between atoms: C_38  and  C_39
REMARK   33  A    between atoms: C_40  and  C_41
REMARK   34  A    between atoms: C_42  and  O_43
REMARK   35  A    between atoms: O_43  and  P_44
REMARK   36  A    between atoms: P_44  and  O_45
REMARK   37  A    between atoms: P_44  and  O_47
REMARK   38  A    between atoms: O_47  and  C_48
REMARK   39  A    between atoms: C_48  and  C_49
REMARK   40  A    between atoms: C_49  and  N_50
REMARK                            x       y       z     vdW  Elec       q    Type
REMARK                         _______ _______ _______ _____ _____    ______ ____
ROOT
ATOM      1  C   UNL     1       8.316  -0.016  25.421  0.00  0.00    +0.240 C 
ENDROOT
BRANCH   1   2
ATOM      2  C   UNL     1       7.724  -1.175  24.601  0.00  0.00    +0.279 C 
BRANCH   2   3
ATOM      3  O   UNL     1       6.366  -1.486  24.975  0.00  0.00    -0.461 OA
BRANCH   3   4
ATOM      4  C   UNL     1       5.675  -2.282  24.121  0.00  0.00    +0.307 C 
ATOM      5  O   UNL     1       5.787  -2.264  22.900  0.00  0.00    -0.251 OA
BRANCH   4   6
ATOM      6  C   UNL     1       4.836  -3.277  24.884  0.00  0.00    +0.120 C 
BRANCH   6   7
ATOM      7  C   UNL     1       3.964  -4.101  23.938  0.00  0.00    +0.011 C 
BRANCH   7   8
ATOM      8  C   UNL     1       3.894  -5.571  24.354  0.00  0.00    +0.001 C 
BRANCH   8   9
ATOM      9  C   UNL     1       5.009  -6.395  23.711  0.00  0.00    +0.000 C 
BRANCH   9  10
ATOM     10  C   UNL     1       5.484  -5.800  22.384  0.00  0.00    +0.004 C 
BRANCH  10  11
ATOM     11  C   UNL     1       6.992  -5.949  22.193  0.00  0.00    +0.027 C 
BRANCH  11  12
ATOM     12  C   UNL     1       7.782  -5.006  23.039  0.00  0.00    -0.031 C 
ATOM     13  C   UNL     1       8.401  -5.332  24.184  0.00  0.00    -0.031 C 
BRANCH  13  14
ATOM     14  C   UNL     1       9.167  -4.374  25.055  0.00  0.00    +0.031 C 
BRANCH  14  15
ATOM     15  C   UNL     1       8.764  -4.419  26.533  0.00  0.00    +0.031 C 
BRANCH  15  16
ATOM     16  C   UNL     1       7.564  -5.280  26.769  0.00  0.00    -0.031 C 
ATOM     17  C   UNL     1       6.578  -4.919  27.602  0.00  0.00    -0.031 C 
BRANCH  17  18
ATOM     18  C   UNL     1       5.352  -5.745  27.842  0.00  0.00    +0.031 C 
BRANCH  18  19
ATOM     19  C   UNL     1       4.198  -4.885  28.361  0.00  0.00    +0.031 C 
BRANCH  19  20
ATOM     20  C   UNL     1       2.883  -5.414  27.864  0.00  0.00    -0.031 C 
ATOM     21  C   UNL     1       2.665  -6.704  27.573  0.00  0.00    -0.034 C 
ATOM     22  C   UNL     1       1.353  -7.238  27.102  0.00  0.00    +0.035 C 
ENDBRANCH  19  20
ENDBRANCH  18  19
ENDBRANCH  17  18
ENDBRANCH  15  16
ENDBRANCH  14  15
ENDBRANCH  13  14
ENDBRANCH  11  12
ENDBRANCH  10  11
ENDBRANCH   9  10
ENDBRANCH   8   9
ENDBRANCH   7   8
ENDBRANCH   6   7
ENDBRANCH   4   6
ENDBRANCH   3   4
ENDBRANCH   2   3
ENDBRANCH   1   2
BRANCH   1  23
ATOM     23  C   UNL     1       7.690   0.075  26.824  0.00  0.00    +0.220 C 
BRANCH  23  24
ATOM     24  O   UNL     1       7.303   1.422  27.108  0.00  0.00    -0.283 OA
BRANCH  24  25
ATOM     25  P   UNL     1       6.849   1.756  28.655  0.00  0.00    +0.475 P 
ATOM     26  O   UNL     1       5.901   0.643  29.103  0.00  0.00    -0.227 OA
BRANCH  25  27
ATOM     27  O   UNL     1       8.154   0.775  29.225  0.00  0.00    -0.302 OA
ATOM     28  H   UNL     1       7.686   0.130  29.796  0.00  0.00    +0.222 HD
ENDBRANCH  25  27
BRANCH  25  29
ATOM     29  O   UNL     1       5.543   2.737  28.085  0.00  0.00    -0.285 OA
BRANCH  29  30
ATOM     30  C   UNL     1       4.340   1.977  28.007  0.00  0.00    +0.187 C 
BRANCH  30  31
ATOM     31  C   UNL     1       3.881   1.857  26.558  0.00  0.00    +0.106 C 
BRANCH  31  32
ATOM     32  N   UNL     1       4.406   0.641  25.938  0.00  0.00    -0.328 NA
ATOM     33  H   UNL     1       5.221   0.879  25.373  0.00  0.00    +0.118 HD
ATOM     34  H   UNL     1       4.750   0.010  26.664  0.00  0.00    +0.118 HD
ENDBRANCH  31  32
ENDBRANCH  30  31
ENDBRANCH  29  30
ENDBRANCH  25  29
ENDBRANCH  24  25
ENDBRANCH  23  24
ENDBRANCH   1  23
BRANCH   1  35
ATOM     35  O   UNL     1       9.748  -0.177  25.570  0.00  0.00    -0.456 OA
BRANCH  35  36
ATOM     36  C   UNL     1      10.525   0.706  24.883  0.00  0.00    +0.308 C 
ATOM     37  O   UNL     1      11.718   0.558  24.645  0.00  0.00    -0.251 OA
BRANCH  36  38
ATOM     38  C   UNL     1       9.722   1.895  24.417  0.00  0.00    +0.120 C 
BRANCH  38  39
ATOM     39  C   UNL     1      10.242   2.501  23.116  0.00  0.00    +0.011 C 
BRANCH  39  40
ATOM     40  C   UNL     1       9.996   1.635  21.876  0.00  0.00    +0.001 C 
BRANCH  40  41
ATOM     41  C   UNL     1       8.596   1.015  21.800  0.00  0.00    +0.000 C 
BRANCH  41  42
ATOM     42  C   UNL     1       7.452   2.031  21.698  0.00  0.00    +0.000 C 
BRANCH  42  43
ATOM     43  C   UNL     1       6.394   1.913  22.803  0.00  0.00    +0.004 C 
BRANCH  43  44
ATOM     44  C   UNL     1       5.325   3.001  22.700  0.00  0.00    +0.027 C 
BRANCH  44  46
ATOM     45  C   UNL     1       6.468   4.068  24.648  0.00  0.00    -0.027 C 
ATOM     46  C   UNL     1       5.392   3.957  23.852  0.00  0.00    -0.031 C 
BRANCH  45  47
ATOM     47  C   UNL     1       6.576   5.030  25.792  0.00  0.00    +0.053 C 
BRANCH  47  49
ATOM     48  C   UNL     1       8.945   5.459  25.070  0.00  0.00    -0.031 C 
ATOM     49  C   UNL     1       7.816   5.868  25.670  0.00  0.00    -0.027 C 
BRANCH  48  50
ATOM     50  C   UNL     1      10.188   6.296  24.973  0.00  0.00    +0.026 C 
BRANCH  50  52
ATOM     51  C   UNL     1      12.448   5.879  23.949  0.00  0.00    +0.004 C 
ATOM     52  C   UNL     1      10.956   6.009  23.683  0.00  0.00    +0.001 C 
ENDBRANCH  50  52
ENDBRANCH  48  50
ENDBRANCH  47  49
ENDBRANCH  45  47
ENDBRANCH  44  46
ENDBRANCH  43  44
ENDBRANCH  42  43
ENDBRANCH  41  42
ENDBRANCH  40  41
ENDBRANCH  39  40
ENDBRANCH  38  39
ENDBRANCH  36  38
ENDBRANCH  35  36
ENDBRANCH   1  35
TORSDOF 38
ENDMDL
MODEL 5
REMARK VINA RESULT:      -4.6      3.058      5.685
REMARK  Name = 
REMARK  40 active torsions:
REMARK  status: ('A' for Active; 'I' for Inactive)
REMARK    1  A    between atoms: C_1  and  C_2
REMARK    2  A    between atoms: C_2  and  C_3
REMARK    3  A    between atoms: C_3  and  C_4
REMARK    4  A    between atoms: C_5  and  C_6
REMARK    5  A    between atoms: C_6  and  C_7
REMARK    6  A    between atoms: C_8  and  C_9
REMARK    7  A    between atoms: C_9  and  C_10
REMARK    8  A    between atoms: C_10  and  C_11
REMARK    9  A    between atoms: C_11  and  C_12
REMARK   10  A    between atoms: C_12  and  C_13
REMARK   11  A    between atoms: C_13  and  C_14
REMARK   12  A    between atoms: C_14  and  C_15
REMARK   13  A    between atoms: C_15  and  C_16
REMARK   14  A    between atoms: C_16  and  O_18
REMARK   15  A    between atoms: O_18  and  C_19
REMARK   16  A    between atoms: C_19  and  C_21
REMARK   17  A    between atoms: C_19  and  C_42
REMARK   18  A    between atoms: C_21  and  O_22
REMARK   19  A    between atoms: O_22  and  C_23
REMARK   20  A    between atoms: C_23  and  C_25
REMARK   21  A    between atoms: C_25  and  C_26
REMARK   22  A    between atoms: C_26  and  C_27
REMARK   23  A    between atoms: C_27  and  C_28
REMARK   24  A    between atoms: C_28  and  C_29
REMARK   25  A    between atoms: C_29  and  C_30
REMARK   26  A    between atoms: C_30  and  C_31
REMARK   27  A    between atoms: C_32  and  C_33
REMARK   28  A    between atoms: C_33  and  C_34
REMARK   29  A    between atoms: C_34  and  C_35
REMARK   30  A    between atoms: C_36  and  C_37
REMARK   31  A    between atoms: C_37  and  C_38
REMARK   32  A    between atoms: C_38  and  C_39
REMARK   33  A    between atoms: C_40  and  C_41
REMARK   34  A    between atoms: C_42  and  O_43
REMARK   35  A    between atoms: O_43  and  P_44
REMARK   36  A    between atoms: P_44  and  O_45
REMARK   37  A    between atoms: P_44  and  O_47
REMARK   38  A    between atoms: O_47  and  C_48
REMARK   39  A    between atoms: C_48  and  C_49
REMARK   40  A    between atoms: C_49  and  N_50
REMARK                            x       y       z     vdW  Elec       q    Type
REMARK                         _______ _______ _______ _____ _____    ______ ____
ROOT
ATOM      1  C   UNL     1       8.492  -3.065  23.754  0.00  0.00    +0.240 C 
ENDROOT
BRANCH   1   2
ATOM      2  C   UNL     1       7.944  -3.109  25.191  0.00  0.00    +0.279 C 
BRANCH   2   3
ATOM      3  O   UNL     1       8.618  -2.190  26.073  0.00  0.00    -0.461 OA
BRANCH   3   4
ATOM      4  C   UNL     1       7.840  -1.258  26.680  0.00  0.00    +0.307 C 
ATOM      5  O   UNL     1       8.247  -0.414  27.470  0.00  0.00    -0.251 OA
BRANCH   4   6
ATOM      6  C   UNL     1       6.426  -1.327  26.159  0.00  0.00    +0.120 C 
BRANCH   6   7
ATOM      7  C   UNL     1       5.513  -0.365  26.919  0.00  0.00    +0.011 C 
BRANCH   7   8
ATOM      8  C   UNL     1       4.057  -0.832  26.918  0.00  0.00    +0.001 C 
BRANCH   8   9
ATOM      9  C   UNL     1       3.282  -0.270  28.109  0.00  0.00    +0.000 C 
BRANCH   9  10
ATOM     10  C   UNL     1       3.848   1.062  28.599  0.00  0.00    +0.004 C 
BRANCH  10  11
ATOM     11  C   UNL     1       2.824   2.192  28.509  0.00  0.00    +0.027 C 
BRANCH  11  12
ATOM     12  C   UNL     1       2.765   2.819  27.156  0.00  0.00    -0.031 C 
ATOM     13  C   UNL     1       3.773   2.834  26.270  0.00  0.00    -0.031 C 
BRANCH  13  14
ATOM     14  C   UNL     1       3.727   3.498  24.920  0.00  0.00    +0.031 C 
BRANCH  14  15
ATOM     15  C   UNL     1       3.016   4.855  24.918  0.00  0.00    +0.031 C 
BRANCH  15  16
ATOM     16  C   UNL     1       3.874   5.947  25.475  0.00  0.00    -0.031 C 
ATOM     17  C   UNL     1       5.205   5.963  25.313  0.00  0.00    -0.031 C 
BRANCH  17  18
ATOM     18  C   UNL     1       6.090   7.052  25.835  0.00  0.00    +0.031 C 
BRANCH  18  19
ATOM     19  C   UNL     1       6.771   6.634  27.140  0.00  0.00    +0.031 C 
BRANCH  19  20
ATOM     20  C   UNL     1       7.009   5.152  27.159  0.00  0.00    -0.031 C 
ATOM     21  C   UNL     1       6.721   4.369  28.208  0.00  0.00    -0.034 C 
ATOM     22  C   UNL     1       6.933   2.891  28.223  0.00  0.00    +0.035 C 
ENDBRANCH  19  20
ENDBRANCH  18  19
ENDBRANCH  17  18
ENDBRANCH  15  16
ENDBRANCH  14  15
ENDBRANCH  13  14
ENDBRANCH  11  12
ENDBRANCH  10  11
ENDBRANCH   9  10
ENDBRANCH   8   9
ENDBRANCH   7   8
ENDBRANCH   6   7
ENDBRANCH   4   6
ENDBRANCH   3   4
ENDBRANCH   2   3
ENDBRANCH   1   2
BRANCH   1  23
ATOM     23  C   UNL     1       7.551  -3.768  22.759  0.00  0.00    +0.220 C 
BRANCH  23  24
ATOM     24  O   UNL     1       6.692  -4.680  23.449  0.00  0.00    -0.283 OA
BRANCH  24  25
ATOM     25  P   UNL     1       5.551  -5.453  22.548  0.00  0.00    +0.475 P 
ATOM     26  O   UNL     1       4.283  -4.599  22.585  0.00  0.00    -0.227 OA
BRANCH  25  27
ATOM     27  O   UNL     1       6.045  -4.531  21.171  0.00  0.00    -0.302 OA
ATOM     28  H   UNL     1       6.566  -5.190  20.665  0.00  0.00    +0.222 HD
ENDBRANCH  25  27
BRANCH  25  29
ATOM     29  O   UNL     1       5.055  -6.377  23.925  0.00  0.00    -0.285 OA
BRANCH  29  30
ATOM     30  C   UNL     1       4.969  -5.547  25.081  0.00  0.00    +0.187 C 
BRANCH  30  31
ATOM     31  C   UNL     1       5.307  -6.347  26.335  0.00  0.00    +0.106 C 
BRANCH  31  32
ATOM     32  N   UNL     1       6.673  -6.074  26.781  0.00  0.00    -0.328 NA
ATOM     33  H   UNL     1       7.314  -6.226  26.002  0.00  0.00    +0.118 HD
ATOM     34  H   UNL     1       6.761  -5.086  27.021  0.00  0.00    +0.118 HD
ENDBRANCH  31  32
ENDBRANCH  30  31
ENDBRANCH  29  30
ENDBRANCH  25  29
ENDBRANCH  24  25
ENDBRANCH  23  24
ENDBRANCH   1  23
BRANCH   1  35
ATOM     35  O   UNL     1       8.674  -1.695  23.320  0.00  0.00    -0.456 OA
BRANCH  35  36
ATOM     36  C   UNL     1       9.955  -1.312  23.067  0.00  0.00    +0.308 C 
ATOM     37  O   UNL     1      10.710  -1.858  22.271  0.00  0.00    -0.251 OA
BRANCH  36  38
ATOM     38  C   UNL     1      10.333  -0.096  23.875  0.00  0.00    +0.120 C 
BRANCH  38  39
ATOM     39  C   UNL     1      10.207   1.211  23.095  0.00  0.00    +0.011 C 
BRANCH  39  40
ATOM     40  C   UNL     1       9.725   2.399  23.934  0.00  0.00    +0.001 C 
BRANCH  40  41
ATOM     41  C   UNL     1       8.682   2.045  25.000  0.00  0.00    +0.000 C 
BRANCH  41  42
ATOM     42  C   UNL     1       7.248   2.464  24.657  0.00  0.00    +0.000 C 
BRANCH  42  43
ATOM     43  C   UNL     1       6.624   1.701  23.482  0.00  0.00    +0.004 C 
BRANCH  43  44
ATOM     44  C   UNL     1       6.531   2.557  22.218  0.00  0.00    +0.027 C 
BRANCH  44  46
ATOM     45  C   UNL     1       7.522   4.845  22.073  0.00  0.00    -0.027 C 
ATOM     46  C   UNL     1       6.567   4.021  22.535  0.00  0.00    -0.031 C 
BRANCH  45  47
ATOM     47  C   UNL     1       7.573   6.317  22.351  0.00  0.00    +0.053 C 
BRANCH  47  49
ATOM     48  C   UNL     1       9.782   6.138  23.536  0.00  0.00    -0.031 C 
ATOM     49  C   UNL     1       8.531   6.617  23.468  0.00  0.00    -0.027 C 
BRANCH  48  50
ATOM     50  C   UNL     1      10.725   6.425  24.669  0.00  0.00    +0.026 C 
BRANCH  50  52
ATOM     51  C   UNL     1      12.240   5.096  23.163  0.00  0.00    +0.004 C 
ATOM     52  C   UNL     1      12.173   6.122  24.283  0.00  0.00    +0.001 C 
ENDBRANCH  50  52
ENDBRANCH  48  50
ENDBRANCH  47  49
ENDBRANCH  45  47
ENDBRANCH  44  46
ENDBRANCH  43  44
ENDBRANCH  42  43
ENDBRANCH  41  42
ENDBRANCH  40  41
ENDBRANCH  39  40
ENDBRANCH  38  39
ENDBRANCH  36  38
ENDBRANCH  35  36
ENDBRANCH   1  35
TORSDOF 38
ENDMDL
MODEL 6
REMARK VINA RESULT:      -4.5      2.697      5.279
REMARK  Name = 
REMARK  40 active torsions:
REMARK  status: ('A' for Active; 'I' for Inactive)
REMARK    1  A    between atoms: C_1  and  C_2
REMARK    2  A    between atoms: C_2  and  C_3
REMARK    3  A    between atoms: C_3  and  C_4
REMARK    4  A    between atoms: C_5  and  C_6
REMARK    5  A    between atoms: C_6  and  C_7
REMARK    6  A    between atoms: C_8  and  C_9
REMARK    7  A    between atoms: C_9  and  C_10
REMARK    8  A    between atoms: C_10  and  C_11
REMARK    9  A    between atoms: C_11  and  C_12
REMARK   10  A    between atoms: C_12  and  C_13
REMARK   11  A    between atoms: C_13  and  C_14
REMARK   12  A    between atoms: C_14  and  C_15
REMARK   13  A    between atoms: C_15  and  C_16
REMARK   14  A    between atoms: C_16  and  O_18
REMARK   15  A    between atoms: O_18  and  C_19
REMARK   16  A    between atoms: C_19  and  C_21
REMARK   17  A    between atoms: C_19  and  C_42
REMARK   18  A    between atoms: C_21  and  O_22
REMARK   19  A    between atoms: O_22  and  C_23
REMARK   20  A    between atoms: C_23  and  C_25
REMARK   21  A    between atoms: C_25  and  C_26
REMARK   22  A    between atoms: C_26  and  C_27
REMARK   23  A    between atoms: C_27  and  C_28
REMARK   24  A    between atoms: C_28  and  C_29
REMARK   25  A    between atoms: C_29  and  C_30
REMARK   26  A    between atoms: C_30  and  C_31
REMARK   27  A    between atoms: C_32  and  C_33
REMARK   28  A    between atoms: C_33  and  C_34
REMARK   29  A    between atoms: C_34  and  C_35
REMARK   30  A    between atoms: C_36  and  C_37
REMARK   31  A    between atoms: C_37  and  C_38
REMARK   32  A    between atoms: C_38  and  C_39
REMARK   33  A    between atoms: C_40  and  C_41
REMARK   34  A    between atoms: C_42  and  O_43
REMARK   35  A    between atoms: O_43  and  P_44
REMARK   36  A    between atoms: P_44  and  O_45
REMARK   37  A    between atoms: P_44  and  O_47
REMARK   38  A    between atoms: O_47  and  C_48
REMARK   39  A    between atoms: C_48  and  C_49
REMARK   40  A    between atoms: C_49  and  N_50
REMARK                            x       y       z     vdW  Elec       q    Type
REMARK                         _______ _______ _______ _____ _____    ______ ____
ROOT
ATOM      1  C   UNL     1       7.498  -4.848  25.629  0.00  0.00    +0.240 C 
ENDROOT
BRANCH   1   2
ATOM      2  C   UNL     1       7.544  -5.299  27.099  0.00  0.00    +0.279 C 
BRANCH   2   3
ATOM      3  O   UNL     1       6.645  -4.551  27.941  0.00  0.00    -0.461 OA
BRANCH   3   4
ATOM      4  C   UNL     1       5.883  -5.274  28.801  0.00  0.00    +0.307 C 
ATOM      5  O   UNL     1       6.314  -6.127  29.570  0.00  0.00    -0.251 OA
BRANCH   4   6
ATOM      6  C   UNL     1       4.451  -4.803  28.767  0.00  0.00    +0.120 C 
BRANCH   6   7
ATOM      7  C   UNL     1       4.374  -3.299  28.506  0.00  0.00    +0.011 C 
BRANCH   7   8
ATOM      8  C   UNL     1       3.494  -2.969  27.300  0.00  0.00    +0.001 C 
BRANCH   8   9
ATOM      9  C   UNL     1       3.724  -1.540  26.805  0.00  0.00    +0.000 C 
BRANCH   9  10
ATOM     10  C   UNL     1       5.208  -1.209  26.649  0.00  0.00    +0.004 C 
BRANCH  10  11
ATOM     11  C   UNL     1       5.575  -0.879  25.203  0.00  0.00    +0.027 C 
BRANCH  11  12
ATOM     12  C   UNL     1       6.145   0.491  25.045  0.00  0.00    -0.031 C 
ATOM     13  C   UNL     1       6.889   1.126  25.964  0.00  0.00    -0.031 C 
BRANCH  13  14
ATOM     14  C   UNL     1       7.433   2.522  25.820  0.00  0.00    +0.031 C 
BRANCH  14  15
ATOM     15  C   UNL     1       7.111   3.440  27.004  0.00  0.00    +0.031 C 
BRANCH  15  16
ATOM     16  C   UNL     1       6.594   2.684  28.186  0.00  0.00    -0.031 C 
ATOM     17  C   UNL     1       5.680   3.201  29.020  0.00  0.00    -0.031 C 
BRANCH  17  18
ATOM     18  C   UNL     1       5.122   2.462  30.197  0.00  0.00    +0.031 C 
BRANCH  18  19
ATOM     19  C   UNL     1       5.658   1.030  30.257  0.00  0.00    +0.031 C 
BRANCH  19  20
ATOM     20  C   UNL     1       4.538   0.042  30.102  0.00  0.00    -0.031 C 
ATOM     21  C   UNL     1       3.244   0.359  30.249  0.00  0.00    -0.034 C 
ATOM     22  C   UNL     1       2.126  -0.614  30.073  0.00  0.00    +0.035 C 
ENDBRANCH  19  20
ENDBRANCH  18  19
ENDBRANCH  17  18
ENDBRANCH  15  16
ENDBRANCH  14  15
ENDBRANCH  13  14
ENDBRANCH  11  12
ENDBRANCH  10  11
ENDBRANCH   9  10
ENDBRANCH   8   9
ENDBRANCH   7   8
ENDBRANCH   6   7
ENDBRANCH   4   6
ENDBRANCH   3   4
ENDBRANCH   2   3
ENDBRANCH   1   2
BRANCH   1  23
ATOM     23  C   UNL     1       6.062  -4.541  25.167  0.00  0.00    +0.220 C 
BRANCH  23  24
ATOM     24  O   UNL     1       5.221  -5.679  25.377  0.00  0.00    -0.283 OA
BRANCH  24  25
ATOM     25  P   UNL     1       4.301  -6.169  24.101  0.00  0.00    +0.475 P 
ATOM     26  O   UNL     1       4.065  -7.671  24.259  0.00  0.00    -0.227 OA
BRANCH  25  27
ATOM     27  O   UNL     1       2.882  -5.918  25.057  0.00  0.00    -0.302 OA
ATOM     28  H   UNL     1       2.802  -4.941  25.044  0.00  0.00    +0.222 HD
ENDBRANCH  25  27
BRANCH  25  29
ATOM     29  O   UNL     1       5.721  -6.420  23.144  0.00  0.00    -0.285 OA
BRANCH  29  30
ATOM     30  C   UNL     1       5.526  -5.931  21.820  0.00  0.00    +0.187 C 
BRANCH  30  31
ATOM     31  C   UNL     1       6.398  -4.704  21.573  0.00  0.00    +0.106 C 
BRANCH  31  32
ATOM     32  N   UNL     1       5.586  -3.492  21.476  0.00  0.00    -0.328 NA
ATOM     33  H   UNL     1       5.090  -3.493  20.586  0.00  0.00    +0.118 HD
ATOM     34  H   UNL     1       4.862  -3.510  22.196  0.00  0.00    +0.118 HD
ENDBRANCH  31  32
ENDBRANCH  30  31
ENDBRANCH  29  30
ENDBRANCH  25  29
ENDBRANCH  24  25
ENDBRANCH  23  24
ENDBRANCH   1  23
BRANCH   1  35
ATOM     35  O   UNL     1       8.303  -3.660  25.435  0.00  0.00    -0.456 OA
BRANCH  35  36
ATOM     36  C   UNL     1       9.489  -3.838  24.791  0.00  0.00    +0.308 C 
ATOM     37  O   UNL     1      10.195  -4.837  24.876  0.00  0.00    -0.251 OA
BRANCH  36  38
ATOM     38  C   UNL     1       9.825  -2.652  23.922  0.00  0.00    +0.120 C 
BRANCH  38  39
ATOM     39  C   UNL     1       9.177  -1.353  24.398  0.00  0.00    +0.011 C 
BRANCH  39  40
ATOM     40  C   UNL     1      10.173  -0.229  24.700  0.00  0.00    +0.001 C 
BRANCH  40  41
ATOM     41  C   UNL     1      10.135   0.940  23.709  0.00  0.00    +0.000 C 
BRANCH  41  42
ATOM     42  C   UNL     1      10.051   0.526  22.235  0.00  0.00    +0.000 C 
BRANCH  42  43
ATOM     43  C   UNL     1       8.840   1.092  21.481  0.00  0.00    +0.004 C 
BRANCH  43  44
ATOM     44  C   UNL     1       8.337   2.400  22.093  0.00  0.00    +0.027 C 
BRANCH  44  46
ATOM     45  C   UNL     1       6.156   3.552  22.486  0.00  0.00    -0.027 C 
ATOM     46  C   UNL     1       6.841   2.443  22.162  0.00  0.00    -0.031 C 
BRANCH  45  47
ATOM     47  C   UNL     1       4.660   3.634  22.541  0.00  0.00    +0.053 C 
BRANCH  47  49
ATOM     48  C   UNL     1       3.903   4.089  24.893  0.00  0.00    -0.031 C 
ATOM     49  C   UNL     1       4.152   3.228  23.894  0.00  0.00    -0.027 C 
BRANCH  48  50
ATOM     50  C   UNL     1       3.417   3.671  26.251  0.00  0.00    +0.026 C 
BRANCH  50  52
ATOM     51  C   UNL     1       2.025   1.761  27.114  0.00  0.00    +0.004 C 
ATOM     52  C   UNL     1       3.283   2.152  26.355  0.00  0.00    +0.001 C 
ENDBRANCH  50  52
ENDBRANCH  48  50
ENDBRANCH  47  49
ENDBRANCH  45  47
ENDBRANCH  44  46
ENDBRANCH  43  44
ENDBRANCH  42  43
ENDBRANCH  41  42
ENDBRANCH  40  41
ENDBRANCH  39  40
ENDBRANCH  38  39
ENDBRANCH  36  38
ENDBRANCH  35  36
ENDBRANCH   1  35
TORSDOF 38
ENDMDL
MODEL 7
REMARK VINA RESULT:      -4.5      2.551      4.763
REMARK  Name = 
REMARK  40 active torsions:
REMARK  status: ('A' for Active; 'I' for Inactive)
REMARK    1  A    between atoms: C_1  and  C_2
REMARK    2  A    between atoms: C_2  and  C_3
REMARK    3  A    between atoms: C_3  and  C_4
REMARK    4  A    between atoms: C_5  and  C_6
REMARK    5  A    between atoms: C_6  and  C_7
REMARK    6  A    between atoms: C_8  and  C_9
REMARK    7  A    between atoms: C_9  and  C_10
REMARK    8  A    between atoms: C_10  and  C_11
REMARK    9  A    between atoms: C_11  and  C_12
REMARK   10  A    between atoms: C_12  and  C_13
REMARK   11  A    between atoms: C_13  and  C_14
REMARK   12  A    between atoms: C_14  and  C_15
REMARK   13  A    between atoms: C_15  and  C_16
REMARK   14  A    between atoms: C_16  and  O_18
REMARK   15  A    between atoms: O_18  and  C_19
REMARK   16  A    between atoms: C_19  and  C_21
REMARK   17  A    between atoms: C_19  and  C_42
REMARK   18  A    between atoms: C_21  and  O_22
REMARK   19  A    between atoms: O_22  and  C_23
REMARK   20  A    between atoms: C_23  and  C_25
REMARK   21  A    between atoms: C_25  and  C_26
REMARK   22  A    between atoms: C_26  and  C_27
REMARK   23  A    between atoms: C_27  and  C_28
REMARK   24  A    between atoms: C_28  and  C_29
REMARK   25  A    between atoms: C_29  and  C_30
REMARK   26  A    between atoms: C_30  and  C_31
REMARK   27  A    between atoms: C_32  and  C_33
REMARK   28  A    between atoms: C_33  and  C_34
REMARK   29  A    between atoms: C_34  and  C_35
REMARK   30  A    between atoms: C_36  and  C_37
REMARK   31  A    between atoms: C_37  and  C_38
REMARK   32  A    between atoms: C_38  and  C_39
REMARK   33  A    between atoms: C_40  and  C_41
REMARK   34  A    between atoms: C_42  and  O_43
REMARK   35  A    between atoms: O_43  and  P_44
REMARK   36  A    between atoms: P_44  and  O_45
REMARK   37  A    between atoms: P_44  and  O_47
REMARK   38  A    between atoms: O_47  and  C_48
REMARK   39  A    between atoms: C_48  and  C_49
REMARK   40  A    between atoms: C_49  and  N_50
REMARK                            x       y       z     vdW  Elec       q    Type
REMARK                         _______ _______ _______ _____ _____    ______ ____
ROOT
ATOM      1  C   UNL     1       7.576  -5.147  25.642  0.00  0.00    +0.240 C 
ENDROOT
BRANCH   1   2
ATOM      2  C   UNL     1       7.595  -5.291  27.173  0.00  0.00    +0.279 C 
BRANCH   2   3
ATOM      3  O   UNL     1       6.641  -6.258  27.655  0.00  0.00    -0.461 OA
BRANCH   3   4
ATOM      4  C   UNL     1       5.926  -5.903  28.753  0.00  0.00    +0.307 C 
ATOM      5  O   UNL     1       6.340  -5.958  29.906  0.00  0.00    -0.251 OA
BRANCH   4   6
ATOM      6  C   UNL     1       4.594  -5.319  28.353  0.00  0.00    +0.120 C 
BRANCH   6   7
ATOM      7  C   UNL     1       4.480  -3.860  28.791  0.00  0.00    +0.011 C 
BRANCH   7   8
ATOM      8  C   UNL     1       4.895  -2.892  27.682  0.00  0.00    +0.001 C 
BRANCH   8   9
ATOM      9  C   UNL     1       3.725  -2.022  27.222  0.00  0.00    +0.000 C 
BRANCH   9  10
ATOM     10  C   UNL     1       3.638  -0.706  27.995  0.00  0.00    +0.004 C 
BRANCH  10  11
ATOM     11  C   UNL     1       3.622   0.507  27.067  0.00  0.00    +0.027 C 
BRANCH  11  12
ATOM     12  C   UNL     1       4.951   1.179  26.963  0.00  0.00    -0.031 C 
ATOM     13  C   UNL     1       5.823   1.009  25.958  0.00  0.00    -0.031 C 
BRANCH  13  14
ATOM     14  C   UNL     1       7.178   1.658  25.872  0.00  0.00    +0.031 C 
BRANCH  14  15
ATOM     15  C   UNL     1       7.260   3.024  26.561  0.00  0.00    +0.031 C 
BRANCH  15  16
ATOM     16  C   UNL     1       7.759   4.095  25.644  0.00  0.00    -0.031 C 
ATOM     17  C   UNL     1       7.419   5.383  25.798  0.00  0.00    -0.031 C 
BRANCH  17  18
ATOM     18  C   UNL     1       7.920   6.482  24.914  0.00  0.00    +0.031 C 
BRANCH  18  19
ATOM     19  C   UNL     1       8.615   5.921  23.672  0.00  0.00    +0.031 C 
BRANCH  19  20
ATOM     20  C   UNL     1      10.080   6.252  23.692  0.00  0.00    -0.031 C 
ATOM     21  C   UNL     1      11.048   5.326  23.687  0.00  0.00    -0.034 C 
ATOM     22  C   UNL     1      12.506   5.650  23.682  0.00  0.00    +0.035 C 
ENDBRANCH  19  20
ENDBRANCH  18  19
ENDBRANCH  17  18
ENDBRANCH  15  16
ENDBRANCH  14  15
ENDBRANCH  13  14
ENDBRANCH  11  12
ENDBRANCH  10  11
ENDBRANCH   9  10
ENDBRANCH   8   9
ENDBRANCH   7   8
ENDBRANCH   6   7
ENDBRANCH   4   6
ENDBRANCH   3   4
ENDBRANCH   2   3
ENDBRANCH   1   2
BRANCH   1  23
ATOM     23  C   UNL     1       6.163  -5.342  25.064  0.00  0.00    +0.220 C 
BRANCH  23  24
ATOM     24  O   UNL     1       6.133  -4.953  23.688  0.00  0.00    -0.283 OA
BRANCH  24  25
ATOM     25  P   UNL     1       4.975  -5.647  22.744  0.00  0.00    +0.475 P 
ATOM     26  O   UNL     1       3.747  -4.737  22.785  0.00  0.00    -0.227 OA
BRANCH  25  27
ATOM     27  O   UNL     1       5.537  -4.708  21.405  0.00  0.00    -0.302 OA
ATOM     28  H   UNL     1       5.782  -5.404  20.760  0.00  0.00    +0.222 HD
ENDBRANCH  25  27
BRANCH  25  29
ATOM     29  O   UNL     1       4.413  -6.587  24.083  0.00  0.00    -0.285 OA
BRANCH  29  30
ATOM     30  C   UNL     1       3.031  -6.900  23.932  0.00  0.00    +0.187 C 
BRANCH  30  31
ATOM     31  C   UNL     1       2.675  -8.140  24.746  0.00  0.00    +0.106 C 
BRANCH  31  32
ATOM     32  N   UNL     1       2.686  -7.850  26.179  0.00  0.00    -0.328 NA
ATOM     33  H   UNL     1       2.294  -6.921  26.335  0.00  0.00    +0.118 HD
ATOM     34  H   UNL     1       2.060  -8.497  26.661  0.00  0.00    +0.118 HD
ENDBRANCH  31  32
ENDBRANCH  30  31
ENDBRANCH  29  30
ENDBRANCH  25  29
ENDBRANCH  24  25
ENDBRANCH  23  24
ENDBRANCH   1  23
BRANCH   1  35
ATOM     35  O   UNL     1       8.054  -3.838  25.247  0.00  0.00    -0.456 OA
BRANCH  35  36
ATOM     36  C   UNL     1       9.274  -3.802  24.645  0.00  0.00    +0.308 C 
ATOM     37  O   UNL     1      10.186  -4.594  24.852  0.00  0.00    -0.251 OA
BRANCH  36  38
ATOM     38  C   UNL     1       9.363  -2.669  23.654  0.00  0.00    +0.120 C 
BRANCH  38  39
ATOM     39  C   UNL     1       8.730  -1.374  24.159  0.00  0.00    +0.011 C 
BRANCH  39  40
ATOM     40  C   UNL     1       9.523  -0.679  25.270  0.00  0.00    +0.001 C 
BRANCH  40  41
ATOM     41  C   UNL     1      10.507   0.388  24.778  0.00  0.00    +0.000 C 
BRANCH  41  42
ATOM     42  C   UNL     1      10.483   0.631  23.263  0.00  0.00    +0.000 C 
BRANCH  42  43
ATOM     43  C   UNL     1       9.817   1.946  22.838  0.00  0.00    +0.004 C 
BRANCH  43  44
ATOM     44  C   UNL     1       8.674   1.722  21.848  0.00  0.00    +0.027 C 
BRANCH  44  46
ATOM     45  C   UNL     1       6.438   2.644  22.473  0.00  0.00    -0.027 C 
ATOM     46  C   UNL     1       7.652   2.815  21.923  0.00  0.00    -0.031 C 
BRANCH  45  47
ATOM     47  C   UNL     1       5.403   3.722  22.585  0.00  0.00    +0.053 C 
BRANCH  47  49
ATOM     48  C   UNL     1       4.139   4.466  24.625  0.00  0.00    -0.031 C 
ATOM     49  C   UNL     1       4.524   3.497  23.781  0.00  0.00    -0.027 C 
BRANCH  48  50
ATOM     50  C   UNL     1       3.278   4.227  25.832  0.00  0.00    +0.026 C 
BRANCH  50  52
ATOM     51  C   UNL     1       3.716   4.489  28.296  0.00  0.00    +0.004 C 
ATOM     52  C   UNL     1       3.609   5.206  26.959  0.00  0.00    +0.001 C 
ENDBRANCH  50  52
ENDBRANCH  48  50
ENDBRANCH  47  49
ENDBRANCH  45  47
ENDBRANCH  44  46
ENDBRANCH  43  44
ENDBRANCH  42  43
ENDBRANCH  41  42
ENDBRANCH  40  41
ENDBRANCH  39  40
ENDBRANCH  38  39
ENDBRANCH  36  38
ENDBRANCH  35  36
ENDBRANCH   1  35
TORSDOF 38
ENDMDL
MODEL 8
REMARK VINA RESULT:      -4.5      4.796      9.324
REMARK  Name = 
REMARK  40 active torsions:
REMARK  status: ('A' for Active; 'I' for Inactive)
REMARK    1  A    between atoms: C_1  and  C_2
REMARK    2  A    between atoms: C_2  and  C_3
REMARK    3  A    between atoms: C_3  and  C_4
REMARK    4  A    between atoms: C_5  and  C_6
REMARK    5  A    between atoms: C_6  and  C_7
REMARK    6  A    between atoms: C_8  and  C_9
REMARK    7  A    between atoms: C_9  and  C_10
REMARK    8  A    between atoms: C_10  and  C_11
REMARK    9  A    between atoms: C_11  and  C_12
REMARK   10  A    between atoms: C_12  and  C_13
REMARK   11  A    between atoms: C_13  and  C_14
REMARK   12  A    between atoms: C_14  and  C_15
REMARK   13  A    between atoms: C_15  and  C_16
REMARK   14  A    between atoms: C_16  and  O_18
REMARK   15  A    between atoms: O_18  and  C_19
REMARK   16  A    between atoms: C_19  and  C_21
REMARK   17  A    between atoms: C_19  and  C_42
REMARK   18  A    between atoms: C_21  and  O_22
REMARK   19  A    between atoms: O_22  and  C_23
REMARK   20  A    between atoms: C_23  and  C_25
REMARK   21  A    between atoms: C_25  and  C_26
REMARK   22  A    between atoms: C_26  and  C_27
REMARK   23  A    between atoms: C_27  and  C_28
REMARK   24  A    between atoms: C_28  and  C_29
REMARK   25  A    between atoms: C_29  and  C_30
REMARK   26  A    between atoms: C_30  and  C_31
REMARK   27  A    between atoms: C_32  and  C_33
REMARK   28  A    between atoms: C_33  and  C_34
REMARK   29  A    between atoms: C_34  and  C_35
REMARK   30  A    between atoms: C_36  and  C_37
REMARK   31  A    between atoms: C_37  and  C_38
REMARK   32  A    between atoms: C_38  and  C_39
REMARK   33  A    between atoms: C_40  and  C_41
REMARK   34  A    between atoms: C_42  and  O_43
REMARK   35  A    between atoms: O_43  and  P_44
REMARK   36  A    between atoms: P_44  and  O_45
REMARK   37  A    between atoms: P_44  and  O_47
REMARK   38  A    between atoms: O_47  and  C_48
REMARK   39  A    between atoms: C_48  and  C_49
REMARK   40  A    between atoms: C_49  and  N_50
REMARK                            x       y       z     vdW  Elec       q    Type
REMARK                         _______ _______ _______ _____ _____    ______ ____
ROOT
ATOM      1  C   UNL     1       9.029  -1.639  24.162  0.00  0.00    +0.240 C 
ENDROOT
BRANCH   1   2
ATOM      2  C   UNL     1       8.545  -2.591  23.055  0.00  0.00    +0.279 C 
BRANCH   2   3
ATOM      3  O   UNL     1       7.159  -2.390  22.713  0.00  0.00    -0.461 OA
BRANCH   3   4
ATOM      4  C   UNL     1       6.530  -3.432  22.114  0.00  0.00    +0.307 C 
ATOM      5  O   UNL     1       5.588  -3.328  21.336  0.00  0.00    -0.251 OA
BRANCH   4   6
ATOM      6  C   UNL     1       7.224  -4.731  22.441  0.00  0.00    +0.120 C 
BRANCH   6   7
ATOM      7  C   UNL     1       6.215  -5.866  22.609  0.00  0.00    +0.011 C 
BRANCH   7   8
ATOM      8  C   UNL     1       5.636  -5.916  24.023  0.00  0.00    +0.001 C 
BRANCH   8   9
ATOM      9  C   UNL     1       4.209  -6.464  24.031  0.00  0.00    +0.000 C 
BRANCH   9  10
ATOM     10  C   UNL     1       3.256  -5.622  23.182  0.00  0.00    +0.004 C 
BRANCH  10  11
ATOM     11  C   UNL     1       1.834  -5.622  23.740  0.00  0.00    +0.027 C 
BRANCH  11  12
ATOM     12  C   UNL     1       1.750  -6.181  25.122  0.00  0.00    -0.031 C 
ATOM     13  C   UNL     1       0.958  -5.710  26.097  0.00  0.00    -0.031 C 
BRANCH  13  14
ATOM     14  C   UNL     1       0.900  -6.250  27.500  0.00  0.00    +0.031 C 
BRANCH  14  15
ATOM     15  C   UNL     1       1.977  -7.294  27.810  0.00  0.00    +0.031 C 
BRANCH  15  16
ATOM     16  C   UNL     1       3.129  -6.714  28.568  0.00  0.00    -0.031 C 
ATOM     17  C   UNL     1       4.364  -6.648  28.050  0.00  0.00    -0.031 C 
BRANCH  17  18
ATOM     18  C   UNL     1       5.533  -6.052  28.771  0.00  0.00    +0.031 C 
BRANCH  18  19
ATOM     19  C   UNL     1       6.174  -4.930  27.952  0.00  0.00    +0.031 C 
BRANCH  19  20
ATOM     20  C   UNL     1       7.318  -5.460  27.135  0.00  0.00    -0.031 C 
ATOM     21  C   UNL     1       8.133  -4.682  26.410  0.00  0.00    -0.034 C 
ATOM     22  C   UNL     1       9.285  -5.202  25.616  0.00  0.00    +0.035 C 
ENDBRANCH  19  20
ENDBRANCH  18  19
ENDBRANCH  17  18
ENDBRANCH  15  16
ENDBRANCH  14  15
ENDBRANCH  13  14
ENDBRANCH  11  12
ENDBRANCH  10  11
ENDBRANCH   9  10
ENDBRANCH   8   9
ENDBRANCH   7   8
ENDBRANCH   6   7
ENDBRANCH   4   6
ENDBRANCH   3   4
ENDBRANCH   2   3
ENDBRANCH   1   2
BRANCH   1  23
ATOM     23  C   UNL     1       9.987  -0.564  23.617  0.00  0.00    +0.220 C 
BRANCH  23  24
ATOM     24  O   UNL     1       9.624   0.725  24.121  0.00  0.00    -0.283 OA
BRANCH  24  25
ATOM     25  P   UNL     1       9.374   1.915  23.011  0.00  0.00    +0.475 P 
ATOM     26  O   UNL     1       9.831   1.378  21.654  0.00  0.00    -0.227 OA
BRANCH  25  27
ATOM     27  O   UNL     1       7.818   1.240  22.672  0.00  0.00    -0.302 OA
ATOM     28  H   UNL     1       7.245   1.731  23.298  0.00  0.00    +0.222 HD
ENDBRANCH  25  27
BRANCH  25  29
ATOM     29  O   UNL     1      10.930   2.591  23.349  0.00  0.00    -0.285 OA
BRANCH  29  30
ATOM     30  C   UNL     1      10.822   3.984  23.631  0.00  0.00    +0.187 C 
BRANCH  30  31
ATOM     31  C   UNL     1       9.357   4.406  23.667  0.00  0.00    +0.106 C 
BRANCH  31  32
ATOM     32  N   UNL     1       9.168   5.709  23.029  0.00  0.00    -0.328 NA
ATOM     33  H   UNL     1       8.887   6.388  23.736  0.00  0.00    +0.118 HD
ATOM     34  H   UNL     1      10.063   6.043  22.668  0.00  0.00    +0.118 HD
ENDBRANCH  31  32
ENDBRANCH  30  31
ENDBRANCH  29  30
ENDBRANCH  25  29
ENDBRANCH  24  25
ENDBRANCH  23  24
ENDBRANCH   1  23
BRANCH   1  35
ATOM     35  O   UNL     1       7.907  -0.973  24.789  0.00  0.00    -0.456 OA
BRANCH  35  36
ATOM     36  C   UNL     1       7.827  -1.079  26.144  0.00  0.00    +0.308 C 
ATOM     37  O   UNL     1       8.745  -0.855  26.924  0.00  0.00    -0.251 OA
BRANCH  36  38
ATOM     38  C   UNL     1       6.442  -1.486  26.581  0.00  0.00    +0.120 C 
BRANCH  38  39
ATOM     39  C   UNL     1       5.388  -1.304  25.492  0.00  0.00    +0.011 C 
BRANCH  39  40
ATOM     40  C   UNL     1       4.692  -2.601  25.068  0.00  0.00    +0.001 C 
BRANCH  40  41
ATOM     41  C   UNL     1       3.806  -3.232  26.149  0.00  0.00    +0.000 C 
BRANCH  41  42
ATOM     42  C   UNL     1       2.420  -2.592  26.294  0.00  0.00    +0.000 C 
BRANCH  42  43
ATOM     43  C   UNL     1       1.894  -2.530  27.734  0.00  0.00    +0.004 C 
BRANCH  43  44
ATOM     44  C   UNL     1       2.880  -3.128  28.738  0.00  0.00    +0.027 C 
BRANCH  44  46
ATOM     45  C   UNL     1       4.057  -1.054  29.482  0.00  0.00    -0.027 C 
ATOM     46  C   UNL     1       3.299  -2.125  29.770  0.00  0.00    -0.031 C 
BRANCH  45  47
ATOM     47  C   UNL     1       4.473  -0.021  30.485  0.00  0.00    +0.053 C 
BRANCH  47  49
ATOM     48  C   UNL     1       6.322   1.111  29.214  0.00  0.00    -0.031 C 
ATOM     49  C   UNL     1       5.119   1.152  29.806  0.00  0.00    -0.027 C 
BRANCH  48  50
ATOM     50  C   UNL     1       6.970   2.296  28.558  0.00  0.00    +0.026 C 
BRANCH  50  52
ATOM     51  C   UNL     1       7.127   2.544  26.059  0.00  0.00    +0.004 C 
ATOM     52  C   UNL     1       6.234   2.700  27.280  0.00  0.00    +0.001 C 
ENDBRANCH  50  52
ENDBRANCH  48  50
ENDBRANCH  47  49
ENDBRANCH  45  47
ENDBRANCH  44  46
ENDBRANCH  43  44
ENDBRANCH  42  43
ENDBRANCH  41  42
ENDBRANCH  40  41
ENDBRANCH  39  40
ENDBRANCH  38  39
ENDBRANCH  36  38
ENDBRANCH  35  36
ENDBRANCH   1  35
TORSDOF 38
ENDMDL
MODEL 9
REMARK VINA RESULT:      -4.5      2.933      5.083
REMARK  Name = 
REMARK  40 active torsions:
REMARK  status: ('A' for Active; 'I' for Inactive)
REMARK    1  A    between atoms: C_1  and  C_2
REMARK    2  A    between atoms: C_2  and  C_3
REMARK    3  A    between atoms: C_3  and  C_4
REMARK    4  A    between atoms: C_5  and  C_6
REMARK    5  A    between atoms: C_6  and  C_7
REMARK    6  A    between atoms: C_8  and  C_9
REMARK    7  A    between atoms: C_9  and  C_10
REMARK    8  A    between atoms: C_10  and  C_11
REMARK    9  A    between atoms: C_11  and  C_12
REMARK   10  A    between atoms: C_12  and  C_13
REMARK   11  A    between atoms: C_13  and  C_14
REMARK   12  A    between atoms: C_14  and  C_15
REMARK   13  A    between atoms: C_15  and  C_16
REMARK   14  A    between atoms: C_16  and  O_18
REMARK   15  A    between atoms: O_18  and  C_19
REMARK   16  A    between atoms: C_19  and  C_21
REMARK   17  A    between atoms: C_19  and  C_42
REMARK   18  A    between atoms: C_21  and  O_22
REMARK   19  A    between atoms: O_22  and  C_23
REMARK   20  A    between atoms: C_23  and  C_25
REMARK   21  A    between atoms: C_25  and  C_26
REMARK   22  A    between atoms: C_26  and  C_27
REMARK   23  A    between atoms: C_27  and  C_28
REMARK   24  A    between atoms: C_28  and  C_29
REMARK   25  A    between atoms: C_29  and  C_30
REMARK   26  A    between atoms: C_30  and  C_31
REMARK   27  A    between atoms: C_32  and  C_33
REMARK   28  A    between atoms: C_33  and  C_34
REMARK   29  A    between atoms: C_34  and  C_35
REMARK   30  A    between atoms: C_36  and  C_37
REMARK   31  A    between atoms: C_37  and  C_38
REMARK   32  A    between atoms: C_38  and  C_39
REMARK   33  A    between atoms: C_40  and  C_41
REMARK   34  A    between atoms: C_42  and  O_43
REMARK   35  A    between atoms: O_43  and  P_44
REMARK   36  A    between atoms: P_44  and  O_45
REMARK   37  A    between atoms: P_44  and  O_47
REMARK   38  A    between atoms: O_47  and  C_48
REMARK   39  A    between atoms: C_48  and  C_49
REMARK   40  A    between atoms: C_49  and  N_50
REMARK                            x       y       z     vdW  Elec       q    Type
REMARK                         _______ _______ _______ _____ _____    ______ ____
ROOT
ATOM      1  C   UNL     1       7.637  -4.357  25.907  0.00  0.00    +0.240 C 
ENDROOT
BRANCH   1   2
ATOM      2  C   UNL     1       7.212  -3.086  26.662  0.00  0.00    +0.279 C 
BRANCH   2   3
ATOM      3  O   UNL     1       5.895  -2.631  26.292  0.00  0.00    -0.461 OA
BRANCH   3   4
ATOM      4  C   UNL     1       5.803  -1.351  25.850  0.00  0.00    +0.307 C 
ATOM      5  O   UNL     1       5.260  -1.008  24.806  0.00  0.00    -0.251 OA
BRANCH   4   6
ATOM      6  C   UNL     1       6.354  -0.394  26.878  0.00  0.00    +0.120 C 
BRANCH   6   7
ATOM      7  C   UNL     1       5.292  -0.030  27.915  0.00  0.00    +0.011 C 
BRANCH   7   8
ATOM      8  C   UNL     1       4.199   0.864  27.329  0.00  0.00    +0.001 C 
BRANCH   8   9
ATOM      9  C   UNL     1       4.048   2.164  28.119  0.00  0.00    +0.000 C 
BRANCH   9  10
ATOM     10  C   UNL     1       2.894   3.027  27.608  0.00  0.00    +0.004 C 
BRANCH  10  11
ATOM     11  C   UNL     1       3.370   4.391  27.112  0.00  0.00    +0.027 C 
BRANCH  11  12
ATOM     12  C   UNL     1       3.490   4.461  25.625  0.00  0.00    -0.031 C 
ATOM     13  C   UNL     1       3.610   3.401  24.812  0.00  0.00    -0.031 C 
BRANCH  13  14
ATOM     14  C   UNL     1       3.768   3.472  23.317  0.00  0.00    +0.031 C 
BRANCH  14  15
ATOM     15  C   UNL     1       5.224   3.425  22.842  0.00  0.00    +0.031 C 
BRANCH  15  16
ATOM     16  C   UNL     1       5.879   4.769  22.887  0.00  0.00    -0.031 C 
ATOM     17  C   UNL     1       6.953   5.066  22.140  0.00  0.00    -0.031 C 
BRANCH  17  18
ATOM     18  C   UNL     1       7.617   6.407  22.142  0.00  0.00    +0.031 C 
BRANCH  18  19
ATOM     19  C   UNL     1       8.391   6.640  23.442  0.00  0.00    +0.031 C 
BRANCH  19  20
ATOM     20  C   UNL     1       9.825   6.222  23.283  0.00  0.00    -0.031 C 
ATOM     21  C   UNL     1      10.710   6.216  24.290  0.00  0.00    -0.034 C 
ATOM     22  C   UNL     1      12.129   5.778  24.143  0.00  0.00    +0.035 C 
ENDBRANCH  19  20
ENDBRANCH  18  19
ENDBRANCH  17  18
ENDBRANCH  15  16
ENDBRANCH  14  15
ENDBRANCH  13  14
ENDBRANCH  11  12
ENDBRANCH  10  11
ENDBRANCH   9  10
ENDBRANCH   8   9
ENDBRANCH   7   8
ENDBRANCH   6   7
ENDBRANCH   4   6
ENDBRANCH   3   4
ENDBRANCH   2   3
ENDBRANCH   1   2
BRANCH   1  23
ATOM     23  C   UNL     1       7.575  -5.606  26.804  0.00  0.00    +0.220 C 
BRANCH  23  24
ATOM     24  O   UNL     1       7.056  -5.265  28.093  0.00  0.00    -0.283 OA
BRANCH  24  25
ATOM     25  P   UNL     1       5.819  -6.190  28.665  0.00  0.00    +0.475 P 
ATOM     26  O   UNL     1       6.436  -7.447  29.280  0.00  0.00    -0.227 OA
BRANCH  25  27
ATOM     27  O   UNL     1       5.999  -5.435  30.210  0.00  0.00    -0.302 OA
ATOM     28  H   UNL     1       6.974  -5.356  30.283  0.00  0.00    +0.222 HD
ENDBRANCH  25  27
BRANCH  25  29
ATOM     29  O   UNL     1       5.639  -6.947  27.120  0.00  0.00    -0.285 OA
BRANCH  29  30
ATOM     30  C   UNL     1       4.294  -6.836  26.660  0.00  0.00    +0.187 C 
BRANCH  30  31
ATOM     31  C   UNL     1       4.248  -6.887  25.137  0.00  0.00    +0.106 C 
BRANCH  31  32
ATOM     32  N   UNL     1       3.900  -5.582  24.576  0.00  0.00    -0.328 NA
ATOM     33  H   UNL     1       4.666  -4.931  24.748  0.00  0.00    +0.118 HD
ATOM     34  H   UNL     1       3.826  -5.657  23.561  0.00  0.00    +0.118 HD
ENDBRANCH  31  32
ENDBRANCH  30  31
ENDBRANCH  29  30
ENDBRANCH  25  29
ENDBRANCH  24  25
ENDBRANCH  23  24
ENDBRANCH   1  23
BRANCH   1  35
ATOM     35  O   UNL     1       6.783  -4.577  24.758  0.00  0.00    -0.456 OA
BRANCH  35  36
ATOM     36  C   UNL     1       7.404  -4.608  23.547  0.00  0.00    +0.308 C 
ATOM     37  O   UNL     1       7.132  -5.380  22.635  0.00  0.00    -0.251 OA
BRANCH  36  38
ATOM     38  C   UNL     1       8.467  -3.542  23.449  0.00  0.00    +0.120 C 
BRANCH  38  39
ATOM     39  C   UNL     1       7.953  -2.231  22.860  0.00  0.00    +0.011 C 
BRANCH  39  40
ATOM     40  C   UNL     1       8.866  -1.027  23.115  0.00  0.00    +0.001 C 
BRANCH  40  41
ATOM     41  C   UNL     1       9.443  -0.384  21.849  0.00  0.00    +0.000 C 
BRANCH  41  42
ATOM     42  C   UNL     1       9.074   1.092  21.656  0.00  0.00    +0.000 C 
BRANCH  42  43
ATOM     43  C   UNL     1      10.201   2.079  21.987  0.00  0.00    +0.004 C 
BRANCH  43  44
ATOM     44  C   UNL     1      10.202   2.484  23.462  0.00  0.00    +0.027 C 
BRANCH  44  46
ATOM     45  C   UNL     1       8.439   2.492  25.231  0.00  0.00    -0.027 C 
ATOM     46  C   UNL     1       8.816   2.748  23.968  0.00  0.00    -0.031 C 
BRANCH  45  47
ATOM     47  C   UNL     1       7.069   2.766  25.774  0.00  0.00    +0.053 C 
BRANCH  47  49
ATOM     48  C   UNL     1       7.523   5.138  26.470  0.00  0.00    -0.031 C 
ATOM     49  C   UNL     1       7.102   3.897  26.761  0.00  0.00    -0.027 C 
BRANCH  48  50
ATOM     50  C   UNL     1       7.574   6.258  27.470  0.00  0.00    +0.026 C 
BRANCH  50  52
ATOM     51  C   UNL     1       7.200   5.894  29.931  0.00  0.00    +0.004 C 
ATOM     52  C   UNL     1       6.535   6.068  28.575  0.00  0.00    +0.001 C 
ENDBRANCH  50  52
ENDBRANCH  48  50
ENDBRANCH  47  49
ENDBRANCH  45  47
ENDBRANCH  44  46
ENDBRANCH  43  44
ENDBRANCH  42  43
ENDBRANCH  41  42
ENDBRANCH  40  41
ENDBRANCH  39  40
ENDBRANCH  38  39
ENDBRANCH  36  38
ENDBRANCH  35  36
ENDBRANCH   1  35
TORSDOF 38
ENDMDL
