MODEL 1
REMARK VINA RESULT:      -6.1      0.000      0.000
REMARK  Name = 
REMARK  6 active torsions:
REMARK  status: ('A' for Active; 'I' for Inactive)
REMARK    1  A    between atoms: C_2  and  C_4
REMARK    2  A    between atoms: N_6  and  C1*_9
REMARK    3  A    between atoms: C4*_12  and  C5*_14
REMARK    4  A    between atoms: C5*_14  and  O5*_15
REMARK    5  A    between atoms: C3*_16  and  O3*_18
REMARK    6  A    between atoms: C2*_19  and  O2*_21
REMARK                            x       y       z     vdW  Elec       q    Type
REMARK                         _______ _______ _______ _____ _____    ______ ____
ROOT
ATOM      1  C1* UNL     1       9.849  -1.478  22.420  0.00  0.00    +0.270 C 
ATOM      2  C2* UNL     1       8.969  -0.359  21.857  0.00  0.00    +0.196 C 
ATOM      3  C3* UNL     1       9.447   0.912  22.561  0.00  0.00    +0.178 C 
ATOM      4  C4* UNL     1      10.531   0.460  23.540  0.00  0.00    +0.177 C 
ATOM      5  O4* UNL     1      10.948  -0.855  23.121  0.00  0.00    -0.344 OA
ENDROOT
BRANCH   1   9
ATOM      6  C   UNL     1       8.918  -3.862  24.807  0.00  0.00    +0.236 A 
ATOM      7  N   UNL     1       7.651  -3.592  24.310  0.00  0.00    -0.211 NA
ATOM      8  C   UNL     1       7.873  -2.683  23.390  0.00  0.00    +0.223 A 
ATOM      9  N   UNL     1       9.202  -2.404  23.330  0.00  0.00    -0.220 N 
ATOM     10  N   UNL     1       9.897  -3.169  24.197  0.00  0.00    -0.142 NA
BRANCH   6  14
ATOM     11  N   UNL     1      10.082  -5.793  25.596  0.00  0.00    -0.323 N 
ATOM     12  H   UNL     1      10.540  -5.786  24.694  0.00  0.00    +0.145 HD
ATOM     13  H   UNL     1      10.305  -6.490  26.291  0.00  0.00    +0.145 HD
ATOM     14  C   UNL     1       9.155  -4.831  25.898  0.00  0.00    +0.281 C 
ATOM     15  O   UNL     1       8.597  -4.813  26.993  0.00  0.00    -0.267 OA
ENDBRANCH   6  14
ENDBRANCH   1   9
BRANCH   2  16
ATOM     16  O2* UNL     1       9.178  -0.268  20.432  0.00  0.00    -0.385 OA
ATOM     17  H2* UNL     1       9.483  -1.155  20.150  0.00  0.00    +0.210 HD
ENDBRANCH   2  16
BRANCH   3  18
ATOM     18  O3* UNL     1       9.967   1.818  21.568  0.00  0.00    -0.386 OA
ATOM     19  H3* UNL     1      10.475   1.307  20.907  0.00  0.00    +0.210 HD
ENDBRANCH   3  18
BRANCH   4  20
ATOM     20  C5* UNL     1      10.059   0.414  24.998  0.00  0.00    +0.190 C 
BRANCH  20  21
ATOM     21  O5* UNL     1       9.159   1.495  25.245  0.00  0.00    -0.392 OA
ATOM     22  H5* UNL     1       9.536   2.280  24.807  0.00  0.00    +0.210 HD
ENDBRANCH  20  21
ENDBRANCH   4  20
TORSDOF 6
ENDMDL
MODEL 2
REMARK VINA RESULT:      -6.0      1.947      5.494
REMARK  Name = 
REMARK  6 active torsions:
REMARK  status: ('A' for Active; 'I' for Inactive)
REMARK    1  A    between atoms: C_2  and  C_4
REMARK    2  A    between atoms: N_6  and  C1*_9
REMARK    3  A    between atoms: C4*_12  and  C5*_14
REMARK    4  A    between atoms: C5*_14  and  O5*_15
REMARK    5  A    between atoms: C3*_16  and  O3*_18
REMARK    6  A    between atoms: C2*_19  and  O2*_21
REMARK                            x       y       z     vdW  Elec       q    Type
REMARK                         _______ _______ _______ _____ _____    ______ ____
ROOT
ATOM      1  C1* UNL     1       8.606  -4.319  24.283  0.00  0.00    +0.270 C 
ATOM      2  C2* UNL     1       9.272  -4.646  25.622  0.00  0.00    +0.196 C 
ATOM      3  C3* UNL     1       8.128  -4.670  26.637  0.00  0.00    +0.178 C 
ATOM      4  C4* UNL     1       6.870  -4.295  25.853  0.00  0.00    +0.177 C 
ATOM      5  O4* UNL     1       7.181  -4.478  24.457  0.00  0.00    -0.344 OA
ENDROOT
BRANCH   1   9
ATOM      6  C   UNL     1       9.501  -1.005  23.602  0.00  0.00    +0.236 A 
ATOM      7  N   UNL     1       8.771  -1.241  22.445  0.00  0.00    -0.211 NA
ATOM      8  C   UNL     1       8.379  -2.486  22.584  0.00  0.00    +0.223 A 
ATOM      9  N   UNL     1       8.849  -2.989  23.756  0.00  0.00    -0.220 N 
ATOM     10  N   UNL     1       9.537  -2.055  24.442  0.00  0.00    -0.142 NA
BRANCH   6  14
ATOM     11  N   UNL     1      10.513   0.469  25.185  0.00  0.00    -0.323 N 
ATOM     12  H   UNL     1      10.319  -0.256  25.863  0.00  0.00    +0.145 HD
ATOM     13  H   UNL     1      10.976   1.326  25.452  0.00  0.00    +0.145 HD
ATOM     14  C   UNL     1      10.164   0.288  23.873  0.00  0.00    +0.281 C 
ATOM     15  O   UNL     1      10.403   1.151  23.031  0.00  0.00    -0.267 OA
ENDBRANCH   6  14
ENDBRANCH   1   9
BRANCH   2  16
ATOM     16  O2* UNL     1       9.905  -5.939  25.530  0.00  0.00    -0.385 OA
ATOM     17  H2* UNL     1       9.195  -6.566  25.281  0.00  0.00    +0.210 HD
ENDBRANCH   2  16
BRANCH   3  18
ATOM     18  O3* UNL     1       8.035  -5.998  27.192  0.00  0.00    -0.386 OA
ATOM     19  H3* UNL     1       7.134  -6.343  27.040  0.00  0.00    +0.210 HD
ENDBRANCH   3  18
BRANCH   4  20
ATOM     20  C5* UNL     1       6.405  -2.853  26.095  0.00  0.00    +0.190 C 
BRANCH  20  21
ATOM     21  O5* UNL     1       7.433  -2.125  26.766  0.00  0.00    -0.392 OA
ATOM     22  H5* UNL     1       7.033  -1.753  27.573  0.00  0.00    +0.210 HD
ENDBRANCH  20  21
ENDBRANCH   4  20
TORSDOF 6
ENDMDL
MODEL 3
REMARK VINA RESULT:      -5.9      1.728      2.217
REMARK  Name = 
REMARK  6 active torsions:
REMARK  status: ('A' for Active; 'I' for Inactive)
REMARK    1  A    between atoms: C_2  and  C_4
REMARK    2  A    between atoms: N_6  and  C1*_9
REMARK    3  A    between atoms: C4*_12  and  C5*_14
REMARK    4  A    between atoms: C5*_14  and  O5*_15
REMARK    5  A    between atoms: C3*_16  and  O3*_18
REMARK    6  A    between atoms: C2*_19  and  O2*_21
REMARK                            x       y       z     vdW  Elec       q    Type
REMARK                         _______ _______ _______ _____ _____    ______ ____
ROOT
ATOM      1  C1* UNL     1      10.247   0.655  23.178  0.00  0.00    +0.270 C 
ATOM      2  C2* UNL     1       9.459   1.624  22.294  0.00  0.00    +0.196 C 
ATOM      3  C3* UNL     1       8.778   2.585  23.270  0.00  0.00    +0.178 C 
ATOM      4  C4* UNL     1       9.152   2.089  24.667  0.00  0.00    +0.177 C 
ATOM      5  O4* UNL     1      10.288   1.216  24.508  0.00  0.00    -0.344 OA
ENDROOT
BRANCH   1   9
ATOM      6  C   UNL     1       9.311  -2.615  24.002  0.00  0.00    +0.236 A 
ATOM      7  N   UNL     1       8.738  -2.571  22.738  0.00  0.00    -0.211 NA
ATOM      8  C   UNL     1       9.023  -1.360  22.319  0.00  0.00    +0.223 A 
ATOM      9  N   UNL     1       9.723  -0.694  23.274  0.00  0.00    -0.220 N 
ATOM     10  N   UNL     1       9.953  -1.483  24.344  0.00  0.00    -0.142 NA
BRANCH   6  14
ATOM     11  N   UNL     1       8.623  -3.563  26.084  0.00  0.00    -0.323 N 
ATOM     12  H   UNL     1       8.283  -2.635  26.302  0.00  0.00    +0.145 HD
ATOM     13  H   UNL     1       8.517  -4.326  26.736  0.00  0.00    +0.145 HD
ATOM     14  C   UNL     1       9.220  -3.804  24.875  0.00  0.00    +0.281 C 
ATOM     15  O   UNL     1       9.628  -4.927  24.585  0.00  0.00    -0.267 OA
ENDBRANCH   6  14
ENDBRANCH   1   9
BRANCH   2  16
ATOM     16  O2* UNL     1      10.376   2.329  21.433  0.00  0.00    -0.385 OA
ATOM     17  H2* UNL     1       9.971   3.207  21.274  0.00  0.00    +0.210 HD
ENDBRANCH   2  16
BRANCH   3  18
ATOM     18  O3* UNL     1       9.274   3.916  23.024  0.00  0.00    -0.386 OA
ATOM     19  H3* UNL     1       8.901   4.243  22.182  0.00  0.00    +0.210 HD
ENDBRANCH   3  18
BRANCH   4  20
ATOM     20  C5* UNL     1       8.017   1.339  25.375  0.00  0.00    +0.190 C 
BRANCH  20  21
ATOM     21  O5* UNL     1       8.567   0.409  26.308  0.00  0.00    -0.392 OA
ATOM     22  H5* UNL     1       8.291  -0.479  26.017  0.00  0.00    +0.210 HD
ENDBRANCH  20  21
ENDBRANCH   4  20
TORSDOF 6
ENDMDL
MODEL 4
REMARK VINA RESULT:      -5.8      2.427      5.538
REMARK  Name = 
REMARK  6 active torsions:
REMARK  status: ('A' for Active; 'I' for Inactive)
REMARK    1  A    between atoms: C_2  and  C_4
REMARK    2  A    between atoms: N_6  and  C1*_9
REMARK    3  A    between atoms: C4*_12  and  C5*_14
REMARK    4  A    between atoms: C5*_14  and  O5*_15
REMARK    5  A    between atoms: C3*_16  and  O3*_18
REMARK    6  A    between atoms: C2*_19  and  O2*_21
REMARK                            x       y       z     vdW  Elec       q    Type
REMARK                         _______ _______ _______ _____ _____    ______ ____
ROOT
ATOM      1  C1* UNL     1       9.431  -2.581  23.553  0.00  0.00    +0.270 C 
ATOM      2  C2* UNL     1       9.163  -3.433  24.796  0.00  0.00    +0.196 C 
ATOM      3  C3* UNL     1       7.666  -3.745  24.746  0.00  0.00    +0.178 C 
ATOM      4  C4* UNL     1       7.131  -3.009  23.517  0.00  0.00    +0.177 C 
ATOM      5  O4* UNL     1       8.272  -2.684  22.698  0.00  0.00    -0.344 OA
ENDROOT
BRANCH   1   9
ATOM      6  C   UNL     1      10.088   0.855  23.442  0.00  0.00    +0.236 A 
ATOM      7  N   UNL     1      10.131   0.702  24.821  0.00  0.00    -0.211 NA
ATOM      8  C   UNL     1       9.886  -0.575  24.991  0.00  0.00    +0.223 A 
ATOM      9  N   UNL     1       9.694  -1.173  23.786  0.00  0.00    -0.220 N 
ATOM     10  N   UNL     1       9.853  -0.291  22.778  0.00  0.00    -0.142 NA
BRANCH   6  14
ATOM     11  N   UNL     1       9.747   2.238  21.524  0.00  0.00    -0.323 N 
ATOM     12  H   UNL     1       9.254   1.443  21.139  0.00  0.00    +0.145 HD
ATOM     13  H   UNL     1       9.837   3.100  21.006  0.00  0.00    +0.145 HD
ATOM     14  C   UNL     1      10.289   2.161  22.780  0.00  0.00    +0.281 C 
ATOM     15  O   UNL     1      10.880   3.120  23.272  0.00  0.00    -0.267 OA
ENDBRANCH   6  14
ENDBRANCH   1   9
BRANCH   2  16
ATOM     16  O2* UNL     1       9.944  -4.642  24.715  0.00  0.00    -0.385 OA
ATOM     17  H2* UNL     1       9.889  -5.056  25.602  0.00  0.00    +0.210 HD
ENDBRANCH   2  16
BRANCH   3  18
ATOM     18  O3* UNL     1       7.500  -5.172  24.629  0.00  0.00    -0.386 OA
ATOM     19  H3* UNL     1       8.381  -5.590  24.565  0.00  0.00    +0.210 HD
ENDBRANCH   3  18
BRANCH   4  20
ATOM     20  C5* UNL     1       6.356  -1.731  23.859  0.00  0.00    +0.190 C 
BRANCH  20  21
ATOM     21  O5* UNL     1       6.541  -0.768  22.822  0.00  0.00    -0.392 OA
ATOM     22  H5* UNL     1       7.079  -1.196  22.131  0.00  0.00    +0.210 HD
ENDBRANCH  20  21
ENDBRANCH   4  20
TORSDOF 6
ENDMDL
MODEL 5
REMARK VINA RESULT:      -5.8      2.004      5.810
REMARK  Name = 
REMARK  6 active torsions:
REMARK  status: ('A' for Active; 'I' for Inactive)
REMARK    1  A    between atoms: C_2  and  C_4
REMARK    2  A    between atoms: N_6  and  C1*_9
REMARK    3  A    between atoms: C4*_12  and  C5*_14
REMARK    4  A    between atoms: C5*_14  and  O5*_15
REMARK    5  A    between atoms: C3*_16  and  O3*_18
REMARK    6  A    between atoms: C2*_19  and  O2*_21
REMARK                            x       y       z     vdW  Elec       q    Type
REMARK                         _______ _______ _______ _____ _____    ______ ____
ROOT
ATOM      1  C1* UNL     1       9.313  -3.761  24.965  0.00  0.00    +0.270 C 
ATOM      2  C2* UNL     1       8.562  -3.986  26.280  0.00  0.00    +0.196 C 
ATOM      3  C3* UNL     1       7.283  -4.726  25.883  0.00  0.00    +0.178 C 
ATOM      4  C4* UNL     1       7.324  -4.835  24.358  0.00  0.00    +0.177 C 
ATOM      5  O4* UNL     1       8.689  -4.590  23.961  0.00  0.00    -0.344 OA
ENDROOT
BRANCH   1   9
ATOM      6  C   UNL     1       9.556  -0.758  23.184  0.00  0.00    +0.236 A 
ATOM      7  N   UNL     1       9.285  -0.212  24.431  0.00  0.00    -0.211 NA
ATOM      8  C   UNL     1       9.162  -1.267  25.203  0.00  0.00    +0.223 A 
ATOM      9  N   UNL     1       9.339  -2.397  24.470  0.00  0.00    -0.220 N 
ATOM     10  N   UNL     1       9.628  -2.101  23.186  0.00  0.00    -0.142 NA
BRANCH   6  14
ATOM     11  N   UNL     1       9.443  -0.565  20.806  0.00  0.00    -0.323 N 
ATOM     12  H   UNL     1       9.106  -1.519  20.826  0.00  0.00    +0.145 HD
ATOM     13  H   UNL     1       9.544  -0.063  19.936  0.00  0.00    +0.145 HD
ATOM     14  C   UNL     1       9.751   0.074  21.978  0.00  0.00    +0.281 C 
ATOM     15  O   UNL     1      10.149   1.237  21.978  0.00  0.00    -0.267 OA
ENDBRANCH   6  14
ENDBRANCH   1   9
BRANCH   2  16
ATOM     16  O2* UNL     1       9.374  -4.797  27.154  0.00  0.00    -0.385 OA
ATOM     17  H2* UNL     1       9.433  -4.304  27.998  0.00  0.00    +0.210 HD
ENDBRANCH   2  16
BRANCH   3  18
ATOM     18  O3* UNL     1       7.289  -6.023  26.512  0.00  0.00    -0.386 OA
ATOM     19  H3* UNL     1       7.969  -6.580  26.085  0.00  0.00    +0.210 HD
ENDBRANCH   3  18
BRANCH   4  20
ATOM     20  C5* UNL     1       6.392  -3.846  23.648  0.00  0.00    +0.190 C 
BRANCH  20  21
ATOM     21  O5* UNL     1       6.919  -3.533  22.359  0.00  0.00    -0.392 OA
ATOM     22  H5* UNL     1       7.476  -4.287  22.091  0.00  0.00    +0.210 HD
ENDBRANCH  20  21
ENDBRANCH   4  20
TORSDOF 6
ENDMDL
MODEL 6
REMARK VINA RESULT:      -5.7      2.036      2.174
REMARK  Name = 
REMARK  6 active torsions:
REMARK  status: ('A' for Active; 'I' for Inactive)
REMARK    1  A    between atoms: C_2  and  C_4
REMARK    2  A    between atoms: N_6  and  C1*_9
REMARK    3  A    between atoms: C4*_12  and  C5*_14
REMARK    4  A    between atoms: C5*_14  and  O5*_15
REMARK    5  A    between atoms: C3*_16  and  O3*_18
REMARK    6  A    between atoms: C2*_19  and  O2*_21
REMARK                            x       y       z     vdW  Elec       q    Type
REMARK                         _______ _______ _______ _____ _____    ______ ____
ROOT
ATOM      1  C1* UNL     1       9.441  -2.282  23.571  0.00  0.00    +0.270 C 
ATOM      2  C2* UNL     1       9.226  -1.650  22.194  0.00  0.00    +0.196 C 
ATOM      3  C3* UNL     1       8.671  -0.253  22.483  0.00  0.00    +0.178 C 
ATOM      4  C4* UNL     1       8.533  -0.169  24.003  0.00  0.00    +0.177 C 
ATOM      5  O4* UNL     1       9.343  -1.228  24.554  0.00  0.00    -0.344 OA
ENDROOT
BRANCH   1   9
ATOM      6  C   UNL     1       7.518  -4.792  25.071  0.00  0.00    +0.236 A 
ATOM      7  N   UNL     1       6.971  -4.875  23.797  0.00  0.00    -0.211 NA
ATOM      8  C   UNL     1       7.623  -3.954  23.128  0.00  0.00    +0.223 A 
ATOM      9  N   UNL     1       8.514  -3.333  23.945  0.00  0.00    -0.220 N 
ATOM     10  N   UNL     1       8.494  -3.873  25.181  0.00  0.00    -0.142 NA
BRANCH   6  14
ATOM     11  N   UNL     1       7.981  -5.777  27.197  0.00  0.00    -0.323 N 
ATOM     12  H   UNL     1       8.871  -5.299  27.134  0.00  0.00    +0.145 HD
ATOM     13  H   UNL     1       7.745  -6.340  28.001  0.00  0.00    +0.145 HD
ATOM     14  C   UNL     1       7.063  -5.647  26.188  0.00  0.00    +0.281 C 
ATOM     15  O   UNL     1       5.971  -6.207  26.251  0.00  0.00    -0.267 OA
ENDBRANCH   6  14
ENDBRANCH   1   9
BRANCH   2  16
ATOM     16  O2* UNL     1      10.493  -1.569  21.509  0.00  0.00    -0.385 OA
ATOM     17  H2* UNL     1      10.806  -0.649  21.636  0.00  0.00    +0.210 HD
ENDBRANCH   2  16
BRANCH   3  18
ATOM     18  O3* UNL     1       9.603   0.723  21.976  0.00  0.00    -0.386 OA
ATOM     19  H3* UNL     1      10.396   0.261  21.641  0.00  0.00    +0.210 HD
ENDBRANCH   3  18
BRANCH   4  20
ATOM     20  C5* UNL     1       7.088  -0.313  24.496  0.00  0.00    +0.190 C 
BRANCH  20  21
ATOM     21  O5* UNL     1       6.204  -0.369  23.377  0.00  0.00    -0.392 OA
ATOM     22  H5* UNL     1       6.650   0.089  22.641  0.00  0.00    +0.210 HD
ENDBRANCH  20  21
ENDBRANCH   4  20
TORSDOF 6
ENDMDL
MODEL 7
REMARK VINA RESULT:      -5.7      2.750      3.330
REMARK  Name = 
REMARK  6 active torsions:
REMARK  status: ('A' for Active; 'I' for Inactive)
REMARK    1  A    between atoms: C_2  and  C_4
REMARK    2  A    between atoms: N_6  and  C1*_9
REMARK    3  A    between atoms: C4*_12  and  C5*_14
REMARK    4  A    between atoms: C5*_14  and  O5*_15
REMARK    5  A    between atoms: C3*_16  and  O3*_18
REMARK    6  A    between atoms: C2*_19  and  O2*_21
REMARK                            x       y       z     vdW  Elec       q    Type
REMARK                         _______ _______ _______ _____ _____    ______ ____
ROOT
ATOM      1  C1* UNL     1       9.284  -2.501  23.543  0.00  0.00    +0.270 C 
ATOM      2  C2* UNL     1       9.334  -1.753  22.208  0.00  0.00    +0.196 C 
ATOM      3  C3* UNL     1       8.690  -0.394  22.492  0.00  0.00    +0.178 C 
ATOM      4  C4* UNL     1       8.242  -0.446  23.954  0.00  0.00    +0.177 C 
ATOM      5  O4* UNL     1       8.955  -1.539  24.568  0.00  0.00    -0.344 OA
ENDROOT
BRANCH   1   9
ATOM      6  C   UNL     1       6.839  -4.968  23.112  0.00  0.00    +0.236 A 
ATOM      7  N   UNL     1       7.114  -5.210  24.451  0.00  0.00    -0.211 NA
ATOM      8  C   UNL     1       8.045  -4.330  24.733  0.00  0.00    +0.223 A 
ATOM      9  N   UNL     1       8.333  -3.593  23.628  0.00  0.00    -0.220 N 
ATOM     10  N   UNL     1       7.553  -3.955  22.589  0.00  0.00    -0.142 NA
BRANCH   6  14
ATOM     11  N   UNL     1       5.090  -6.594  23.123  0.00  0.00    -0.323 N 
ATOM     12  H   UNL     1       5.233  -6.623  24.124  0.00  0.00    +0.145 HD
ATOM     13  H   UNL     1       4.385  -7.163  22.678  0.00  0.00    +0.145 HD
ATOM     14  C   UNL     1       5.848  -5.754  22.349  0.00  0.00    +0.281 C 
ATOM     15  O   UNL     1       5.680  -5.694  21.133  0.00  0.00    -0.267 OA
ENDBRANCH   6  14
ENDBRANCH   1   9
BRANCH   2  16
ATOM     16  O2* UNL     1      10.711  -1.595  21.808  0.00  0.00    -0.385 OA
ATOM     17  H2* UNL     1      10.969  -2.445  21.396  0.00  0.00    +0.210 HD
ENDBRANCH   2  16
BRANCH   3  18
ATOM     18  O3* UNL     1       9.674   0.635  22.271  0.00  0.00    -0.386 OA
ATOM     19  H3* UNL     1       9.697   0.853  21.319  0.00  0.00    +0.210 HD
ENDBRANCH   3  18
BRANCH   4  20
ATOM     20  C5* UNL     1       6.732  -0.652  24.124  0.00  0.00    +0.190 C 
BRANCH  20  21
ATOM     21  O5* UNL     1       6.165  -1.085  22.888  0.00  0.00    -0.392 OA
ATOM     22  H5* UNL     1       5.238  -1.325  23.072  0.00  0.00    +0.210 HD
ENDBRANCH  20  21
ENDBRANCH   4  20
TORSDOF 6
ENDMDL
MODEL 8
REMARK VINA RESULT:      -5.7      2.681      5.558
REMARK  Name = 
REMARK  6 active torsions:
REMARK  status: ('A' for Active; 'I' for Inactive)
REMARK    1  A    between atoms: C_2  and  C_4
REMARK    2  A    between atoms: N_6  and  C1*_9
REMARK    3  A    between atoms: C4*_12  and  C5*_14
REMARK    4  A    between atoms: C5*_14  and  O5*_15
REMARK    5  A    between atoms: C3*_16  and  O3*_18
REMARK    6  A    between atoms: C2*_19  and  O2*_21
REMARK                            x       y       z     vdW  Elec       q    Type
REMARK                         _______ _______ _______ _____ _____    ______ ____
ROOT
ATOM      1  C1* UNL     1       7.056  -2.295  23.074  0.00  0.00    +0.270 C 
ATOM      2  C2* UNL     1       6.922  -3.571  22.241  0.00  0.00    +0.196 C 
ATOM      3  C3* UNL     1       7.378  -4.699  23.168  0.00  0.00    +0.178 C 
ATOM      4  C4* UNL     1       7.813  -4.017  24.466  0.00  0.00    +0.177 C 
ATOM      5  O4* UNL     1       7.244  -2.692  24.450  0.00  0.00    -0.344 OA
ENDROOT
BRANCH   1   9
ATOM      6  C   UNL     1       9.382   0.283  22.630  0.00  0.00    +0.236 A 
ATOM      7  N   UNL     1       9.892  -0.594  21.682  0.00  0.00    -0.211 NA
ATOM      8  C   UNL     1       9.088  -1.628  21.762  0.00  0.00    +0.223 A 
ATOM      9  N   UNL     1       8.142  -1.404  22.711  0.00  0.00    -0.220 N 
ATOM     10  N   UNL     1       8.283  -0.178  23.255  0.00  0.00    -0.142 NA
BRANCH   6  14
ATOM     11  N   UNL     1      10.201   2.362  21.789  0.00  0.00    -0.323 N 
ATOM     12  H   UNL     1       9.928   2.011  20.881  0.00  0.00    +0.145 HD
ATOM     13  H   UNL     1      10.612   3.279  21.894  0.00  0.00    +0.145 HD
ATOM     14  C   UNL     1       9.995   1.598  22.908  0.00  0.00    +0.281 C 
ATOM     15  O   UNL     1      10.308   2.012  24.022  0.00  0.00    -0.267 OA
ENDBRANCH   6  14
ENDBRANCH   1   9
BRANCH   2  16
ATOM     16  O2* UNL     1       5.541  -3.744  21.862  0.00  0.00    -0.385 OA
ATOM     17  H2* UNL     1       5.510  -3.602  20.893  0.00  0.00    +0.210 HD
ENDBRANCH   2  16
BRANCH   3  18
ATOM     18  O3* UNL     1       6.269  -5.595  23.380  0.00  0.00    -0.386 OA
ATOM     19  H3* UNL     1       6.604  -6.512  23.420  0.00  0.00    +0.210 HD
ENDBRANCH   3  18
BRANCH   4  20
ATOM     20  C5* UNL     1       9.335  -3.925  24.630  0.00  0.00    +0.190 C 
BRANCH  20  21
ATOM     21  O5* UNL     1       9.882  -5.236  24.764  0.00  0.00    -0.392 OA
ATOM     22  H5* UNL     1      10.548  -5.193  25.475  0.00  0.00    +0.210 HD
ENDBRANCH  20  21
ENDBRANCH   4  20
TORSDOF 6
ENDMDL
MODEL 9
REMARK VINA RESULT:      -5.6      1.488      2.622
REMARK  Name = 
REMARK  6 active torsions:
REMARK  status: ('A' for Active; 'I' for Inactive)
REMARK    1  A    between atoms: C_2  and  C_4
REMARK    2  A    between atoms: N_6  and  C1*_9
REMARK    3  A    between atoms: C4*_12  and  C5*_14
REMARK    4  A    between atoms: C5*_14  and  O5*_15
REMARK    5  A    between atoms: C3*_16  and  O3*_18
REMARK    6  A    between atoms: C2*_19  and  O2*_21
REMARK                            x       y       z     vdW  Elec       q    Type
REMARK                         _______ _______ _______ _____ _____    ______ ____
ROOT
ATOM      1  C1* UNL     1       8.130  -0.220  24.268  0.00  0.00    +0.270 C 
ATOM      2  C2* UNL     1       9.523   0.378  24.479  0.00  0.00    +0.196 C 
ATOM      3  C3* UNL     1      10.061   0.634  23.070  0.00  0.00    +0.178 C 
ATOM      4  C4* UNL     1       8.984   0.116  22.115  0.00  0.00    +0.177 C 
ATOM      5  O4* UNL     1       7.771  -0.007  22.885  0.00  0.00    -0.344 OA
ENDROOT
BRANCH   1   9
ATOM      6  C   UNL     1       8.462  -3.615  25.047  0.00  0.00    +0.236 A 
ATOM      7  N   UNL     1       7.101  -3.620  24.773  0.00  0.00    -0.211 NA
ATOM      8  C   UNL     1       6.850  -2.369  24.467  0.00  0.00    +0.223 A 
ATOM      9  N   UNL     1       7.990  -1.634  24.557  0.00  0.00    -0.220 N 
ATOM     10  N   UNL     1       9.041  -2.411  24.890  0.00  0.00    -0.142 NA
BRANCH   6  14
ATOM     11  N   UNL     1       8.487  -5.637  26.318  0.00  0.00    -0.323 N 
ATOM     12  H   UNL     1       7.549  -5.379  26.596  0.00  0.00    +0.145 HD
ATOM     13  H   UNL     1       8.914  -6.491  26.646  0.00  0.00    +0.145 HD
ATOM     14  C   UNL     1       9.193  -4.830  25.465  0.00  0.00    +0.281 C 
ATOM     15  O   UNL     1      10.328  -5.132  25.105  0.00  0.00    -0.267 OA
ENDBRANCH   6  14
ENDBRANCH   1   9
BRANCH   2  16
ATOM     16  O2* UNL     1       9.401   1.612  25.215  0.00  0.00    -0.385 OA
ATOM     17  H2* UNL     1      10.201   2.133  24.998  0.00  0.00    +0.210 HD
ENDBRANCH   2  16
BRANCH   3  18
ATOM     18  O3* UNL     1      10.278   2.051  22.913  0.00  0.00    -0.386 OA
ATOM     19  H3* UNL     1      10.374   2.457  23.797  0.00  0.00    +0.210 HD
ENDBRANCH   3  18
BRANCH   4  20
ATOM     20  C5* UNL     1       9.331  -1.233  21.475  0.00  0.00    +0.190 C 
BRANCH  20  21
ATOM     21  O5* UNL     1      10.534  -1.742  22.052  0.00  0.00    -0.392 OA
ATOM     22  H5* UNL     1      10.420  -1.705  23.019  0.00  0.00    +0.210 HD
ENDBRANCH  20  21
ENDBRANCH   4  20
TORSDOF 6
ENDMDL
