MODEL 1
REMARK VINA RESULT:      -6.3      0.000      0.000
REMARK  Name = 
REMARK  12 active torsions:
REMARK  status: ('A' for Active; 'I' for Inactive)
REMARK    1  A    between atoms: O_1  and  C_2
REMARK    2  A    between atoms: C_2  and  C_3
REMARK    3  A    between atoms: C_6  and  S_8
REMARK    4  A    between atoms: S_8  and  C_9
REMARK    5  A    between atoms: C_11  and  C_13
REMARK    6  A    between atoms: C_13  and  O_14
REMARK    7  A    between atoms: C_16  and  O_18
REMARK    8  A    between atoms: C_19  and  O_21
REMARK    9  A    between atoms: C_22  and  O_24
REMARK   10  A    between atoms: C_25  and  O_27
REMARK   11  A    between atoms: C_28  and  O_30
REMARK   12  A    between atoms: C_31  and  O_33
REMARK                            x       y       z     vdW  Elec       q    Type
REMARK                         _______ _______ _______ _____ _____    ______ ____
ROOT
ATOM      1  S   UNL     1       6.809  -1.329  23.113  0.00  0.00    -0.118 S 
ENDROOT
BRANCH   1   6
ATOM      2  C   UNL     1       6.517  -4.873  25.001  0.00  0.00    +0.176 C 
ATOM      3  C   UNL     1       5.090  -5.260  24.607  0.00  0.00    +0.176 C 
ATOM      4  C   UNL     1       4.921  -5.011  23.107  0.00  0.00    +0.177 C 
ATOM      5  C   UNL     1       5.376  -3.611  22.680  0.00  0.00    +0.184 C 
ATOM      6  C   UNL     1       6.710  -3.156  23.348  0.00  0.00    +0.207 C 
ATOM      7  O   UNL     1       6.719  -3.464  24.743  0.00  0.00    -0.355 OA
BRANCH   3   8
ATOM      8  O   UNL     1       4.870  -6.652  24.872  0.00  0.00    -0.386 OA
ATOM      9  H   UNL     1       5.742  -7.087  24.835  0.00  0.00    +0.210 HD
ENDBRANCH   3   8
BRANCH   4  10
ATOM     10  O   UNL     1       3.537  -5.217  22.764  0.00  0.00    -0.386 OA
ATOM     11  H   UNL     1       3.328  -4.583  22.052  0.00  0.00    +0.210 HD
ENDBRANCH   4  10
BRANCH   5  12
ATOM     12  O   UNL     1       5.451  -3.613  21.244  0.00  0.00    -0.386 OA
ATOM     13  H   UNL     1       4.613  -3.270  20.880  0.00  0.00    +0.210 HD
ENDBRANCH   5  12
BRANCH   2  14
ATOM     14  C   UNL     1       6.788  -5.189  26.477  0.00  0.00    +0.190 C 
BRANCH  14  15
ATOM     15  O   UNL     1       8.029  -5.890  26.584  0.00  0.00    -0.392 OA
ATOM     16  H   UNL     1       7.944  -6.475  27.358  0.00  0.00    +0.210 HD
ENDBRANCH  14  15
ENDBRANCH   2  14
ENDBRANCH   1   6
BRANCH   1  17
ATOM     17  C   UNL     1       8.489  -1.017  22.366  0.00  0.00    +0.111 C 
ATOM     18  C   UNL     1       9.643  -1.840  22.980  0.00  0.00    +0.163 C 
ATOM     19  C   UNL     1       9.956  -1.426  24.437  0.00  0.00    +0.200 C 
ATOM     20  C   UNL     1       9.985   0.112  24.637  0.00  0.00    +0.279 C 
ATOM     21  O   UNL     1       8.957   0.816  23.944  0.00  0.00    -0.342 OA
ATOM     22  C   UNL     1       8.885   0.479  22.546  0.00  0.00    +0.162 C 
BRANCH  18  23
ATOM     23  O   UNL     1      10.789  -1.671  22.124  0.00  0.00    -0.388 OA
ATOM     24  H   UNL     1      11.051  -0.733  22.138  0.00  0.00    +0.210 HD
ENDBRANCH  18  23
BRANCH  19  25
ATOM     25  O   UNL     1       9.035  -2.022  25.361  0.00  0.00    -0.384 OA
ATOM     26  H   UNL     1       8.193  -1.527  25.334  0.00  0.00    +0.210 HD
ENDBRANCH  19  25
BRANCH  20  27
ATOM     27  O   UNL     1      11.241   0.647  24.243  0.00  0.00    -0.365 OA
ATOM     28  H   UNL     1      11.751  -0.121  23.932  0.00  0.00    +0.213 HD
ENDBRANCH  20  27
BRANCH  22  29
ATOM     29  C   UNL     1       7.942   1.478  21.862  0.00  0.00    +0.188 C 
BRANCH  29  30
ATOM     30  O   UNL     1       8.639   2.706  21.613  0.00  0.00    -0.392 OA
ATOM     31  H   UNL     1       8.870   2.682  20.667  0.00  0.00    +0.210 HD
ENDBRANCH  29  30
ENDBRANCH  22  29
ENDBRANCH   1  17
TORSDOF 12
ENDMDL
MODEL 2
REMARK VINA RESULT:      -6.3      2.480      3.618
REMARK  Name = 
REMARK  12 active torsions:
REMARK  status: ('A' for Active; 'I' for Inactive)
REMARK    1  A    between atoms: O_1  and  C_2
REMARK    2  A    between atoms: C_2  and  C_3
REMARK    3  A    between atoms: C_6  and  S_8
REMARK    4  A    between atoms: S_8  and  C_9
REMARK    5  A    between atoms: C_11  and  C_13
REMARK    6  A    between atoms: C_13  and  O_14
REMARK    7  A    between atoms: C_16  and  O_18
REMARK    8  A    between atoms: C_19  and  O_21
REMARK    9  A    between atoms: C_22  and  O_24
REMARK   10  A    between atoms: C_25  and  O_27
REMARK   11  A    between atoms: C_28  and  O_30
REMARK   12  A    between atoms: C_31  and  O_33
REMARK                            x       y       z     vdW  Elec       q    Type
REMARK                         _______ _______ _______ _____ _____    ______ ____
ROOT
ATOM      1  S   UNL     1       7.535  -1.194  23.747  0.00  0.00    -0.118 S 
ENDROOT
BRANCH   1   6
ATOM      2  C   UNL     1       7.208  -3.900  26.710  0.00  0.00    +0.176 C 
ATOM      3  C   UNL     1       7.781  -5.130  26.002  0.00  0.00    +0.176 C 
ATOM      4  C   UNL     1       9.067  -4.716  25.285  0.00  0.00    +0.177 C 
ATOM      5  C   UNL     1       8.890  -3.466  24.415  0.00  0.00    +0.184 C 
ATOM      6  C   UNL     1       8.042  -2.347  25.094  0.00  0.00    +0.207 C 
ATOM      7  O   UNL     1       6.882  -2.891  25.726  0.00  0.00    -0.355 OA
BRANCH   3   8
ATOM      8  O   UNL     1       8.094  -6.145  26.965  0.00  0.00    -0.386 OA
ATOM      9  H   UNL     1       7.298  -6.700  27.060  0.00  0.00    +0.210 HD
ENDBRANCH   3   8
BRANCH   4  10
ATOM     10  O   UNL     1       9.520  -5.825  24.486  0.00  0.00    -0.386 OA
ATOM     11  H   UNL     1       9.095  -5.734  23.613  0.00  0.00    +0.210 HD
ENDBRANCH   4  10
BRANCH   5  12
ATOM     12  O   UNL     1      10.206  -3.017  24.051  0.00  0.00    -0.386 OA
ATOM     13  H   UNL     1      10.162  -2.078  23.791  0.00  0.00    +0.210 HD
ENDBRANCH   5  12
BRANCH   2  14
ATOM     14  C   UNL     1       5.966  -4.263  27.532  0.00  0.00    +0.190 C 
BRANCH  14  15
ATOM     15  O   UNL     1       6.370  -4.994  28.691  0.00  0.00    -0.392 OA
ATOM     16  H   UNL     1       6.460  -4.340  29.407  0.00  0.00    +0.210 HD
ENDBRANCH  14  15
ENDBRANCH   2  14
ENDBRANCH   1   6
BRANCH   1  17
ATOM     17  C   UNL     1       8.914   0.054  23.619  0.00  0.00    +0.111 C 
ATOM     18  C   UNL     1       8.734   1.323  24.481  0.00  0.00    +0.163 C 
ATOM     19  C   UNL     1       7.568   2.212  23.989  0.00  0.00    +0.200 C 
ATOM     20  C   UNL     1       7.545   2.383  22.447  0.00  0.00    +0.279 C 
ATOM     21  O   UNL     1       7.837   1.193  21.718  0.00  0.00    -0.342 OA
ATOM     22  C   UNL     1       9.051   0.550  22.148  0.00  0.00    +0.162 C 
BRANCH  18  23
ATOM     23  O   UNL     1       9.986   2.033  24.462  0.00  0.00    -0.388 OA
ATOM     24  H   UNL     1       9.969   2.674  23.728  0.00  0.00    +0.210 HD
ENDBRANCH  18  23
BRANCH  19  25
ATOM     25  O   UNL     1       6.301   1.718  24.446  0.00  0.00    -0.384 OA
ATOM     26  H   UNL     1       6.309   1.678  25.421  0.00  0.00    +0.210 HD
ENDBRANCH  19  25
BRANCH  20  27
ATOM     27  O   UNL     1       8.455   3.395  22.040  0.00  0.00    -0.365 OA
ATOM     28  H   UNL     1       9.250   3.247  22.581  0.00  0.00    +0.213 HD
ENDBRANCH  20  27
BRANCH  22  29
ATOM     29  C   UNL     1       9.397  -0.546  21.132  0.00  0.00    +0.188 C 
BRANCH  29  30
ATOM     30  O   UNL     1      10.375  -1.433  21.692  0.00  0.00    -0.392 OA
ATOM     31  H   UNL     1       9.953  -1.811  22.485  0.00  0.00    +0.210 HD
ENDBRANCH  29  30
ENDBRANCH  22  29
ENDBRANCH   1  17
TORSDOF 12
ENDMDL
MODEL 3
REMARK VINA RESULT:      -6.2      1.861      6.769
REMARK  Name = 
REMARK  12 active torsions:
REMARK  status: ('A' for Active; 'I' for Inactive)
REMARK    1  A    between atoms: O_1  and  C_2
REMARK    2  A    between atoms: C_2  and  C_3
REMARK    3  A    between atoms: C_6  and  S_8
REMARK    4  A    between atoms: S_8  and  C_9
REMARK    5  A    between atoms: C_11  and  C_13
REMARK    6  A    between atoms: C_13  and  O_14
REMARK    7  A    between atoms: C_16  and  O_18
REMARK    8  A    between atoms: C_19  and  O_21
REMARK    9  A    between atoms: C_22  and  O_24
REMARK   10  A    between atoms: C_25  and  O_27
REMARK   11  A    between atoms: C_28  and  O_30
REMARK   12  A    between atoms: C_31  and  O_33
REMARK                            x       y       z     vdW  Elec       q    Type
REMARK                         _______ _______ _______ _____ _____    ______ ____
ROOT
ATOM      1  S   UNL     1       8.652  -1.811  24.197  0.00  0.00    -0.118 S 
ENDROOT
BRANCH   1   6
ATOM      2  C   UNL     1       6.811   1.497  22.829  0.00  0.00    +0.176 C 
ATOM      3  C   UNL     1       8.034   2.356  22.497  0.00  0.00    +0.176 C 
ATOM      4  C   UNL     1       9.036   1.490  21.732  0.00  0.00    +0.177 C 
ATOM      5  C   UNL     1       9.326   0.156  22.429  0.00  0.00    +0.184 C 
ATOM      6  C   UNL     1       8.053  -0.539  23.004  0.00  0.00    +0.207 C 
ATOM      7  O   UNL     1       7.215   0.400  23.680  0.00  0.00    -0.355 OA
BRANCH   3   8
ATOM      8  O   UNL     1       7.645   3.458  21.665  0.00  0.00    -0.386 OA
ATOM      9  H   UNL     1       6.682   3.382  21.528  0.00  0.00    +0.210 HD
ENDBRANCH   3   8
BRANCH   4  10
ATOM     10  O   UNL     1      10.252   2.243  21.561  0.00  0.00    -0.386 OA
ATOM     11  H   UNL     1       9.996   3.104  21.180  0.00  0.00    +0.210 HD
ENDBRANCH   4  10
BRANCH   5  12
ATOM     12  O   UNL     1      10.024  -0.670  21.482  0.00  0.00    -0.386 OA
ATOM     13  H   UNL     1      10.977  -0.459  21.517  0.00  0.00    +0.210 HD
ENDBRANCH   5  12
BRANCH   2  14
ATOM     14  C   UNL     1       5.720   2.330  23.513  0.00  0.00    +0.190 C 
BRANCH  14  15
ATOM     15  O   UNL     1       4.716   2.664  22.553  0.00  0.00    -0.392 OA
ATOM     16  H   UNL     1       3.866   2.631  23.027  0.00  0.00    +0.210 HD
ENDBRANCH  14  15
ENDBRANCH   2  14
ENDBRANCH   1   6
BRANCH   1  17
ATOM     17  C   UNL     1       8.330  -3.452  23.373  0.00  0.00    +0.111 C 
ATOM     18  C   UNL     1       6.979  -3.561  22.634  0.00  0.00    +0.163 C 
ATOM     19  C   UNL     1       5.772  -3.545  23.601  0.00  0.00    +0.200 C 
ATOM     20  C   UNL     1       5.982  -4.444  24.848  0.00  0.00    +0.279 C 
ATOM     21  O   UNL     1       7.292  -4.378  25.407  0.00  0.00    -0.342 OA
ATOM     22  C   UNL     1       8.332  -4.593  24.435  0.00  0.00    +0.162 C 
BRANCH  18  23
ATOM     23  O   UNL     1       7.016  -4.771  21.854  0.00  0.00    -0.388 OA
ATOM     24  H   UNL     1       7.597  -5.412  22.302  0.00  0.00    +0.210 HD
ENDBRANCH  18  23
BRANCH  19  25
ATOM     25  O   UNL     1       5.444  -2.209  24.009  0.00  0.00    -0.384 OA
ATOM     26  H   UNL     1       6.029  -1.582  23.542  0.00  0.00    +0.210 HD
ENDBRANCH  19  25
BRANCH  20  27
ATOM     27  O   UNL     1       5.688  -5.800  24.546  0.00  0.00    -0.365 OA
ATOM     28  H   UNL     1       5.216  -6.132  25.328  0.00  0.00    +0.213 HD
ENDBRANCH  20  27
BRANCH  22  29
ATOM     29  C   UNL     1       9.659  -4.767  25.186  0.00  0.00    +0.188 C 
BRANCH  29  30
ATOM     30  O   UNL     1       9.826  -6.141  25.558  0.00  0.00    -0.392 OA
ATOM     31  H   UNL     1      10.653  -6.425  25.125  0.00  0.00    +0.210 HD
ENDBRANCH  29  30
ENDBRANCH  22  29
ENDBRANCH   1  17
TORSDOF 12
ENDMDL
MODEL 4
REMARK VINA RESULT:      -6.2      2.031      6.245
REMARK  Name = 
REMARK  12 active torsions:
REMARK  status: ('A' for Active; 'I' for Inactive)
REMARK    1  A    between atoms: O_1  and  C_2
REMARK    2  A    between atoms: C_2  and  C_3
REMARK    3  A    between atoms: C_6  and  S_8
REMARK    4  A    between atoms: S_8  and  C_9
REMARK    5  A    between atoms: C_11  and  C_13
REMARK    6  A    between atoms: C_13  and  O_14
REMARK    7  A    between atoms: C_16  and  O_18
REMARK    8  A    between atoms: C_19  and  O_21
REMARK    9  A    between atoms: C_22  and  O_24
REMARK   10  A    between atoms: C_25  and  O_27
REMARK   11  A    between atoms: C_28  and  O_30
REMARK   12  A    between atoms: C_31  and  O_33
REMARK                            x       y       z     vdW  Elec       q    Type
REMARK                         _______ _______ _______ _____ _____    ______ ____
ROOT
ATOM      1  S   UNL     1       7.320  -1.328  24.747  0.00  0.00    -0.118 S 
ENDROOT
BRANCH   1   6
ATOM      2  C   UNL     1       8.819   2.185  23.473  0.00  0.00    +0.176 C 
ATOM      3  C   UNL     1       7.717   2.597  22.494  0.00  0.00    +0.176 C 
ATOM      4  C   UNL     1       6.364   2.377  23.172  0.00  0.00    +0.177 C 
ATOM      5  C   UNL     1       6.224   0.979  23.786  0.00  0.00    +0.184 C 
ATOM      6  C   UNL     1       7.502   0.495  24.537  0.00  0.00    +0.207 C 
ATOM      7  O   UNL     1       8.682   0.778  23.782  0.00  0.00    -0.355 OA
BRANCH   3   8
ATOM      8  O   UNL     1       7.850   3.987  22.166  0.00  0.00    -0.386 OA
ATOM      9  H   UNL     1       8.656   4.073  21.624  0.00  0.00    +0.210 HD
ENDBRANCH   3   8
BRANCH   4  10
ATOM     10  O   UNL     1       5.325   2.606  22.202  0.00  0.00    -0.386 OA
ATOM     11  H   UNL     1       4.606   1.980  22.408  0.00  0.00    +0.210 HD
ENDBRANCH   4  10
BRANCH   5  12
ATOM     12  O   UNL     1       5.063   1.006  24.634  0.00  0.00    -0.386 OA
ATOM     13  H   UNL     1       4.824   1.935  24.817  0.00  0.00    +0.210 HD
ENDBRANCH   5  12
BRANCH   2  14
ATOM     14  C   UNL     1      10.209   2.470  22.894  0.00  0.00    +0.190 C 
BRANCH  14  15
ATOM     15  O   UNL     1      10.218   2.122  21.508  0.00  0.00    -0.392 OA
ATOM     16  H   UNL     1      10.722   2.822  21.056  0.00  0.00    +0.210 HD
ENDBRANCH  14  15
ENDBRANCH   2  14
ENDBRANCH   1   6
BRANCH   1  17
ATOM     17  C   UNL     1       6.960  -1.989  23.040  0.00  0.00    +0.111 C 
ATOM     18  C   UNL     1       5.773  -2.972  22.954  0.00  0.00    +0.163 C 
ATOM     19  C   UNL     1       6.062  -4.314  23.667  0.00  0.00    +0.200 C 
ATOM     20  C   UNL     1       7.478  -4.869  23.361  0.00  0.00    +0.279 C 
ATOM     21  O   UNL     1       8.507  -3.882  23.342  0.00  0.00    -0.342 OA
ATOM     22  C   UNL     1       8.198  -2.761  22.494  0.00  0.00    +0.162 C 
BRANCH  18  23
ATOM     23  O   UNL     1       5.481  -3.167  21.558  0.00  0.00    -0.388 OA
ATOM     24  H   UNL     1       5.937  -2.474  21.046  0.00  0.00    +0.210 HD
ENDBRANCH  18  23
BRANCH  19  25
ATOM     25  O   UNL     1       5.875  -4.206  25.086  0.00  0.00    -0.384 OA
ATOM     26  H   UNL     1       5.035  -3.738  25.260  0.00  0.00    +0.210 HD
ENDBRANCH  19  25
BRANCH  20  27
ATOM     27  O   UNL     1       7.491  -5.557  22.118  0.00  0.00    -0.365 OA
ATOM     28  H   UNL     1       7.715  -4.877  21.461  0.00  0.00    +0.213 HD
ENDBRANCH  20  27
BRANCH  22  29
ATOM     29  C   UNL     1       9.468  -1.913  22.344  0.00  0.00    +0.188 C 
BRANCH  29  30
ATOM     30  O   UNL     1       9.268  -0.920  21.329  0.00  0.00    -0.392 OA
ATOM     31  H   UNL     1       8.794  -1.379  20.611  0.00  0.00    +0.210 HD
ENDBRANCH  29  30
ENDBRANCH  22  29
ENDBRANCH   1  17
TORSDOF 12
ENDMDL
MODEL 5
REMARK VINA RESULT:      -6.1      2.022      3.435
REMARK  Name = 
REMARK  12 active torsions:
REMARK  status: ('A' for Active; 'I' for Inactive)
REMARK    1  A    between atoms: O_1  and  C_2
REMARK    2  A    between atoms: C_2  and  C_3
REMARK    3  A    between atoms: C_6  and  S_8
REMARK    4  A    between atoms: S_8  and  C_9
REMARK    5  A    between atoms: C_11  and  C_13
REMARK    6  A    between atoms: C_13  and  O_14
REMARK    7  A    between atoms: C_16  and  O_18
REMARK    8  A    between atoms: C_19  and  O_21
REMARK    9  A    between atoms: C_22  and  O_24
REMARK   10  A    between atoms: C_25  and  O_27
REMARK   11  A    between atoms: C_28  and  O_30
REMARK   12  A    between atoms: C_31  and  O_33
REMARK                            x       y       z     vdW  Elec       q    Type
REMARK                         _______ _______ _______ _____ _____    ______ ____
ROOT
ATOM      1  S   UNL     1       6.977  -1.614  22.985  0.00  0.00    -0.118 S 
ENDROOT
BRANCH   1   6
ATOM      2  C   UNL     1       8.051  -4.459  25.623  0.00  0.00    +0.176 C 
ATOM      3  C   UNL     1       7.240  -4.005  26.839  0.00  0.00    +0.176 C 
ATOM      4  C   UNL     1       5.818  -3.683  26.376  0.00  0.00    +0.177 C 
ATOM      5  C   UNL     1       5.784  -2.747  25.161  0.00  0.00    +0.184 C 
ATOM      6  C   UNL     1       6.843  -3.097  24.072  0.00  0.00    +0.207 C 
ATOM      7  O   UNL     1       8.113  -3.381  24.660  0.00  0.00    -0.355 OA
BRANCH   3   8
ATOM      8  O   UNL     1       7.183  -5.059  27.809  0.00  0.00    -0.386 OA
ATOM      9  H   UNL     1       7.134  -4.634  28.685  0.00  0.00    +0.210 HD
ENDBRANCH   3   8
BRANCH   4  10
ATOM     10  O   UNL     1       5.100  -3.101  27.480  0.00  0.00    -0.386 OA
ATOM     11  H   UNL     1       5.567  -3.375  28.292  0.00  0.00    +0.210 HD
ENDBRANCH   4  10
BRANCH   5  12
ATOM     12  O   UNL     1       4.439  -2.770  24.652  0.00  0.00    -0.386 OA
ATOM     13  H   UNL     1       4.375  -3.449  23.953  0.00  0.00    +0.210 HD
ENDBRANCH   5  12
BRANCH   2  14
ATOM     14  C   UNL     1       9.464  -4.892  26.030  0.00  0.00    +0.190 C 
BRANCH  14  15
ATOM     15  O   UNL     1      10.194  -5.267  24.860  0.00  0.00    -0.392 OA
ATOM     16  H   UNL     1      10.927  -4.631  24.782  0.00  0.00    +0.210 HD
ENDBRANCH  14  15
ENDBRANCH   2  14
ENDBRANCH   1   6
BRANCH   1  17
ATOM     17  C   UNL     1       8.395  -0.620  23.678  0.00  0.00    +0.111 C 
ATOM     18  C   UNL     1       8.053   0.839  24.051  0.00  0.00    +0.163 C 
ATOM     19  C   UNL     1       7.743   1.710  22.811  0.00  0.00    +0.200 C 
ATOM     20  C   UNL     1       8.741   1.482  21.645  0.00  0.00    +0.279 C 
ATOM     21  O   UNL     1       9.100   0.118  21.436  0.00  0.00    -0.342 OA
ATOM     22  C   UNL     1       9.550  -0.538  22.636  0.00  0.00    +0.162 C 
BRANCH  18  23
ATOM     23  O   UNL     1       9.168   1.361  24.798  0.00  0.00    -0.388 OA
ATOM     24  H   UNL     1       9.578   0.629  25.295  0.00  0.00    +0.210 HD
ENDBRANCH  18  23
BRANCH  19  25
ATOM     25  O   UNL     1       6.399   1.509  22.351  0.00  0.00    -0.384 OA
ATOM     26  H   UNL     1       6.047   2.358  22.019  0.00  0.00    +0.210 HD
ENDBRANCH  19  25
BRANCH  20  27
ATOM     27  O   UNL     1       9.928   2.235  21.844  0.00  0.00    -0.365 OA
ATOM     28  H   UNL     1       9.723   2.830  22.586  0.00  0.00    +0.213 HD
ENDBRANCH  20  27
BRANCH  22  29
ATOM     29  C   UNL     1      10.155  -1.892  22.242  0.00  0.00    +0.188 C 
BRANCH  29  30
ATOM     30  O   UNL     1      10.470  -2.642  23.423  0.00  0.00    -0.392 OA
ATOM     31  H   UNL     1      11.442  -2.616  23.490  0.00  0.00    +0.210 HD
ENDBRANCH  29  30
ENDBRANCH  22  29
ENDBRANCH   1  17
TORSDOF 12
ENDMDL
MODEL 6
REMARK VINA RESULT:      -6.1      1.335      2.761
REMARK  Name = 
REMARK  12 active torsions:
REMARK  status: ('A' for Active; 'I' for Inactive)
REMARK    1  A    between atoms: O_1  and  C_2
REMARK    2  A    between atoms: C_2  and  C_3
REMARK    3  A    between atoms: C_6  and  S_8
REMARK    4  A    between atoms: S_8  and  C_9
REMARK    5  A    between atoms: C_11  and  C_13
REMARK    6  A    between atoms: C_13  and  O_14
REMARK    7  A    between atoms: C_16  and  O_18
REMARK    8  A    between atoms: C_19  and  O_21
REMARK    9  A    between atoms: C_22  and  O_24
REMARK   10  A    between atoms: C_25  and  O_27
REMARK   11  A    between atoms: C_28  and  O_30
REMARK   12  A    between atoms: C_31  and  O_33
REMARK                            x       y       z     vdW  Elec       q    Type
REMARK                         _______ _______ _______ _____ _____    ______ ____
ROOT
ATOM      1  S   UNL     1       6.894  -0.974  23.101  0.00  0.00    -0.118 S 
ENDROOT
BRANCH   1   6
ATOM      2  C   UNL     1       7.407  -4.283  25.337  0.00  0.00    +0.176 C 
ATOM      3  C   UNL     1       5.951  -4.741  25.458  0.00  0.00    +0.176 C 
ATOM      4  C   UNL     1       5.307  -4.670  24.072  0.00  0.00    +0.177 C 
ATOM      5  C   UNL     1       5.527  -3.319  23.381  0.00  0.00    +0.184 C 
ATOM      6  C   UNL     1       6.975  -2.763  23.541  0.00  0.00    +0.207 C 
ATOM      7  O   UNL     1       7.438  -2.909  24.885  0.00  0.00    -0.355 OA
BRANCH   3   8
ATOM      8  O   UNL     1       5.904  -6.098  25.921  0.00  0.00    -0.386 OA
ATOM      9  H   UNL     1       6.782  -6.486  25.747  0.00  0.00    +0.210 HD
ENDBRANCH   3   8
BRANCH   4  10
ATOM     10  O   UNL     1       3.900  -4.942  24.210  0.00  0.00    -0.386 OA
ATOM     11  H   UNL     1       3.666  -5.570  23.500  0.00  0.00    +0.210 HD
ENDBRANCH   4  10
BRANCH   5  12
ATOM     12  O   UNL     1       5.149  -3.486  22.004  0.00  0.00    -0.386 OA
ATOM     13  H   UNL     1       4.226  -3.801  21.963  0.00  0.00    +0.210 HD
ENDBRANCH   5  12
BRANCH   2  14
ATOM     14  C   UNL     1       8.143  -4.421  26.675  0.00  0.00    +0.190 C 
BRANCH  14  15
ATOM     15  O   UNL     1       8.396  -5.804  26.928  0.00  0.00    -0.392 OA
ATOM     16  H   UNL     1       8.927  -6.125  26.178  0.00  0.00    +0.210 HD
ENDBRANCH  14  15
ENDBRANCH   2  14
ENDBRANCH   1   6
BRANCH   1  17
ATOM     17  C   UNL     1       8.471  -0.231  23.763  0.00  0.00    +0.111 C 
ATOM     18  C   UNL     1       8.382   1.263  24.146  0.00  0.00    +0.163 C 
ATOM     19  C   UNL     1       8.190   2.180  22.915  0.00  0.00    +0.200 C 
ATOM     20  C   UNL     1       9.110   1.798  21.726  0.00  0.00    +0.279 C 
ATOM     21  O   UNL     1       9.237   0.395  21.506  0.00  0.00    -0.342 OA
ATOM     22  C   UNL     1       9.600  -0.333  22.694  0.00  0.00    +0.162 C 
BRANCH  18  23
ATOM     23  O   UNL     1       9.583   1.590  24.868  0.00  0.00    -0.388 OA
ATOM     24  H   UNL     1      10.337   1.153  24.432  0.00  0.00    +0.210 HD
ENDBRANCH  18  23
BRANCH  19  25
ATOM     25  O   UNL     1       6.821   2.204  22.487  0.00  0.00    -0.384 OA
ATOM     26  H   UNL     1       6.297   1.619  23.067  0.00  0.00    +0.210 HD
ENDBRANCH  19  25
BRANCH  20  27
ATOM     27  O   UNL     1      10.410   2.346  21.899  0.00  0.00    -0.365 OA
ATOM     28  H   UNL     1      10.947   1.608  22.235  0.00  0.00    +0.213 HD
ENDBRANCH  20  27
BRANCH  22  29
ATOM     29  C   UNL     1       9.966  -1.765  22.283  0.00  0.00    +0.188 C 
BRANCH  29  30
ATOM     30  O   UNL     1      10.277  -2.538  23.451  0.00  0.00    -0.392 OA
ATOM     31  H   UNL     1      10.803  -3.291  23.126  0.00  0.00    +0.210 HD
ENDBRANCH  29  30
ENDBRANCH  22  29
ENDBRANCH   1  17
TORSDOF 12
ENDMDL
MODEL 7
REMARK VINA RESULT:      -6.0      1.742      3.268
REMARK  Name = 
REMARK  12 active torsions:
REMARK  status: ('A' for Active; 'I' for Inactive)
REMARK    1  A    between atoms: O_1  and  C_2
REMARK    2  A    between atoms: C_2  and  C_3
REMARK    3  A    between atoms: C_6  and  S_8
REMARK    4  A    between atoms: S_8  and  C_9
REMARK    5  A    between atoms: C_11  and  C_13
REMARK    6  A    between atoms: C_13  and  O_14
REMARK    7  A    between atoms: C_16  and  O_18
REMARK    8  A    between atoms: C_19  and  O_21
REMARK    9  A    between atoms: C_22  and  O_24
REMARK   10  A    between atoms: C_25  and  O_27
REMARK   11  A    between atoms: C_28  and  O_30
REMARK   12  A    between atoms: C_31  and  O_33
REMARK                            x       y       z     vdW  Elec       q    Type
REMARK                         _______ _______ _______ _____ _____    ______ ____
ROOT
ATOM      1  S   UNL     1       8.856  -1.365  22.382  0.00  0.00    -0.118 S 
ENDROOT
BRANCH   1   6
ATOM      2  C   UNL     1       8.650  -4.656  24.692  0.00  0.00    +0.176 C 
ATOM      3  C   UNL     1       7.306  -4.406  25.380  0.00  0.00    +0.176 C 
ATOM      4  C   UNL     1       6.294  -3.975  24.317  0.00  0.00    +0.177 C 
ATOM      5  C   UNL     1       6.811  -2.839  23.426  0.00  0.00    +0.184 C 
ATOM      6  C   UNL     1       8.297  -3.014  22.989  0.00  0.00    +0.207 C 
ATOM      7  O   UNL     1       9.113  -3.426  24.087  0.00  0.00    -0.355 OA
BRANCH   3   8
ATOM      8  O   UNL     1       6.841  -5.613  25.999  0.00  0.00    -0.386 OA
ATOM      9  H   UNL     1       7.270  -5.665  26.873  0.00  0.00    +0.210 HD
ENDBRANCH   3   8
BRANCH   4  10
ATOM     10  O   UNL     1       5.077  -3.582  24.978  0.00  0.00    -0.386 OA
ATOM     11  H   UNL     1       4.427  -3.389  24.277  0.00  0.00    +0.210 HD
ENDBRANCH   4  10
BRANCH   5  12
ATOM     12  O   UNL     1       5.914  -2.742  22.307  0.00  0.00    -0.386 OA
ATOM     13  H   UNL     1       5.514  -3.616  22.142  0.00  0.00    +0.210 HD
ENDBRANCH   5  12
BRANCH   2  14
ATOM     14  C   UNL     1       9.690  -5.185  25.687  0.00  0.00    +0.190 C 
BRANCH  14  15
ATOM     15  O   UNL     1       9.320  -4.784  27.008  0.00  0.00    -0.392 OA
ATOM     16  H   UNL     1      10.023  -5.109  27.597  0.00  0.00    +0.210 HD
ENDBRANCH  14  15
ENDBRANCH   2  14
ENDBRANCH   1   6
BRANCH   1  17
ATOM     17  C   UNL     1       7.960  -0.119  23.442  0.00  0.00    +0.111 C 
ATOM     18  C   UNL     1       7.206   0.982  22.665  0.00  0.00    +0.163 C 
ATOM     19  C   UNL     1       8.163   1.948  21.928  0.00  0.00    +0.200 C 
ATOM     20  C   UNL     1       9.373   2.383  22.797  0.00  0.00    +0.279 C 
ATOM     21  O   UNL     1       9.944   1.335  23.578  0.00  0.00    -0.342 OA
ATOM     22  C   UNL     1       8.972   0.623  24.365  0.00  0.00    +0.162 C 
BRANCH  18  23
ATOM     23  O   UNL     1       6.376   1.680  23.611  0.00  0.00    -0.388 OA
ATOM     24  H   UNL     1       5.475   1.744  23.245  0.00  0.00    +0.210 HD
ENDBRANCH  18  23
BRANCH  19  25
ATOM     25  O   UNL     1       8.626   1.387  20.691  0.00  0.00    -0.384 OA
ATOM     26  H   UNL     1       9.523   1.024  20.824  0.00  0.00    +0.210 HD
ENDBRANCH  19  25
BRANCH  20  27
ATOM     27  O   UNL     1       9.011   3.446  23.667  0.00  0.00    -0.365 OA
ATOM     28  H   UNL     1       8.180   3.157  24.080  0.00  0.00    +0.213 HD
ENDBRANCH  20  27
BRANCH  22  29
ATOM     29  C   UNL     1       9.726  -0.282  25.348  0.00  0.00    +0.188 C 
BRANCH  29  30
ATOM     30  O   UNL     1       8.799  -1.157  26.007  0.00  0.00    -0.392 OA
ATOM     31  H   UNL     1       9.263  -2.010  26.085  0.00  0.00    +0.210 HD
ENDBRANCH  29  30
ENDBRANCH  22  29
ENDBRANCH   1  17
TORSDOF 12
ENDMDL
MODEL 8
REMARK VINA RESULT:      -6.0      2.013      3.460
REMARK  Name = 
REMARK  12 active torsions:
REMARK  status: ('A' for Active; 'I' for Inactive)
REMARK    1  A    between atoms: O_1  and  C_2
REMARK    2  A    between atoms: C_2  and  C_3
REMARK    3  A    between atoms: C_6  and  S_8
REMARK    4  A    between atoms: S_8  and  C_9
REMARK    5  A    between atoms: C_11  and  C_13
REMARK    6  A    between atoms: C_13  and  O_14
REMARK    7  A    between atoms: C_16  and  O_18
REMARK    8  A    between atoms: C_19  and  O_21
REMARK    9  A    between atoms: C_22  and  O_24
REMARK   10  A    between atoms: C_25  and  O_27
REMARK   11  A    between atoms: C_28  and  O_30
REMARK   12  A    between atoms: C_31  and  O_33
REMARK                            x       y       z     vdW  Elec       q    Type
REMARK                         _______ _______ _______ _____ _____    ______ ____
ROOT
ATOM      1  S   UNL     1      10.136  -0.250  24.306  0.00  0.00    -0.118 S 
ENDROOT
BRANCH   1   6
ATOM      2  C   UNL     1       8.518  -3.837  25.158  0.00  0.00    +0.176 C 
ATOM      3  C   UNL     1       7.400  -3.872  24.113  0.00  0.00    +0.176 C 
ATOM      4  C   UNL     1       7.984  -3.432  22.769  0.00  0.00    +0.177 C 
ATOM      5  C   UNL     1       8.773  -2.121  22.861  0.00  0.00    +0.184 C 
ATOM      6  C   UNL     1       9.690  -2.030  24.119  0.00  0.00    +0.207 C 
ATOM      7  O   UNL     1       9.007  -2.482  25.289  0.00  0.00    -0.355 OA
BRANCH   3   8
ATOM      8  O   UNL     1       6.894  -5.208  23.983  0.00  0.00    -0.386 OA
ATOM      9  H   UNL     1       6.703  -5.346  23.036  0.00  0.00    +0.210 HD
ENDBRANCH   3   8
BRANCH   4  10
ATOM     10  O   UNL     1       6.906  -3.306  21.823  0.00  0.00    -0.386 OA
ATOM     11  H   UNL     1       6.081  -3.483  22.313  0.00  0.00    +0.210 HD
ENDBRANCH   4  10
BRANCH   5  12
ATOM     12  O   UNL     1       9.506  -1.984  21.632  0.00  0.00    -0.386 OA
ATOM     13  H   UNL     1       9.291  -2.736  21.047  0.00  0.00    +0.210 HD
ENDBRANCH   5  12
BRANCH   2  14
ATOM     14  C   UNL     1       8.025  -4.360  26.512  0.00  0.00    +0.190 C 
BRANCH  14  15
ATOM     15  O   UNL     1       8.272  -5.765  26.589  0.00  0.00    -0.392 OA
ATOM     16  H   UNL     1       8.331  -6.080  25.669  0.00  0.00    +0.210 HD
ENDBRANCH  14  15
ENDBRANCH   2  14
ENDBRANCH   1   6
BRANCH   1  17
ATOM     17  C   UNL     1       8.990   0.670  23.159  0.00  0.00    +0.111 C 
ATOM     18  C   UNL     1       9.660   1.768  22.304  0.00  0.00    +0.163 C 
ATOM     19  C   UNL     1      10.148   2.964  23.155  0.00  0.00    +0.200 C 
ATOM     20  C   UNL     1       9.112   3.414  24.219  0.00  0.00    +0.279 C 
ATOM     21  O   UNL     1       8.448   2.342  24.884  0.00  0.00    -0.342 OA
ATOM     22  C   UNL     1       7.873   1.384  23.977  0.00  0.00    +0.162 C 
BRANCH  18  23
ATOM     23  O   UNL     1       8.702   2.181  21.312  0.00  0.00    -0.388 OA
ATOM     24  H   UNL     1       8.804   1.612  20.527  0.00  0.00    +0.210 HD
ENDBRANCH  18  23
BRANCH  19  25
ATOM     25  O   UNL     1      11.406   2.683  23.785  0.00  0.00    -0.384 OA
ATOM     26  H   UNL     1      11.305   2.782  24.751  0.00  0.00    +0.210 HD
ENDBRANCH  19  25
BRANCH  20  27
ATOM     27  O   UNL     1       8.130   4.261  23.638  0.00  0.00    -0.365 OA
ATOM     28  H   UNL     1       7.333   3.708  23.573  0.00  0.00    +0.213 HD
ENDBRANCH  20  27
BRANCH  22  29
ATOM     29  C   UNL     1       6.971   0.443  24.786  0.00  0.00    +0.188 C 
BRANCH  29  30
ATOM     30  O   UNL     1       6.032  -0.196  23.911  0.00  0.00    -0.392 OA
ATOM     31  H   UNL     1       6.371  -0.038  23.012  0.00  0.00    +0.210 HD
ENDBRANCH  29  30
ENDBRANCH  22  29
ENDBRANCH   1  17
TORSDOF 12
ENDMDL
MODEL 9
REMARK VINA RESULT:      -5.9      1.720      2.735
REMARK  Name = 
REMARK  12 active torsions:
REMARK  status: ('A' for Active; 'I' for Inactive)
REMARK    1  A    between atoms: O_1  and  C_2
REMARK    2  A    between atoms: C_2  and  C_3
REMARK    3  A    between atoms: C_6  and  S_8
REMARK    4  A    between atoms: S_8  and  C_9
REMARK    5  A    between atoms: C_11  and  C_13
REMARK    6  A    between atoms: C_13  and  O_14
REMARK    7  A    between atoms: C_16  and  O_18
REMARK    8  A    between atoms: C_19  and  O_21
REMARK    9  A    between atoms: C_22  and  O_24
REMARK   10  A    between atoms: C_25  and  O_27
REMARK   11  A    between atoms: C_28  and  O_30
REMARK   12  A    between atoms: C_31  and  O_33
REMARK                            x       y       z     vdW  Elec       q    Type
REMARK                         _______ _______ _______ _____ _____    ______ ____
ROOT
ATOM      1  S   UNL     1       9.115  -3.412  24.255  0.00  0.00    -0.118 S 
ENDROOT
BRANCH   1   6
ATOM      2  C   UNL     1       6.135  -5.695  25.708  0.00  0.00    +0.176 C 
ATOM      3  C   UNL     1       4.971  -5.171  24.864  0.00  0.00    +0.176 C 
ATOM      4  C   UNL     1       5.431  -5.094  23.407  0.00  0.00    +0.177 C 
ATOM      5  C   UNL     1       6.764  -4.355  23.240  0.00  0.00    +0.184 C 
ATOM      6  C   UNL     1       7.825  -4.729  24.320  0.00  0.00    +0.207 C 
ATOM      7  O   UNL     1       7.242  -4.768  25.624  0.00  0.00    -0.355 OA
BRANCH   3   8
ATOM      8  O   UNL     1       3.860  -6.073  24.950  0.00  0.00    -0.386 OA
ATOM      9  H   UNL     1       3.796  -6.353  25.883  0.00  0.00    +0.210 HD
ENDBRANCH   3   8
BRANCH   4  10
ATOM     10  O   UNL     1       4.399  -4.450  22.636  0.00  0.00    -0.386 OA
ATOM     11  H   UNL     1       4.617  -3.499  22.616  0.00  0.00    +0.210 HD
ENDBRANCH   4  10
BRANCH   5  12
ATOM     12  O   UNL     1       7.224  -4.614  21.903  0.00  0.00    -0.386 OA
ATOM     13  H   UNL     1       6.845  -3.946  21.300  0.00  0.00    +0.210 HD
ENDBRANCH   5  12
BRANCH   2  14
ATOM     14  C   UNL     1       5.714  -5.890  27.170  0.00  0.00    +0.190 C 
BRANCH  14  15
ATOM     15  O   UNL     1       5.194  -7.211  27.334  0.00  0.00    -0.392 OA
ATOM     16  H   UNL     1       4.889  -7.270  28.257  0.00  0.00    +0.210 HD
ENDBRANCH  14  15
ENDBRANCH   2  14
ENDBRANCH   1   6
BRANCH   1  17
ATOM     17  C   UNL     1       8.176  -1.805  24.142  0.00  0.00    +0.111 C 
ATOM     18  C   UNL     1       8.189  -1.134  22.751  0.00  0.00    +0.163 C 
ATOM     19  C   UNL     1       9.591  -0.613  22.358  0.00  0.00    +0.200 C 
ATOM     20  C   UNL     1      10.310   0.125  23.517  0.00  0.00    +0.279 C 
ATOM     21  O   UNL     1      10.155  -0.491  24.793  0.00  0.00    -0.342 OA
ATOM     22  C   UNL     1       8.782  -0.762  25.128  0.00  0.00    +0.162 C 
BRANCH  18  23
ATOM     23  O   UNL     1       7.218  -0.071  22.781  0.00  0.00    -0.388 OA
ATOM     24  H   UNL     1       7.617   0.725  22.386  0.00  0.00    +0.210 HD
ENDBRANCH  18  23
BRANCH  19  25
ATOM     25  O   UNL     1      10.423  -1.670  21.859  0.00  0.00    -0.384 OA
ATOM     26  H   UNL     1      11.330  -1.327  21.735  0.00  0.00    +0.210 HD
ENDBRANCH  19  25
BRANCH  20  27
ATOM     27  O   UNL     1       9.864   1.471  23.610  0.00  0.00    -0.365 OA
ATOM     28  H   UNL     1       9.321   1.497  24.416  0.00  0.00    +0.213 HD
ENDBRANCH  20  27
BRANCH  22  29
ATOM     29  C   UNL     1       8.721  -1.167  26.606  0.00  0.00    +0.188 C 
BRANCH  29  30
ATOM     30  O   UNL     1       8.448  -0.013  27.412  0.00  0.00    -0.392 OA
ATOM     31  H   UNL     1       8.028  -0.359  28.221  0.00  0.00    +0.210 HD
ENDBRANCH  29  30
ENDBRANCH  22  29
ENDBRANCH   1  17
TORSDOF 12
ENDMDL
