MODEL 1
REMARK VINA RESULT:      -6.4      0.000      0.000
REMARK  Name = 
REMARK  4 active torsions:
REMARK  status: ('A' for Active; 'I' for Inactive)
REMARK    1  A    between atoms: N_8  and  C_9
REMARK    2  A    between atoms: C_12  and  C_14
REMARK    3  A    between atoms: C_14  and  O_15
REMARK    4  A    between atoms: C_17  and  O_19
REMARK                            x       y       z     vdW  Elec       q    Type
REMARK                         _______ _______ _______ _____ _____    ______ ____
ROOT
ATOM      1  N   UNL     1      10.451  -5.389  25.617  0.00  0.00    -0.329 N 
ATOM      2  H   UNL     1      10.703  -5.928  26.433  0.00  0.00    +0.145 HD
ATOM      3  H   UNL     1      11.121  -4.654  25.400  0.00  0.00    +0.145 HD
ATOM      4  C   UNL     1       9.170  -4.959  25.509  0.00  0.00    +0.195 A 
ATOM      5  N   UNL     1       8.190  -5.753  26.067  0.00  0.00    -0.293 N 
ATOM      6  H   UNL     1       8.433  -6.621  26.508  0.00  0.00    +0.172 HD
ATOM      7  C   UNL     1       6.824  -5.474  26.023  0.00  0.00    +0.280 A 
ATOM      8  O   UNL     1       5.996  -6.224  26.523  0.00  0.00    -0.265 OA
ATOM      9  C   UNL     1       6.541  -4.229  25.338  0.00  0.00    +0.172 A 
ATOM     10  N   UNL     1       5.360  -3.572  25.078  0.00  0.00    -0.229 NA
ATOM     11  C   UNL     1       5.725  -2.474  24.435  0.00  0.00    +0.203 A 
ATOM     12  N   UNL     1       7.084  -2.390  24.307  0.00  0.00    -0.286 N 
ATOM     13  C   UNL     1       7.611  -3.523  24.851  0.00  0.00    +0.171 A 
ATOM     14  N   UNL     1       8.926  -3.834  24.900  0.00  0.00    -0.196 NA
ENDROOT
BRANCH  12  15
ATOM     15  C   UNL     1       7.898  -1.317  23.783  0.00  0.00    +0.251 C 
ATOM     16  C   UNL     1       8.368  -0.324  24.849  0.00  0.00    +0.167 C 
ATOM     17  C   UNL     1       8.456   0.999  24.105  0.00  0.00    +0.069 C 
ATOM     18  C   UNL     1       7.942   0.697  22.701  0.00  0.00    +0.149 C 
ATOM     19  O   UNL     1       7.181  -0.529  22.815  0.00  0.00    -0.348 OA
BRANCH  16  20
ATOM     20  O   UNL     1       9.644  -0.659  25.384  0.00  0.00    -0.387 OA
ATOM     21  H   UNL     1      10.049   0.159  25.720  0.00  0.00    +0.210 HD
ENDBRANCH  16  20
BRANCH  18  22
ATOM     22  C   UNL     1       9.094   0.502  21.699  0.00  0.00    +0.187 C 
BRANCH  22  23
ATOM     23  O   UNL     1       9.697   1.756  21.393  0.00  0.00    -0.392 OA
ATOM     24  H   UNL     1       9.302   2.409  21.999  0.00  0.00    +0.210 HD
ENDBRANCH  22  23
ENDBRANCH  18  22
ENDBRANCH  12  15
TORSDOF 4
ENDMDL
MODEL 2
REMARK VINA RESULT:      -6.3      2.858      5.652
REMARK  Name = 
REMARK  4 active torsions:
REMARK  status: ('A' for Active; 'I' for Inactive)
REMARK    1  A    between atoms: N_8  and  C_9
REMARK    2  A    between atoms: C_12  and  C_14
REMARK    3  A    between atoms: C_14  and  O_15
REMARK    4  A    between atoms: C_17  and  O_19
REMARK                            x       y       z     vdW  Elec       q    Type
REMARK                         _______ _______ _______ _____ _____    ______ ____
ROOT
ATOM      1  N   UNL     1       8.689  -0.414  27.345  0.00  0.00    -0.329 N 
ATOM      2  H   UNL     1       9.396  -0.135  28.009  0.00  0.00    +0.145 HD
ATOM      3  H   UNL     1       8.195  -1.260  27.617  0.00  0.00    +0.145 HD
ATOM      4  C   UNL     1       9.016  -0.415  26.030  0.00  0.00    +0.195 A 
ATOM      5  N   UNL     1       9.943   0.517  25.610  0.00  0.00    -0.293 N 
ATOM      6  H   UNL     1      10.328   1.176  26.263  0.00  0.00    +0.172 HD
ATOM      7  C   UNL     1      10.371   0.670  24.292  0.00  0.00    +0.280 A 
ATOM      8  O   UNL     1      11.186   1.526  23.973  0.00  0.00    -0.265 OA
ATOM      9  C   UNL     1       9.747  -0.285  23.398  0.00  0.00    +0.172 A 
ATOM     10  N   UNL     1       9.881  -0.500  22.046  0.00  0.00    -0.229 NA
ATOM     11  C   UNL     1       9.074  -1.517  21.789  0.00  0.00    +0.203 A 
ATOM     12  N   UNL     1       8.462  -1.977  22.923  0.00  0.00    -0.286 N 
ATOM     13  C   UNL     1       8.860  -1.173  23.950  0.00  0.00    +0.171 A 
ATOM     14  N   UNL     1       8.457  -1.283  25.235  0.00  0.00    -0.196 NA
ENDROOT
BRANCH  12  15
ATOM     15  C   UNL     1       7.607  -3.127  23.111  0.00  0.00    +0.251 C 
ATOM     16  C   UNL     1       8.318  -4.327  23.742  0.00  0.00    +0.167 C 
ATOM     17  C   UNL     1       7.608  -5.530  23.145  0.00  0.00    +0.069 C 
ATOM     18  C   UNL     1       6.612  -4.946  22.148  0.00  0.00    +0.149 C 
ATOM     19  O   UNL     1       7.082  -3.608  21.860  0.00  0.00    -0.348 OA
BRANCH  16  20
ATOM     20  O   UNL     1       8.194  -4.350  25.160  0.00  0.00    -0.387 OA
ATOM     21  H   UNL     1       7.464  -3.755  25.403  0.00  0.00    +0.210 HD
ENDBRANCH  16  20
BRANCH  18  22
ATOM     22  C   UNL     1       5.188  -4.884  22.730  0.00  0.00    +0.187 C 
BRANCH  22  23
ATOM     23  O   UNL     1       4.413  -5.978  22.251  0.00  0.00    -0.392 OA
ATOM     24  H   UNL     1       3.858  -5.631  21.528  0.00  0.00    +0.210 HD
ENDBRANCH  22  23
ENDBRANCH  18  22
ENDBRANCH  12  15
TORSDOF 4
ENDMDL
MODEL 3
REMARK VINA RESULT:      -6.2      1.917      2.520
REMARK  Name = 
REMARK  4 active torsions:
REMARK  status: ('A' for Active; 'I' for Inactive)
REMARK    1  A    between atoms: N_8  and  C_9
REMARK    2  A    between atoms: C_12  and  C_14
REMARK    3  A    between atoms: C_14  and  O_15
REMARK    4  A    between atoms: C_17  and  O_19
REMARK                            x       y       z     vdW  Elec       q    Type
REMARK                         _______ _______ _______ _____ _____    ______ ____
ROOT
ATOM      1  N   UNL     1       7.163  -5.189  21.771  0.00  0.00    -0.329 N 
ATOM      2  H   UNL     1       7.420  -6.157  21.639  0.00  0.00    +0.145 HD
ATOM      3  H   UNL     1       7.388  -4.602  20.971  0.00  0.00    +0.145 HD
ATOM      4  C   UNL     1       7.492  -4.597  22.945  0.00  0.00    +0.195 A 
ATOM      5  N   UNL     1       7.524  -5.399  24.068  0.00  0.00    -0.293 N 
ATOM      6  H   UNL     1       7.287  -6.372  24.000  0.00  0.00    +0.172 HD
ATOM      7  C   UNL     1       7.817  -4.949  25.355  0.00  0.00    +0.280 A 
ATOM      8  O   UNL     1       7.816  -5.704  26.318  0.00  0.00    -0.265 OA
ATOM      9  C   UNL     1       8.111  -3.531  25.386  0.00  0.00    +0.172 A 
ATOM     10  N   UNL     1       8.456  -2.687  26.416  0.00  0.00    -0.229 NA
ATOM     11  C   UNL     1       8.618  -1.507  25.840  0.00  0.00    +0.203 A 
ATOM     12  N   UNL     1       8.424  -1.572  24.487  0.00  0.00    -0.286 N 
ATOM     13  C   UNL     1       8.067  -2.855  24.193  0.00  0.00    +0.171 A 
ATOM     14  N   UNL     1       7.764  -3.324  22.963  0.00  0.00    -0.196 NA
ENDROOT
BRANCH  12  15
ATOM     15  C   UNL     1       8.613  -0.557  23.476  0.00  0.00    +0.251 C 
ATOM     16  C   UNL     1      10.015  -0.553  22.862  0.00  0.00    +0.167 C 
ATOM     17  C   UNL     1      10.258   0.907  22.513  0.00  0.00    +0.069 C 
ATOM     18  C   UNL     1       9.031   1.647  23.035  0.00  0.00    +0.149 C 
ATOM     19  O   UNL     1       8.424   0.766  24.010  0.00  0.00    -0.348 OA
BRANCH  16  20
ATOM     20  O   UNL     1      10.098  -1.349  21.684  0.00  0.00    -0.387 OA
ATOM     21  H   UNL     1       9.670  -0.855  20.963  0.00  0.00    +0.210 HD
ENDBRANCH  16  20
BRANCH  18  22
ATOM     22  C   UNL     1       8.024   1.950  21.910  0.00  0.00    +0.187 C 
BRANCH  22  23
ATOM     23  O   UNL     1       8.508   1.448  20.669  0.00  0.00    -0.392 OA
ATOM     24  H   UNL     1       9.016   0.641  20.874  0.00  0.00    +0.210 HD
ENDBRANCH  22  23
ENDBRANCH  18  22
ENDBRANCH  12  15
TORSDOF 4
ENDMDL
MODEL 4
REMARK VINA RESULT:      -6.1      2.324      5.708
REMARK  Name = 
REMARK  4 active torsions:
REMARK  status: ('A' for Active; 'I' for Inactive)
REMARK    1  A    between atoms: N_8  and  C_9
REMARK    2  A    between atoms: C_12  and  C_14
REMARK    3  A    between atoms: C_14  and  O_15
REMARK    4  A    between atoms: C_17  and  O_19
REMARK                            x       y       z     vdW  Elec       q    Type
REMARK                         _______ _______ _______ _____ _____    ______ ____
ROOT
ATOM      1  N   UNL     1       9.600  -0.940  20.979  0.00  0.00    -0.329 N 
ATOM      2  H   UNL     1       9.835  -0.030  20.610  0.00  0.00    +0.145 HD
ATOM      3  H   UNL     1       8.879  -1.416  20.444  0.00  0.00    +0.145 HD
ATOM      4  C   UNL     1       9.401  -1.053  22.315  0.00  0.00    +0.195 A 
ATOM      5  N   UNL     1      10.122  -0.207  23.134  0.00  0.00    -0.293 N 
ATOM      6  H   UNL     1      10.779   0.440  22.737  0.00  0.00    +0.172 HD
ATOM      7  C   UNL     1      10.058  -0.208  24.527  0.00  0.00    +0.280 A 
ATOM      8  O   UNL     1      10.733   0.556  25.204  0.00  0.00    -0.265 OA
ATOM      9  C   UNL     1       9.121  -1.191  25.032  0.00  0.00    +0.172 A 
ATOM     10  N   UNL     1       8.739  -1.522  26.311  0.00  0.00    -0.229 NA
ATOM     11  C   UNL     1       7.840  -2.481  26.152  0.00  0.00    +0.203 A 
ATOM     12  N   UNL     1       7.612  -2.748  24.830  0.00  0.00    -0.286 N 
ATOM     13  C   UNL     1       8.451  -1.952  24.108  0.00  0.00    +0.171 A 
ATOM     14  N   UNL     1       8.551  -1.933  22.760  0.00  0.00    -0.196 NA
ENDROOT
BRANCH  12  15
ATOM     15  C   UNL     1       6.640  -3.626  24.218  0.00  0.00    +0.251 C 
ATOM     16  C   UNL     1       5.395  -2.901  23.702  0.00  0.00    +0.167 C 
ATOM     17  C   UNL     1       4.282  -3.924  23.864  0.00  0.00    +0.069 C 
ATOM     18  C   UNL     1       4.941  -5.119  24.545  0.00  0.00    +0.149 C 
ATOM     19  O   UNL     1       6.153  -4.610  25.148  0.00  0.00    -0.348 OA
BRANCH  16  20
ATOM     20  O   UNL     1       5.509  -2.526  22.333  0.00  0.00    -0.387 OA
ATOM     21  H   UNL     1       5.156  -1.624  22.243  0.00  0.00    +0.210 HD
ENDBRANCH  16  20
BRANCH  18  22
ATOM     22  C   UNL     1       5.288  -6.232  23.539  0.00  0.00    +0.187 C 
BRANCH  22  23
ATOM     23  O   UNL     1       4.601  -7.432  23.878  0.00  0.00    -0.392 OA
ATOM     24  H   UNL     1       4.662  -7.524  24.846  0.00  0.00    +0.210 HD
ENDBRANCH  22  23
ENDBRANCH  18  22
ENDBRANCH  12  15
TORSDOF 4
ENDMDL
MODEL 5
REMARK VINA RESULT:      -6.0      2.340      2.724
REMARK  Name = 
REMARK  4 active torsions:
REMARK  status: ('A' for Active; 'I' for Inactive)
REMARK    1  A    between atoms: N_8  and  C_9
REMARK    2  A    between atoms: C_12  and  C_14
REMARK    3  A    between atoms: C_14  and  O_15
REMARK    4  A    between atoms: C_17  and  O_19
REMARK                            x       y       z     vdW  Elec       q    Type
REMARK                         _______ _______ _______ _____ _____    ______ ____
ROOT
ATOM      1  N   UNL     1       6.825  -5.869  27.581  0.00  0.00    -0.329 N 
ATOM      2  H   UNL     1       6.219  -6.189  28.322  0.00  0.00    +0.145 HD
ATOM      3  H   UNL     1       7.361  -5.041  27.831  0.00  0.00    +0.145 HD
ATOM      4  C   UNL     1       6.311  -5.784  26.330  0.00  0.00    +0.195 A 
ATOM      5  N   UNL     1       5.325  -6.689  25.992  0.00  0.00    -0.293 N 
ATOM      6  H   UNL     1       5.033  -7.388  26.651  0.00  0.00    +0.172 HD
ATOM      7  C   UNL     1       4.709  -6.758  24.743  0.00  0.00    +0.280 A 
ATOM      8  O   UNL     1       3.849  -7.593  24.493  0.00  0.00    -0.265 OA
ATOM      9  C   UNL     1       5.204  -5.749  23.829  0.00  0.00    +0.172 A 
ATOM     10  N   UNL     1       4.878  -5.449  22.528  0.00  0.00    -0.229 NA
ATOM     11  C   UNL     1       5.647  -4.417  22.221  0.00  0.00    +0.203 A 
ATOM     12  N   UNL     1       6.421  -4.029  23.280  0.00  0.00    -0.286 N 
ATOM     13  C   UNL     1       6.169  -4.896  24.301  0.00  0.00    +0.171 A 
ATOM     14  N   UNL     1       6.756  -4.868  25.519  0.00  0.00    -0.196 NA
ENDROOT
BRANCH  12  15
ATOM     15  C   UNL     1       7.304  -2.892  23.413  0.00  0.00    +0.251 C 
ATOM     16  C   UNL     1       6.646  -1.675  24.067  0.00  0.00    +0.167 C 
ATOM     17  C   UNL     1       7.347  -0.489  23.423  0.00  0.00    +0.069 C 
ATOM     18  C   UNL     1       8.280  -1.100  22.383  0.00  0.00    +0.149 C 
ATOM     19  O   UNL     1       7.774  -2.432  22.133  0.00  0.00    -0.348 OA
BRANCH  16  20
ATOM     20  O   UNL     1       6.841  -1.640  25.477  0.00  0.00    -0.387 OA
ATOM     21  H   UNL     1       7.702  -1.220  25.646  0.00  0.00    +0.210 HD
ENDBRANCH  16  20
BRANCH  18  22
ATOM     22  C   UNL     1       9.731  -1.182  22.894  0.00  0.00    +0.187 C 
BRANCH  22  23
ATOM     23  O   UNL     1      10.576  -1.731  21.888  0.00  0.00    -0.392 OA
ATOM     24  H   UNL     1      10.646  -1.059  21.186  0.00  0.00    +0.210 HD
ENDBRANCH  22  23
ENDBRANCH  18  22
ENDBRANCH  12  15
TORSDOF 4
ENDMDL
MODEL 6
REMARK VINA RESULT:      -6.0      3.260      6.574
REMARK  Name = 
REMARK  4 active torsions:
REMARK  status: ('A' for Active; 'I' for Inactive)
REMARK    1  A    between atoms: N_8  and  C_9
REMARK    2  A    between atoms: C_12  and  C_14
REMARK    3  A    between atoms: C_14  and  O_15
REMARK    4  A    between atoms: C_17  and  O_19
REMARK                            x       y       z     vdW  Elec       q    Type
REMARK                         _______ _______ _______ _____ _____    ______ ____
ROOT
ATOM      1  N   UNL     1       6.604   3.349  21.765  0.00  0.00    -0.329 N 
ATOM      2  H   UNL     1       6.463   4.291  22.100  0.00  0.00    +0.145 HD
ATOM      3  H   UNL     1       5.748   2.799  21.742  0.00  0.00    +0.145 HD
ATOM      4  C   UNL     1       7.649   2.645  22.264  0.00  0.00    +0.195 A 
ATOM      5  N   UNL     1       8.772   3.358  22.629  0.00  0.00    -0.293 N 
ATOM      6  H   UNL     1       8.803   4.353  22.500  0.00  0.00    +0.172 HD
ATOM      7  C   UNL     1       9.942   2.790  23.134  0.00  0.00    +0.280 A 
ATOM      8  O   UNL     1      10.915   3.472  23.428  0.00  0.00    -0.265 OA
ATOM      9  C   UNL     1       9.843   1.350  23.257  0.00  0.00    +0.172 A 
ATOM     10  N   UNL     1      10.733   0.405  23.711  0.00  0.00    -0.229 NA
ATOM     11  C   UNL     1      10.083  -0.743  23.605  0.00  0.00    +0.203 A 
ATOM     12  N   UNL     1       8.810  -0.563  23.137  0.00  0.00    -0.286 N 
ATOM     13  C   UNL     1       8.660   0.768  22.880  0.00  0.00    +0.171 A 
ATOM     14  N   UNL     1       7.548   1.352  22.380  0.00  0.00    -0.196 NA
ENDROOT
BRANCH  12  15
ATOM     15  C   UNL     1       7.737  -1.519  22.984  0.00  0.00    +0.251 C 
ATOM     16  C   UNL     1       6.795  -1.586  24.188  0.00  0.00    +0.167 C 
ATOM     17  C   UNL     1       6.329  -3.032  24.209  0.00  0.00    +0.069 C 
ATOM     18  C   UNL     1       7.103  -3.713  23.085  0.00  0.00    +0.149 C 
ATOM     19  O   UNL     1       8.238  -2.857  22.814  0.00  0.00    -0.348 OA
BRANCH  16  20
ATOM     20  O   UNL     1       5.672  -0.721  24.053  0.00  0.00    -0.387 OA
ATOM     21  H   UNL     1       5.948   0.039  23.511  0.00  0.00    +0.210 HD
ENDBRANCH  16  20
BRANCH  18  22
ATOM     22  C   UNL     1       6.250  -3.864  21.812  0.00  0.00    +0.187 C 
BRANCH  22  23
ATOM     23  O   UNL     1       4.866  -3.888  22.148  0.00  0.00    -0.392 OA
ATOM     24  H   UNL     1       4.702  -4.742  22.590  0.00  0.00    +0.210 HD
ENDBRANCH  22  23
ENDBRANCH  18  22
ENDBRANCH  12  15
TORSDOF 4
ENDMDL
MODEL 7
REMARK VINA RESULT:      -5.9      4.944      7.771
REMARK  Name = 
REMARK  4 active torsions:
REMARK  status: ('A' for Active; 'I' for Inactive)
REMARK    1  A    between atoms: N_8  and  C_9
REMARK    2  A    between atoms: C_12  and  C_14
REMARK    3  A    between atoms: C_14  and  O_15
REMARK    4  A    between atoms: C_17  and  O_19
REMARK                            x       y       z     vdW  Elec       q    Type
REMARK                         _______ _______ _______ _____ _____    ______ ____
ROOT
ATOM      1  N   UNL     1      12.513   5.324  22.629  0.00  0.00    -0.329 N 
ATOM      2  H   UNL     1      12.621   6.236  22.210  0.00  0.00    +0.145 HD
ATOM      3  H   UNL     1      12.709   4.561  21.985  0.00  0.00    +0.145 HD
ATOM      4  C   UNL     1      11.403   5.090  23.371  0.00  0.00    +0.195 A 
ATOM      5  N   UNL     1      10.862   6.164  24.049  0.00  0.00    -0.293 N 
ATOM      6  H   UNL     1      11.302   7.065  24.002  0.00  0.00    +0.172 HD
ATOM      7  C   UNL     1       9.741   6.094  24.876  0.00  0.00    +0.280 A 
ATOM      8  O   UNL     1       9.313   7.077  25.466  0.00  0.00    -0.265 OA
ATOM      9  C   UNL     1       9.181   4.759  24.930  0.00  0.00    +0.172 A 
ATOM     10  N   UNL     1       8.091   4.247  25.595  0.00  0.00    -0.229 NA
ATOM     11  C   UNL     1       8.062   2.969  25.251  0.00  0.00    +0.203 A 
ATOM     12  N   UNL     1       9.063   2.658  24.372  0.00  0.00    -0.286 N 
ATOM     13  C   UNL     1       9.803   3.788  24.188  0.00  0.00    +0.171 A 
ATOM     14  N   UNL     1      10.901   3.889  23.407  0.00  0.00    -0.196 NA
ENDROOT
BRANCH  12  15
ATOM     15  C   UNL     1       9.321   1.424  23.664  0.00  0.00    +0.251 C 
ATOM     16  C   UNL     1       8.792   1.417  22.228  0.00  0.00    +0.167 C 
ATOM     17  C   UNL     1       8.433  -0.039  21.977  0.00  0.00    +0.069 C 
ATOM     18  C   UNL     1       8.686  -0.742  23.306  0.00  0.00    +0.149 C 
ATOM     19  O   UNL     1       8.694   0.300  24.309  0.00  0.00    -0.348 OA
BRANCH  16  20
ATOM     20  O   UNL     1       9.770   1.840  21.284  0.00  0.00    -0.387 OA
ATOM     21  H   UNL     1       9.676   2.803  21.173  0.00  0.00    +0.210 HD
ENDBRANCH  16  20
BRANCH  18  22
ATOM     22  C   UNL     1      10.037  -1.482  23.314  0.00  0.00    +0.187 C 
BRANCH  22  23
ATOM     23  O   UNL     1      10.514  -1.649  21.983  0.00  0.00    -0.392 OA
ATOM     24  H   UNL     1      10.524  -0.762  21.578  0.00  0.00    +0.210 HD
ENDBRANCH  22  23
ENDBRANCH  18  22
ENDBRANCH  12  15
TORSDOF 4
ENDMDL
MODEL 8
REMARK VINA RESULT:      -5.9      1.909      3.188
REMARK  Name = 
REMARK  4 active torsions:
REMARK  status: ('A' for Active; 'I' for Inactive)
REMARK    1  A    between atoms: N_8  and  C_9
REMARK    2  A    between atoms: C_12  and  C_14
REMARK    3  A    between atoms: C_14  and  O_15
REMARK    4  A    between atoms: C_17  and  O_19
REMARK                            x       y       z     vdW  Elec       q    Type
REMARK                         _______ _______ _______ _____ _____    ______ ____
ROOT
ATOM      1  N   UNL     1       5.650  -1.573  27.184  0.00  0.00    -0.329 N 
ATOM      2  H   UNL     1       4.856  -2.156  27.405  0.00  0.00    +0.145 HD
ATOM      3  H   UNL     1       5.389  -0.657  26.828  0.00  0.00    +0.145 HD
ATOM      4  C   UNL     1       6.667  -2.124  26.476  0.00  0.00    +0.195 A 
ATOM      5  N   UNL     1       6.905  -3.471  26.659  0.00  0.00    -0.293 N 
ATOM      6  H   UNL     1       6.353  -3.997  27.312  0.00  0.00    +0.172 HD
ATOM      7  C   UNL     1       7.924  -4.187  26.032  0.00  0.00    +0.280 A 
ATOM      8  O   UNL     1       8.098  -5.380  26.244  0.00  0.00    -0.265 OA
ATOM      9  C   UNL     1       8.705  -3.359  25.136  0.00  0.00    +0.172 A 
ATOM     10  N   UNL     1       9.775  -3.645  24.321  0.00  0.00    -0.229 NA
ATOM     11  C   UNL     1      10.057  -2.497  23.726  0.00  0.00    +0.203 A 
ATOM     12  N   UNL     1       9.193  -1.505  24.103  0.00  0.00    -0.286 N 
ATOM     13  C   UNL     1       8.347  -2.040  25.029  0.00  0.00    +0.171 A 
ATOM     14  N   UNL     1       7.358  -1.374  25.666  0.00  0.00    -0.196 NA
ENDROOT
BRANCH  12  15
ATOM     15  C   UNL     1       9.071  -0.151  23.615  0.00  0.00    +0.251 C 
ATOM     16  C   UNL     1       8.055   0.007  22.481  0.00  0.00    +0.167 C 
ATOM     17  C   UNL     1       8.616   1.142  21.640  0.00  0.00    +0.069 C 
ATOM     18  C   UNL     1       9.952   1.490  22.289  0.00  0.00    +0.149 C 
ATOM     19  O   UNL     1      10.317   0.337  23.084  0.00  0.00    -0.348 OA
BRANCH  16  20
ATOM     20  O   UNL     1       6.758   0.354  22.954  0.00  0.00    -0.387 OA
ATOM     21  H   UNL     1       6.143   0.296  22.201  0.00  0.00    +0.210 HD
ENDBRANCH  16  20
BRANCH  18  22
ATOM     22  C   UNL     1       9.844   2.731  23.193  0.00  0.00    +0.187 C 
BRANCH  22  23
ATOM     23  O   UNL     1      10.926   3.622  22.937  0.00  0.00    -0.392 OA
ATOM     24  H   UNL     1      10.553   4.523  22.948  0.00  0.00    +0.210 HD
ENDBRANCH  22  23
ENDBRANCH  18  22
ENDBRANCH  12  15
TORSDOF 4
ENDMDL
MODEL 9
REMARK VINA RESULT:      -5.8      3.085      4.451
REMARK  Name = 
REMARK  4 active torsions:
REMARK  status: ('A' for Active; 'I' for Inactive)
REMARK    1  A    between atoms: N_8  and  C_9
REMARK    2  A    between atoms: C_12  and  C_14
REMARK    3  A    between atoms: C_14  and  O_15
REMARK    4  A    between atoms: C_17  and  O_19
REMARK                            x       y       z     vdW  Elec       q    Type
REMARK                         _______ _______ _______ _____ _____    ______ ____
ROOT
ATOM      1  N   UNL     1       8.730  -0.315  27.197  0.00  0.00    -0.329 N 
ATOM      2  H   UNL     1       8.237  -1.005  27.745  0.00  0.00    +0.145 HD
ATOM      3  H   UNL     1       8.371   0.628  27.324  0.00  0.00    +0.145 HD
ATOM      4  C   UNL     1       8.978  -0.594  25.894  0.00  0.00    +0.195 A 
ATOM      5  N   UNL     1       9.170  -1.919  25.560  0.00  0.00    -0.293 N 
ATOM      6  H   UNL     1       9.148  -2.628  26.271  0.00  0.00    +0.172 HD
ATOM      7  C   UNL     1       9.460  -2.378  24.275  0.00  0.00    +0.280 A 
ATOM      8  O   UNL     1       9.636  -3.565  24.039  0.00  0.00    -0.265 OA
ATOM      9  C   UNL     1       9.516  -1.300  23.308  0.00  0.00    +0.172 A 
ATOM     10  N   UNL     1       9.754  -1.294  21.954  0.00  0.00    -0.229 NA
ATOM     11  C   UNL     1       9.662  -0.021  21.605  0.00  0.00    +0.203 A 
ATOM     12  N   UNL     1       9.344   0.775  22.672  0.00  0.00    -0.286 N 
ATOM     13  C   UNL     1       9.282  -0.030  23.770  0.00  0.00    +0.171 A 
ATOM     14  N   UNL     1       9.018   0.379  25.031  0.00  0.00    -0.196 NA
ENDROOT
BRANCH  12  15
ATOM     15  C   UNL     1       9.038   2.187  22.713  0.00  0.00    +0.251 C 
ATOM     16  C   UNL     1      10.004   3.002  23.575  0.00  0.00    +0.167 C 
ATOM     17  C   UNL     1       9.146   4.131  24.121  0.00  0.00    +0.069 C 
ATOM     18  C   UNL     1       7.737   3.834  23.618  0.00  0.00    +0.149 C 
ATOM     19  O   UNL     1       7.731   2.431  23.266  0.00  0.00    -0.348 OA
BRANCH  16  20
ATOM     20  O   UNL     1      11.086   3.541  22.823  0.00  0.00    -0.387 OA
ATOM     21  H   UNL     1      11.654   2.800  22.549  0.00  0.00    +0.210 HD
ENDBRANCH  16  20
BRANCH  18  22
ATOM     22  C   UNL     1       7.380   4.682  22.383  0.00  0.00    +0.187 C 
BRANCH  22  23
ATOM     23  O   UNL     1       8.238   5.815  22.299  0.00  0.00    -0.392 OA
ATOM     24  H   UNL     1       7.808   6.527  22.808  0.00  0.00    +0.210 HD
ENDBRANCH  22  23
ENDBRANCH  18  22
ENDBRANCH  12  15
TORSDOF 4
ENDMDL
