MODEL 1
REMARK VINA RESULT:      -6.4      0.000      0.000
REMARK  Name = 
REMARK  11 active torsions:
REMARK  status: ('A' for Active; 'I' for Inactive)
REMARK    1  A    between atoms: O_1  and  C_2
REMARK    2  A    between atoms: C_4  and  O_6
REMARK    3  A    between atoms: C_7  and  N_22
REMARK    4  A    between atoms: C_10  and  C_12
REMARK    5  A    between atoms: C_12  and  O_13
REMARK    6  A    between atoms: O_13  and  P_14
REMARK    7  A    between atoms: P_14  and  O_15
REMARK    8  A    between atoms: P_14  and  O_17
REMARK    9  A    between atoms: O_17  and  P_18
REMARK   10  A    between atoms: P_18  and  O_19
REMARK   11  A    between atoms: P_18  and  O_20
REMARK                            x       y       z     vdW  Elec       q    Type
REMARK                         _______ _______ _______ _____ _____    ______ ____
ROOT
ATOM      1  C   UNL     1       9.875  -0.948  25.178  0.00  0.00    +0.178 C 
ATOM      2  C   UNL     1       8.469  -1.418  25.563  0.00  0.00    +0.178 C 
ATOM      3  O   UNL     1       7.658  -1.381  24.363  0.00  0.00    -0.346 OA
ATOM      4  C   UNL     1       8.460  -0.886  23.262  0.00  0.00    +0.255 C 
ATOM      5  C   UNL     1       9.922  -1.159  23.675  0.00  0.00    +0.195 C 
ENDROOT
BRANCH   4   6
ATOM      6  N   UNL     1       8.131   0.534  22.988  0.00  0.00    -0.271 N 
ATOM      7  C   UNL     1       8.901   1.196  22.027  0.00  0.00    +0.331 A 
ATOM      8  O   UNL     1       9.865   0.694  21.460  0.00  0.00    -0.246 OA
ATOM      9  N   UNL     1       8.526   2.488  21.751  0.00  0.00    -0.275 N 
ATOM     10  H   UNL     1       9.074   2.979  21.062  0.00  0.00    +0.173 HD
ATOM     11  C   UNL     1       7.424   3.127  22.230  0.00  0.00    +0.254 A 
ATOM     12  O   UNL     1       7.094   4.255  21.886  0.00  0.00    -0.268 OA
ATOM     13  C   UNL     1       6.618   2.367  23.193  0.00  0.00    +0.088 A 
ATOM     14  C   UNL     1       6.993   1.123  23.515  0.00  0.00    +0.098 A 
ENDBRANCH   4   6
BRANCH   1  15
ATOM     15  O   UNL     1      10.055   0.444  25.474  0.00  0.00    -0.386 OA
ATOM     16  H   UNL     1      10.775   0.538  26.120  0.00  0.00    +0.210 HD
ENDBRANCH   1  15
BRANCH   5  17
ATOM     17  O   UNL     1      10.271  -2.525  23.400  0.00  0.00    -0.385 OA
ATOM     18  H   UNL     1      10.221  -3.007  24.243  0.00  0.00    +0.210 HD
ENDBRANCH   5  17
BRANCH   2  19
ATOM     19  C   UNL     1       8.415  -2.826  26.178  0.00  0.00    +0.206 C 
BRANCH  19  20
ATOM     20  O   UNL     1       7.497  -3.667  25.477  0.00  0.00    -0.284 OA
BRANCH  20  21
ATOM     21  P   UNL     1       8.139  -5.057  24.856  0.00  0.00    +0.483 P 
ATOM     22  O   UNL     1       9.660  -4.908  24.828  0.00  0.00    -0.227 OA
BRANCH  21  23
ATOM     23  O   UNL     1       8.283  -5.698  26.456  0.00  0.00    -0.302 OA
ATOM     24  H   UNL     1       7.363  -5.957  26.668  0.00  0.00    +0.222 HD
ENDBRANCH  21  23
BRANCH  21  25
ATOM     25  O   UNL     1       7.995  -4.417  23.255  0.00  0.00    -0.186 OA
BRANCH  25  26
ATOM     26  P   UNL     1       6.470  -4.881  22.583  0.00  0.00    +0.481 P 
ATOM     27  O   UNL     1       5.106  -5.297  21.980  0.00  0.00    -0.227 OA
BRANCH  26  28
ATOM     28  O   UNL     1       5.981  -3.401  23.087  0.00  0.00    -0.302 OA
ATOM     29  H   UNL     1       6.493  -3.118  23.866  0.00  0.00    +0.222 HD
ENDBRANCH  26  28
BRANCH  26  30
ATOM     30  O   UNL     1       6.149  -5.625  24.008  0.00  0.00    -0.302 OA
ATOM     31  H   UNL     1       5.201  -5.425  24.170  0.00  0.00    +0.222 HD
ENDBRANCH  26  30
ENDBRANCH  25  26
ENDBRANCH  21  25
ENDBRANCH  20  21
ENDBRANCH  19  20
ENDBRANCH   2  19
TORSDOF 11
ENDMDL
MODEL 2
REMARK VINA RESULT:      -6.3      3.400      7.094
REMARK  Name = 
REMARK  11 active torsions:
REMARK  status: ('A' for Active; 'I' for Inactive)
REMARK    1  A    between atoms: O_1  and  C_2
REMARK    2  A    between atoms: C_4  and  O_6
REMARK    3  A    between atoms: C_7  and  N_22
REMARK    4  A    between atoms: C_10  and  C_12
REMARK    5  A    between atoms: C_12  and  O_13
REMARK    6  A    between atoms: O_13  and  P_14
REMARK    7  A    between atoms: P_14  and  O_15
REMARK    8  A    between atoms: P_14  and  O_17
REMARK    9  A    between atoms: O_17  and  P_18
REMARK   10  A    between atoms: P_18  and  O_19
REMARK   11  A    between atoms: P_18  and  O_20
REMARK                            x       y       z     vdW  Elec       q    Type
REMARK                         _______ _______ _______ _____ _____    ______ ____
ROOT
ATOM      1  C   UNL     1       7.682  -2.289  22.415  0.00  0.00    +0.178 C 
ATOM      2  C   UNL     1       7.285  -1.077  23.264  0.00  0.00    +0.178 C 
ATOM      3  O   UNL     1       8.110  -1.097  24.455  0.00  0.00    -0.346 OA
ATOM      4  C   UNL     1       8.971  -2.262  24.418  0.00  0.00    +0.255 C 
ATOM      5  C   UNL     1       9.067  -2.644  22.927  0.00  0.00    +0.195 C 
ENDROOT
BRANCH   4   6
ATOM      6  N   UNL     1       8.440  -3.319  25.313  0.00  0.00    -0.271 N 
ATOM      7  C   UNL     1       9.204  -4.483  25.454  0.00  0.00    +0.331 A 
ATOM      8  O   UNL     1      10.237  -4.701  24.833  0.00  0.00    -0.246 OA
ATOM      9  N   UNL     1       8.715  -5.411  26.341  0.00  0.00    -0.275 N 
ATOM     10  H   UNL     1       9.254  -6.256  26.451  0.00  0.00    +0.173 HD
ATOM     11  C   UNL     1       7.643  -5.253  27.164  0.00  0.00    +0.254 A 
ATOM     12  O   UNL     1       7.301  -6.085  27.994  0.00  0.00    -0.268 OA
ATOM     13  C   UNL     1       6.909  -3.990  27.015  0.00  0.00    +0.088 A 
ATOM     14  C   UNL     1       7.338  -3.091  26.122  0.00  0.00    +0.098 A 
ENDBRANCH   4   6
BRANCH   1  15
ATOM     15  O   UNL     1       6.791  -3.391  22.637  0.00  0.00    -0.386 OA
ATOM     16  H   UNL     1       5.882  -3.104  22.445  0.00  0.00    +0.210 HD
ENDBRANCH   1  15
BRANCH   5  17
ATOM     17  O   UNL     1      10.041  -1.822  22.263  0.00  0.00    -0.385 OA
ATOM     18  H   UNL     1      10.208  -2.225  21.393  0.00  0.00    +0.210 HD
ENDBRANCH   5  17
BRANCH   2  19
ATOM     19  C   UNL     1       7.440   0.277  22.553  0.00  0.00    +0.206 C 
BRANCH  19  20
ATOM     20  O   UNL     1       8.160   1.211  23.361  0.00  0.00    -0.284 OA
BRANCH  20  21
ATOM     21  P   UNL     1       9.532   1.829  22.679  0.00  0.00    +0.483 P 
ATOM     22  O   UNL     1      10.698   0.905  23.034  0.00  0.00    -0.227 OA
BRANCH  21  23
ATOM     23  O   UNL     1       9.262   0.861  21.272  0.00  0.00    -0.302 OA
ATOM     24  H   UNL     1       9.673   1.395  20.561  0.00  0.00    +0.222 HD
ENDBRANCH  21  23
BRANCH  21  25
ATOM     25  O   UNL     1       9.803   2.797  24.087  0.00  0.00    -0.186 OA
BRANCH  25  26
ATOM     26  P   UNL     1       9.010   4.323  23.899  0.00  0.00    +0.481 P 
ATOM     27  O   UNL     1       8.301   5.690  23.734  0.00  0.00    -0.227 OA
BRANCH  26  28
ATOM     28  O   UNL     1       8.610   3.750  22.418  0.00  0.00    -0.302 OA
ATOM     29  H   UNL     1       8.641   4.461  21.755  0.00  0.00    +0.222 HD
ENDBRANCH  26  28
BRANCH  26  30
ATOM     30  O   UNL     1      10.456   4.934  23.425  0.00  0.00    -0.302 OA
ATOM     31  H   UNL     1      10.484   5.823  23.842  0.00  0.00    +0.222 HD
ENDBRANCH  26  30
ENDBRANCH  25  26
ENDBRANCH  21  25
ENDBRANCH  20  21
ENDBRANCH  19  20
ENDBRANCH   2  19
TORSDOF 11
ENDMDL
MODEL 3
REMARK VINA RESULT:      -6.1      2.218      3.656
REMARK  Name = 
REMARK  11 active torsions:
REMARK  status: ('A' for Active; 'I' for Inactive)
REMARK    1  A    between atoms: O_1  and  C_2
REMARK    2  A    between atoms: C_4  and  O_6
REMARK    3  A    between atoms: C_7  and  N_22
REMARK    4  A    between atoms: C_10  and  C_12
REMARK    5  A    between atoms: C_12  and  O_13
REMARK    6  A    between atoms: O_13  and  P_14
REMARK    7  A    between atoms: P_14  and  O_15
REMARK    8  A    between atoms: P_14  and  O_17
REMARK    9  A    between atoms: O_17  and  P_18
REMARK   10  A    between atoms: P_18  and  O_19
REMARK   11  A    between atoms: P_18  and  O_20
REMARK                            x       y       z     vdW  Elec       q    Type
REMARK                         _______ _______ _______ _____ _____    ______ ____
ROOT
ATOM      1  C   UNL     1       8.364  -2.437  22.319  0.00  0.00    +0.178 C 
ATOM      2  C   UNL     1       8.822  -2.888  23.710  0.00  0.00    +0.178 C 
ATOM      3  O   UNL     1       8.482  -1.830  24.640  0.00  0.00    -0.346 OA
ATOM      4  C   UNL     1       7.872  -0.735  23.912  0.00  0.00    +0.255 C 
ATOM      5  C   UNL     1       7.326  -1.369  22.616  0.00  0.00    +0.195 C 
ENDROOT
BRANCH   4   6
ATOM      6  N   UNL     1       8.853   0.361  23.722  0.00  0.00    -0.271 N 
ATOM      7  C   UNL     1       8.388   1.540  23.130  0.00  0.00    +0.331 A 
ATOM      8  O   UNL     1       7.250   1.687  22.702  0.00  0.00    -0.246 OA
ATOM      9  N   UNL     1       9.307   2.557  23.029  0.00  0.00    -0.275 N 
ATOM     10  H   UNL     1       8.987   3.412  22.602  0.00  0.00    +0.173 HD
ATOM     11  C   UNL     1      10.564   2.561  23.550  0.00  0.00    +0.254 A 
ATOM     12  O   UNL     1      11.312   3.529  23.500  0.00  0.00    -0.268 OA
ATOM     13  C   UNL     1      10.982   1.319  24.211  0.00  0.00    +0.088 A 
ATOM     14  C   UNL     1      10.120   0.297  24.277  0.00  0.00    +0.098 A 
ENDBRANCH   4   6
BRANCH   1  15
ATOM     15  O   UNL     1       9.449  -1.862  21.579  0.00  0.00    -0.386 OA
ATOM     16  H   UNL     1      10.286  -2.230  21.909  0.00  0.00    +0.210 HD
ENDBRANCH   1  15
BRANCH   5  17
ATOM     17  O   UNL     1       6.058  -1.996  22.862  0.00  0.00    -0.385 OA
ATOM     18  H   UNL     1       5.662  -1.547  23.629  0.00  0.00    +0.210 HD
ENDBRANCH   5  17
BRANCH   2  19
ATOM     19  C   UNL     1       8.201  -4.211  24.186  0.00  0.00    +0.206 C 
BRANCH  19  20
ATOM     20  O   UNL     1       7.610  -4.075  25.481  0.00  0.00    -0.284 OA
BRANCH  20  21
ATOM     21  P   UNL     1       6.022  -4.515  25.586  0.00  0.00    +0.483 P 
ATOM     22  O   UNL     1       5.169  -3.250  25.483  0.00  0.00    -0.227 OA
BRANCH  21  23
ATOM     23  O   UNL     1       5.949  -4.642  23.863  0.00  0.00    -0.302 OA
ATOM     24  H   UNL     1       6.264  -5.556  23.700  0.00  0.00    +0.222 HD
ENDBRANCH  21  23
BRANCH  21  25
ATOM     25  O   UNL     1       6.093  -4.388  27.309  0.00  0.00    -0.186 OA
BRANCH  25  26
ATOM     26  P   UNL     1       5.995  -5.967  28.009  0.00  0.00    +0.481 P 
ATOM     27  O   UNL     1       5.905  -7.380  28.637  0.00  0.00    -0.227 OA
BRANCH  26  28
ATOM     28  O   UNL     1       7.625  -5.959  27.855  0.00  0.00    -0.302 OA
ATOM     29  H   UNL     1       7.900  -6.490  27.086  0.00  0.00    +0.222 HD
ENDBRANCH  26  28
BRANCH  26  30
ATOM     30  O   UNL     1       5.716  -6.541  26.499  0.00  0.00    -0.302 OA
ATOM     31  H   UNL     1       5.986  -5.800  25.913  0.00  0.00    +0.222 HD
ENDBRANCH  26  30
ENDBRANCH  25  26
ENDBRANCH  21  25
ENDBRANCH  20  21
ENDBRANCH  19  20
ENDBRANCH   2  19
TORSDOF 11
ENDMDL
MODEL 4
REMARK VINA RESULT:      -6.0      3.875      6.989
REMARK  Name = 
REMARK  11 active torsions:
REMARK  status: ('A' for Active; 'I' for Inactive)
REMARK    1  A    between atoms: O_1  and  C_2
REMARK    2  A    between atoms: C_4  and  O_6
REMARK    3  A    between atoms: C_7  and  N_22
REMARK    4  A    between atoms: C_10  and  C_12
REMARK    5  A    between atoms: C_12  and  O_13
REMARK    6  A    between atoms: O_13  and  P_14
REMARK    7  A    between atoms: P_14  and  O_15
REMARK    8  A    between atoms: P_14  and  O_17
REMARK    9  A    between atoms: O_17  and  P_18
REMARK   10  A    between atoms: P_18  and  O_19
REMARK   11  A    between atoms: P_18  and  O_20
REMARK                            x       y       z     vdW  Elec       q    Type
REMARK                         _______ _______ _______ _____ _____    ______ ____
ROOT
ATOM      1  C   UNL     1       9.556  -4.780  25.040  0.00  0.00    +0.178 C 
ATOM      2  C   UNL     1       9.013  -3.699  24.100  0.00  0.00    +0.178 C 
ATOM      3  O   UNL     1       7.710  -3.309  24.600  0.00  0.00    -0.346 OA
ATOM      4  C   UNL     1       7.393  -4.101  25.771  0.00  0.00    +0.255 C 
ATOM      5  C   UNL     1       8.755  -4.579  26.315  0.00  0.00    +0.195 C 
ENDROOT
BRANCH   4   6
ATOM      6  N   UNL     1       6.436  -5.177  25.416  0.00  0.00    -0.271 N 
ATOM      7  C   UNL     1       5.991  -6.006  26.452  0.00  0.00    +0.331 A 
ATOM      8  O   UNL     1       6.398  -5.936  27.605  0.00  0.00    -0.246 OA
ATOM      9  N   UNL     1       5.056  -6.948  26.098  0.00  0.00    -0.275 N 
ATOM     10  H   UNL     1       4.728  -7.555  26.834  0.00  0.00    +0.173 HD
ATOM     11  C   UNL     1       4.450  -7.067  24.887  0.00  0.00    +0.254 A 
ATOM     12  O   UNL     1       3.561  -7.877  24.652  0.00  0.00    -0.268 OA
ATOM     13  C   UNL     1       4.912  -6.136  23.850  0.00  0.00    +0.088 A 
ATOM     14  C   UNL     1       5.859  -5.241  24.158  0.00  0.00    +0.098 A 
ENDBRANCH   4   6
BRANCH   1  15
ATOM     15  O   UNL     1       9.307  -6.092  24.518  0.00  0.00    -0.386 OA
ATOM     16  H   UNL     1       8.927  -6.644  25.223  0.00  0.00    +0.210 HD
ENDBRANCH   1  15
BRANCH   5  17
ATOM     17  O   UNL     1       9.369  -3.545  27.101  0.00  0.00    -0.385 OA
ATOM     18  H   UNL     1      10.017  -3.978  27.684  0.00  0.00    +0.210 HD
ENDBRANCH   5  17
BRANCH   2  19
ATOM     19  C   UNL     1       9.910  -2.457  23.974  0.00  0.00    +0.206 C 
BRANCH  19  20
ATOM     20  O   UNL     1       9.133  -1.265  23.831  0.00  0.00    -0.284 OA
BRANCH  20  21
ATOM     21  P   UNL     1       9.619   0.014  24.757  0.00  0.00    +0.483 P 
ATOM     22  O   UNL     1       8.495   1.051  24.764  0.00  0.00    -0.227 OA
BRANCH  21  23
ATOM     23  O   UNL     1       8.884  -0.717  26.142  0.00  0.00    -0.302 OA
ATOM     24  H   UNL     1       9.466  -1.486  26.314  0.00  0.00    +0.222 HD
ENDBRANCH  21  23
BRANCH  21  25
ATOM     25  O   UNL     1      10.355   0.745  23.373  0.00  0.00    -0.186 OA
BRANCH  25  26
ATOM     26  P   UNL     1       9.125   1.276  22.278  0.00  0.00    +0.481 P 
ATOM     27  O   UNL     1       8.024   1.751  21.299  0.00  0.00    -0.227 OA
BRANCH  26  28
ATOM     28  O   UNL     1       9.614   0.004  21.369  0.00  0.00    -0.302 OA
ATOM     29  H   UNL     1      10.460  -0.348  21.698  0.00  0.00    +0.222 HD
ENDBRANCH  26  28
BRANCH  26  30
ATOM     30  O   UNL     1      10.227   2.319  21.660  0.00  0.00    -0.302 OA
ATOM     31  H   UNL     1       9.978   2.391  20.712  0.00  0.00    +0.222 HD
ENDBRANCH  26  30
ENDBRANCH  25  26
ENDBRANCH  21  25
ENDBRANCH  20  21
ENDBRANCH  19  20
ENDBRANCH   2  19
TORSDOF 11
ENDMDL
MODEL 5
REMARK VINA RESULT:      -5.9      3.557      7.000
REMARK  Name = 
REMARK  11 active torsions:
REMARK  status: ('A' for Active; 'I' for Inactive)
REMARK    1  A    between atoms: O_1  and  C_2
REMARK    2  A    between atoms: C_4  and  O_6
REMARK    3  A    between atoms: C_7  and  N_22
REMARK    4  A    between atoms: C_10  and  C_12
REMARK    5  A    between atoms: C_12  and  O_13
REMARK    6  A    between atoms: O_13  and  P_14
REMARK    7  A    between atoms: P_14  and  O_15
REMARK    8  A    between atoms: P_14  and  O_17
REMARK    9  A    between atoms: O_17  and  P_18
REMARK   10  A    between atoms: P_18  and  O_19
REMARK   11  A    between atoms: P_18  and  O_20
REMARK                            x       y       z     vdW  Elec       q    Type
REMARK                         _______ _______ _______ _____ _____    ______ ____
ROOT
ATOM      1  C   UNL     1      10.306  -0.649  22.587  0.00  0.00    +0.178 C 
ATOM      2  C   UNL     1       9.128   0.126  21.987  0.00  0.00    +0.178 C 
ATOM      3  O   UNL     1       7.943  -0.250  22.729  0.00  0.00    -0.346 OA
ATOM      4  C   UNL     1       8.300  -1.235  23.731  0.00  0.00    +0.255 C 
ATOM      5  C   UNL     1       9.811  -1.035  23.970  0.00  0.00    +0.195 C 
ENDROOT
BRANCH   4   6
ATOM      6  N   UNL     1       7.901  -2.591  23.280  0.00  0.00    -0.271 N 
ATOM      7  C   UNL     1       8.313  -3.674  24.063  0.00  0.00    +0.331 A 
ATOM      8  O   UNL     1       9.035  -3.569  25.048  0.00  0.00    -0.246 OA
ATOM      9  N   UNL     1       7.870  -4.907  23.653  0.00  0.00    -0.275 N 
ATOM     10  H   UNL     1       8.162  -5.698  24.207  0.00  0.00    +0.173 HD
ATOM     11  C   UNL     1       6.989  -5.153  22.646  0.00  0.00    +0.254 A 
ATOM     12  O   UNL     1       6.565  -6.270  22.376  0.00  0.00    -0.268 OA
ATOM     13  C   UNL     1       6.543  -3.975  21.890  0.00  0.00    +0.088 A 
ATOM     14  C   UNL     1       7.001  -2.768  22.242  0.00  0.00    +0.098 A 
ENDBRANCH   4   6
BRANCH   1  15
ATOM     15  O   UNL     1      10.586  -1.834  21.829  0.00  0.00    -0.386 OA
ATOM     16  H   UNL     1      10.917  -1.576  20.952  0.00  0.00    +0.210 HD
ENDBRANCH   1  15
BRANCH   5  17
ATOM     17  O   UNL     1      10.032   0.060  24.874  0.00  0.00    -0.385 OA
ATOM     18  H   UNL     1       9.239   0.132  25.432  0.00  0.00    +0.210 HD
ENDBRANCH   5  17
BRANCH   2  19
ATOM     19  C   UNL     1       9.292   1.654  22.017  0.00  0.00    +0.206 C 
BRANCH  19  20
ATOM     20  O   UNL     1       8.223   2.279  22.732  0.00  0.00    -0.284 OA
BRANCH  20  21
ATOM     21  P   UNL     1       8.682   3.380  23.874  0.00  0.00    +0.483 P 
ATOM     22  O   UNL     1       8.498   2.742  25.252  0.00  0.00    -0.227 OA
BRANCH  21  23
ATOM     23  O   UNL     1      10.285   2.731  23.847  0.00  0.00    -0.302 OA
ATOM     24  H   UNL     1      10.600   2.974  22.951  0.00  0.00    +0.222 HD
ENDBRANCH  21  23
BRANCH  21  25
ATOM     25  O   UNL     1       7.079   4.029  23.903  0.00  0.00    -0.186 OA
BRANCH  25  26
ATOM     26  P   UNL     1       6.979   5.369  22.813  0.00  0.00    +0.481 P 
ATOM     27  O   UNL     1       6.889   6.569  21.839  0.00  0.00    -0.227 OA
BRANCH  26  28
ATOM     28  O   UNL     1       6.496   4.241  21.728  0.00  0.00    -0.302 OA
ATOM     29  H   UNL     1       6.538   3.350  22.118  0.00  0.00    +0.222 HD
ENDBRANCH  26  28
BRANCH  26  30
ATOM     30  O   UNL     1       8.579   5.162  22.525  0.00  0.00    -0.302 OA
ATOM     31  H   UNL     1       8.986   5.999  22.840  0.00  0.00    +0.222 HD
ENDBRANCH  26  30
ENDBRANCH  25  26
ENDBRANCH  21  25
ENDBRANCH  20  21
ENDBRANCH  19  20
ENDBRANCH   2  19
TORSDOF 11
ENDMDL
MODEL 6
REMARK VINA RESULT:      -5.9      1.335      1.434
REMARK  Name = 
REMARK  11 active torsions:
REMARK  status: ('A' for Active; 'I' for Inactive)
REMARK    1  A    between atoms: O_1  and  C_2
REMARK    2  A    between atoms: C_4  and  O_6
REMARK    3  A    between atoms: C_7  and  N_22
REMARK    4  A    between atoms: C_10  and  C_12
REMARK    5  A    between atoms: C_12  and  O_13
REMARK    6  A    between atoms: O_13  and  P_14
REMARK    7  A    between atoms: P_14  and  O_15
REMARK    8  A    between atoms: P_14  and  O_17
REMARK    9  A    between atoms: O_17  and  P_18
REMARK   10  A    between atoms: P_18  and  O_19
REMARK   11  A    between atoms: P_18  and  O_20
REMARK                            x       y       z     vdW  Elec       q    Type
REMARK                         _______ _______ _______ _____ _____    ______ ____
ROOT
ATOM      1  C   UNL     1       9.096  -1.223  25.527  0.00  0.00    +0.178 C 
ATOM      2  C   UNL     1       7.566  -1.178  25.464  0.00  0.00    +0.178 C 
ATOM      3  O   UNL     1       7.204  -0.578  24.197  0.00  0.00    -0.346 OA
ATOM      4  C   UNL     1       8.410  -0.214  23.480  0.00  0.00    +0.255 C 
ATOM      5  C   UNL     1       9.515  -1.114  24.071  0.00  0.00    +0.195 C 
ENDROOT
BRANCH   4   6
ATOM      6  N   UNL     1       8.650   1.245  23.591  0.00  0.00    -0.271 N 
ATOM      7  C   UNL     1       9.502   1.828  22.647  0.00  0.00    +0.331 A 
ATOM      8  O   UNL     1      10.106   1.195  21.790  0.00  0.00    -0.246 OA
ATOM      9  N   UNL     1       9.650   3.190  22.740  0.00  0.00    -0.275 N 
ATOM     10  H   UNL     1      10.263   3.624  22.067  0.00  0.00    +0.173 HD
ATOM     11  C   UNL     1       8.965   4.020  23.573  0.00  0.00    +0.254 A 
ATOM     12  O   UNL     1       9.079   5.239  23.556  0.00  0.00    -0.268 OA
ATOM     13  C   UNL     1       8.041   3.363  24.506  0.00  0.00    +0.088 A 
ATOM     14  C   UNL     1       7.919   2.031  24.467  0.00  0.00    +0.098 A 
ENDBRANCH   4   6
BRANCH   1  15
ATOM     15  O   UNL     1       9.617  -0.107  26.261  0.00  0.00    -0.386 OA
ATOM     16  H   UNL     1       9.169   0.703  25.963  0.00  0.00    +0.210 HD
ENDBRANCH   1  15
BRANCH   5  17
ATOM     17  O   UNL     1       9.472  -2.418  23.467  0.00  0.00    -0.385 OA
ATOM     18  H   UNL     1       8.698  -2.433  22.877  0.00  0.00    +0.210 HD
ENDBRANCH   5  17
BRANCH   2  19
ATOM     19  C   UNL     1       6.884  -2.550  25.598  0.00  0.00    +0.206 C 
BRANCH  19  20
ATOM     20  O   UNL     1       7.831  -3.576  25.904  0.00  0.00    -0.284 OA
BRANCH  20  21
ATOM     21  P   UNL     1       7.560  -5.032  25.173  0.00  0.00    +0.483 P 
ATOM     22  O   UNL     1       8.647  -5.246  24.118  0.00  0.00    -0.227 OA
BRANCH  21  23
ATOM     23  O   UNL     1       8.601  -5.796  26.324  0.00  0.00    -0.302 OA
ATOM     24  H   UNL     1       8.819  -5.063  26.937  0.00  0.00    +0.222 HD
ENDBRANCH  21  23
BRANCH  21  25
ATOM     25  O   UNL     1       6.520  -4.269  24.021  0.00  0.00    -0.186 OA
BRANCH  25  26
ATOM     26  P   UNL     1       6.696  -5.042  22.483  0.00  0.00    +0.481 P 
ATOM     27  O   UNL     1       6.854  -5.735  21.107  0.00  0.00    -0.227 OA
BRANCH  26  28
ATOM     28  O   UNL     1       7.387  -3.627  22.033  0.00  0.00    -0.302 OA
ATOM     29  H   UNL     1       6.848  -2.872  22.331  0.00  0.00    +0.222 HD
ENDBRANCH  26  28
BRANCH  26  30
ATOM     30  O   UNL     1       5.166  -4.561  22.147  0.00  0.00    -0.302 OA
ATOM     31  H   UNL     1       5.166  -3.604  22.368  0.00  0.00    +0.222 HD
ENDBRANCH  26  30
ENDBRANCH  25  26
ENDBRANCH  21  25
ENDBRANCH  20  21
ENDBRANCH  19  20
ENDBRANCH   2  19
TORSDOF 11
ENDMDL
MODEL 7
REMARK VINA RESULT:      -5.8      2.343      3.826
REMARK  Name = 
REMARK  11 active torsions:
REMARK  status: ('A' for Active; 'I' for Inactive)
REMARK    1  A    between atoms: O_1  and  C_2
REMARK    2  A    between atoms: C_4  and  O_6
REMARK    3  A    between atoms: C_7  and  N_22
REMARK    4  A    between atoms: C_10  and  C_12
REMARK    5  A    between atoms: C_12  and  O_13
REMARK    6  A    between atoms: O_13  and  P_14
REMARK    7  A    between atoms: P_14  and  O_15
REMARK    8  A    between atoms: P_14  and  O_17
REMARK    9  A    between atoms: O_17  and  P_18
REMARK   10  A    between atoms: P_18  and  O_19
REMARK   11  A    between atoms: P_18  and  O_20
REMARK                            x       y       z     vdW  Elec       q    Type
REMARK                         _______ _______ _______ _____ _____    ______ ____
ROOT
ATOM      1  C   UNL     1       6.153  -1.564  23.796  0.00  0.00    +0.178 C 
ATOM      2  C   UNL     1       6.564  -2.035  22.397  0.00  0.00    +0.178 C 
ATOM      3  O   UNL     1       8.005  -2.182  22.397  0.00  0.00    -0.346 OA
ATOM      4  C   UNL     1       8.522  -1.801  23.696  0.00  0.00    +0.255 C 
ATOM      5  C   UNL     1       7.333  -1.963  24.666  0.00  0.00    +0.195 C 
ENDROOT
BRANCH   4   6
ATOM      6  N   UNL     1       9.112  -0.442  23.633  0.00  0.00    -0.271 N 
ATOM      7  C   UNL     1       9.613   0.095  24.823  0.00  0.00    +0.331 A 
ATOM      8  O   UNL     1       9.528  -0.460  25.912  0.00  0.00    -0.246 OA
ATOM      9  N   UNL     1      10.210   1.327  24.714  0.00  0.00    -0.275 N 
ATOM     10  H   UNL     1      10.574   1.728  25.565  0.00  0.00    +0.173 HD
ATOM     11  C   UNL     1      10.459   2.003  23.560  0.00  0.00    +0.254 A 
ATOM     12  O   UNL     1      11.069   3.064  23.517  0.00  0.00    -0.268 OA
ATOM     13  C   UNL     1       9.962   1.369  22.333  0.00  0.00    +0.088 A 
ATOM     14  C   UNL     1       9.332   0.192  22.420  0.00  0.00    +0.098 A 
ENDBRANCH   4   6
BRANCH   1  15
ATOM     15  O   UNL     1       5.988  -0.140  23.835  0.00  0.00    -0.386 OA
ATOM     16  H   UNL     1       6.758   0.254  24.278  0.00  0.00    +0.210 HD
ENDBRANCH   1  15
BRANCH   5  17
ATOM     17  O   UNL     1       7.190  -3.339  25.054  0.00  0.00    -0.385 OA
ATOM     18  H   UNL     1       6.421  -3.692  24.573  0.00  0.00    +0.210 HD
ENDBRANCH   5  17
BRANCH   2  19
ATOM     19  C   UNL     1       5.911  -3.354  21.953  0.00  0.00    +0.206 C 
BRANCH  19  20
ATOM     20  O   UNL     1       6.573  -4.483  22.528  0.00  0.00    -0.284 OA
BRANCH  20  21
ATOM     21  P   UNL     1       5.634  -5.826  22.736  0.00  0.00    +0.483 P 
ATOM     22  O   UNL     1       4.168  -5.401  22.648  0.00  0.00    -0.227 OA
BRANCH  21  23
ATOM     23  O   UNL     1       5.612  -6.068  21.023  0.00  0.00    -0.302 OA
ATOM     24  H   UNL     1       4.958  -5.403  20.721  0.00  0.00    +0.222 HD
ENDBRANCH  21  23
BRANCH  21  25
ATOM     25  O   UNL     1       5.656  -5.586  24.448  0.00  0.00    -0.186 OA
BRANCH  25  26
ATOM     26  P   UNL     1       4.268  -6.338  25.155  0.00  0.00    +0.481 P 
ATOM     27  O   UNL     1       3.024  -7.010  25.787  0.00  0.00    -0.227 OA
BRANCH  26  28
ATOM     28  O   UNL     1       5.324  -6.833  26.305  0.00  0.00    -0.302 OA
ATOM     29  H   UNL     1       4.891  -7.441  26.930  0.00  0.00    +0.222 HD
ENDBRANCH  26  28
BRANCH  26  30
ATOM     30  O   UNL     1       4.541  -7.611  24.159  0.00  0.00    -0.302 OA
ATOM     31  H   UNL     1       4.051  -7.379  23.340  0.00  0.00    +0.222 HD
ENDBRANCH  26  30
ENDBRANCH  25  26
ENDBRANCH  21  25
ENDBRANCH  20  21
ENDBRANCH  19  20
ENDBRANCH   2  19
TORSDOF 11
ENDMDL
MODEL 8
REMARK VINA RESULT:      -5.8      2.195      3.236
REMARK  Name = 
REMARK  11 active torsions:
REMARK  status: ('A' for Active; 'I' for Inactive)
REMARK    1  A    between atoms: O_1  and  C_2
REMARK    2  A    between atoms: C_4  and  O_6
REMARK    3  A    between atoms: C_7  and  N_22
REMARK    4  A    between atoms: C_10  and  C_12
REMARK    5  A    between atoms: C_12  and  O_13
REMARK    6  A    between atoms: O_13  and  P_14
REMARK    7  A    between atoms: P_14  and  O_15
REMARK    8  A    between atoms: P_14  and  O_17
REMARK    9  A    between atoms: O_17  and  P_18
REMARK   10  A    between atoms: P_18  and  O_19
REMARK   11  A    between atoms: P_18  and  O_20
REMARK                            x       y       z     vdW  Elec       q    Type
REMARK                         _______ _______ _______ _____ _____    ______ ____
ROOT
ATOM      1  C   UNL     1       7.664  -1.921  24.462  0.00  0.00    +0.178 C 
ATOM      2  C   UNL     1       6.928  -1.708  23.135  0.00  0.00    +0.178 C 
ATOM      3  O   UNL     1       7.934  -1.556  22.103  0.00  0.00    -0.346 OA
ATOM      4  C   UNL     1       9.249  -1.626  22.708  0.00  0.00    +0.255 C 
ATOM      5  C   UNL     1       9.043  -2.390  24.032  0.00  0.00    +0.195 C 
ENDROOT
BRANCH   4   6
ATOM      6  N   UNL     1       9.824  -0.266  22.840  0.00  0.00    -0.271 N 
ATOM      7  C   UNL     1       9.584   0.636  21.798  0.00  0.00    +0.331 A 
ATOM      8  O   UNL     1       8.992   0.345  20.766  0.00  0.00    -0.246 OA
ATOM      9  N   UNL     1      10.076   1.905  21.985  0.00  0.00    -0.275 N 
ATOM     10  H   UNL     1       9.912   2.565  21.241  0.00  0.00    +0.173 HD
ATOM     11  C   UNL     1      10.657   2.385  23.117  0.00  0.00    +0.254 A 
ATOM     12  O   UNL     1      11.004   3.552  23.256  0.00  0.00    -0.268 OA
ATOM     13  C   UNL     1      10.836   1.412  24.202  0.00  0.00    +0.088 A 
ATOM     14  C   UNL     1      10.409   0.156  24.023  0.00  0.00    +0.098 A 
ENDBRANCH   4   6
BRANCH   1  15
ATOM     15  O   UNL     1       7.780  -0.693  25.192  0.00  0.00    -0.386 OA
ATOM     16  H   UNL     1       7.049  -0.105  24.937  0.00  0.00    +0.210 HD
ENDBRANCH   1  15
BRANCH   5  17
ATOM     17  O   UNL     1       9.007  -3.806  23.790  0.00  0.00    -0.385 OA
ATOM     18  H   UNL     1       9.868  -4.164  24.067  0.00  0.00    +0.210 HD
ENDBRANCH   5  17
BRANCH   2  19
ATOM     19  C   UNL     1       5.965  -2.844  22.752  0.00  0.00    +0.206 C 
BRANCH  19  20
ATOM     20  O   UNL     1       6.641  -3.881  22.037  0.00  0.00    -0.284 OA
BRANCH  20  21
ATOM     21  P   UNL     1       6.059  -5.408  22.282  0.00  0.00    +0.483 P 
ATOM     22  O   UNL     1       5.665  -5.991  20.924  0.00  0.00    -0.227 OA
BRANCH  21  23
ATOM     23  O   UNL     1       7.647  -6.046  22.036  0.00  0.00    -0.302 OA
ATOM     24  H   UNL     1       8.137  -5.275  21.682  0.00  0.00    +0.222 HD
ENDBRANCH  21  23
BRANCH  21  25
ATOM     25  O   UNL     1       4.470  -4.770  22.527  0.00  0.00    -0.186 OA
BRANCH  25  26
ATOM     26  P   UNL     1       3.597  -5.796  23.613  0.00  0.00    +0.481 P 
ATOM     27  O   UNL     1       2.814  -6.713  24.585  0.00  0.00    -0.227 OA
BRANCH  26  28
ATOM     28  O   UNL     1       4.958  -6.707  23.587  0.00  0.00    -0.302 OA
ATOM     29  H   UNL     1       5.309  -6.776  22.682  0.00  0.00    +0.222 HD
ENDBRANCH  26  28
BRANCH  26  30
ATOM     30  O   UNL     1       2.932  -6.505  22.293  0.00  0.00    -0.302 OA
ATOM     31  H   UNL     1       3.708  -6.763  21.748  0.00  0.00    +0.222 HD
ENDBRANCH  26  30
ENDBRANCH  25  26
ENDBRANCH  21  25
ENDBRANCH  20  21
ENDBRANCH  19  20
ENDBRANCH   2  19
TORSDOF 11
ENDMDL
MODEL 9
REMARK VINA RESULT:      -5.8      1.439      2.562
REMARK  Name = 
REMARK  11 active torsions:
REMARK  status: ('A' for Active; 'I' for Inactive)
REMARK    1  A    between atoms: O_1  and  C_2
REMARK    2  A    between atoms: C_4  and  O_6
REMARK    3  A    between atoms: C_7  and  N_22
REMARK    4  A    between atoms: C_10  and  C_12
REMARK    5  A    between atoms: C_12  and  O_13
REMARK    6  A    between atoms: O_13  and  P_14
REMARK    7  A    between atoms: P_14  and  O_15
REMARK    8  A    between atoms: P_14  and  O_17
REMARK    9  A    between atoms: O_17  and  P_18
REMARK   10  A    between atoms: P_18  and  O_19
REMARK   11  A    between atoms: P_18  and  O_20
REMARK                            x       y       z     vdW  Elec       q    Type
REMARK                         _______ _______ _______ _____ _____    ______ ____
ROOT
ATOM      1  C   UNL     1       9.616  -0.697  25.066  0.00  0.00    +0.178 C 
ATOM      2  C   UNL     1       8.190  -0.900  25.590  0.00  0.00    +0.178 C 
ATOM      3  O   UNL     1       7.282  -0.538  24.521  0.00  0.00    -0.346 OA
ATOM      4  C   UNL     1       8.049  -0.090  23.377  0.00  0.00    +0.255 C 
ATOM      5  C   UNL     1       9.446  -0.720  23.557  0.00  0.00    +0.195 C 
ENDROOT
BRANCH   4   6
ATOM      6  N   UNL     1       8.025   1.390  23.292  0.00  0.00    -0.271 N 
ATOM      7  C   UNL     1       8.551   1.975  22.136  0.00  0.00    +0.331 A 
ATOM      8  O   UNL     1       9.086   1.342  21.234  0.00  0.00    -0.246 OA
ATOM      9  N   UNL     1       8.451   3.343  22.063  0.00  0.00    -0.275 N 
ATOM     10  H   UNL     1       8.829   3.779  21.236  0.00  0.00    +0.173 HD
ATOM     11  C   UNL     1       7.796   4.151  22.940  0.00  0.00    +0.254 A 
ATOM     12  O   UNL     1       7.670   5.359  22.781  0.00  0.00    -0.268 OA
ATOM     13  C   UNL     1       7.213   3.480  24.109  0.00  0.00    +0.088 A 
ATOM     14  C   UNL     1       7.341   2.153  24.225  0.00  0.00    +0.098 A 
ENDBRANCH   4   6
BRANCH   1  15
ATOM     15  O   UNL     1      10.140   0.574  25.471  0.00  0.00    -0.386 OA
ATOM     16  H   UNL     1       9.460   1.047  25.981  0.00  0.00    +0.210 HD
ENDBRANCH   1  15
BRANCH   5  17
ATOM     17  O   UNL     1       9.441  -2.083  23.102  0.00  0.00    -0.385 OA
ATOM     18  H   UNL     1       9.048  -2.619  23.813  0.00  0.00    +0.210 HD
ENDBRANCH   5  17
BRANCH   2  19
ATOM     19  C   UNL     1       7.885  -2.331  26.063  0.00  0.00    +0.206 C 
BRANCH  19  20
ATOM     20  O   UNL     1       7.520  -3.175  24.969  0.00  0.00    -0.284 OA
BRANCH  20  21
ATOM     21  P   UNL     1       7.521  -4.796  25.291  0.00  0.00    +0.483 P 
ATOM     22  O   UNL     1       6.571  -5.478  24.306  0.00  0.00    -0.227 OA
BRANCH  21  23
ATOM     23  O   UNL     1       8.792  -5.017  24.139  0.00  0.00    -0.302 OA
ATOM     24  H   UNL     1       8.946  -4.107  23.811  0.00  0.00    +0.222 HD
ENDBRANCH  21  23
BRANCH  21  25
ATOM     25  O   UNL     1       6.250  -4.575  26.443  0.00  0.00    -0.186 OA
BRANCH  25  26
ATOM     26  P   UNL     1       6.503  -5.629  27.792  0.00  0.00    +0.481 P 
ATOM     27  O   UNL     1       6.728  -6.571  29.000  0.00  0.00    -0.227 OA
BRANCH  26  28
ATOM     28  O   UNL     1       7.937  -5.945  27.068  0.00  0.00    -0.302 OA
ATOM     29  H   UNL     1       8.279  -5.150  26.620  0.00  0.00    +0.222 HD
ENDBRANCH  26  28
BRANCH  26  30
ATOM     30  O   UNL     1       5.674  -6.773  26.961  0.00  0.00    -0.302 OA
ATOM     31  H   UNL     1       4.991  -7.079  27.598  0.00  0.00    +0.222 HD
ENDBRANCH  26  30
ENDBRANCH  25  26
ENDBRANCH  21  25
ENDBRANCH  20  21
ENDBRANCH  19  20
ENDBRANCH   2  19
TORSDOF 11
ENDMDL
