MODEL 1
REMARK VINA RESULT:      -5.9      0.000      0.000
REMARK  Name = 
REMARK  5 active torsions:
REMARK  status: ('A' for Active; 'I' for Inactive)
REMARK    1  A    between atoms: C_1  and  N_2
REMARK    2  A    between atoms: N_2  and  C_3
REMARK    3  A    between atoms: N_2  and  C_13
REMARK    4  A    between atoms: C_3  and  C_4
REMARK    5  A    between atoms: C_11  and  N_12
REMARK                            x       y       z     vdW  Elec       q    Type
REMARK                         _______ _______ _______ _____ _____    ______ ____
ROOT
ATOM      1  C   UNL     1       8.414  -2.448  22.762  0.00  0.00    -0.011 A 
ATOM      2  C   UNL     1       8.831  -2.779  24.073  0.00  0.00    +0.043 A 
ATOM      3  C   UNL     1       8.420  -4.018  24.618  0.00  0.00    +0.040 A 
ATOM      4 BR   UNL     1       8.917  -4.511  26.389  0.00  0.00    -0.048 Br
ATOM      5  C   UNL     1       7.664  -4.931  23.884  0.00  0.00    +0.032 A 
ATOM      6  C   UNL     1       7.247  -4.589  22.605  0.00  0.00    +0.019 A 
ATOM      7 BR   UNL     1       6.209  -5.807  21.600  0.00  0.00    -0.050 Br
ATOM      8  C   UNL     1       7.593  -3.355  22.058  0.00  0.00    +0.022 A 
ENDROOT
BRANCH   2   9
ATOM      9  N   UNL     1       9.441  -1.819  24.905  0.00  0.00    -0.357 N 
ATOM     10  H   UNL     1       9.468  -0.871  24.552  0.00  0.00    +0.142 HD
ATOM     11  H   UNL     1      10.347  -2.121  25.252  0.00  0.00    +0.142 HD
ENDBRANCH   2   9
BRANCH   1  12
ATOM     12  C   UNL     1       8.759  -1.103  22.131  0.00  0.00    +0.121 C 
BRANCH  12  14
ATOM     13  C   UNL     1       6.768  -0.038  23.021  0.00  0.00    +0.105 C 
ATOM     14  N   UNL     1       8.221   0.103  22.812  0.00  0.00    -0.298 NA
BRANCH  14  15
ATOM     15  C   UNL     1       8.513   1.348  22.034  0.00  0.00    +0.057 C 
ATOM     16  C   UNL     1      10.006   1.763  22.037  0.00  0.00    +0.019 C 
ATOM     17  C   UNL     1      10.498   2.138  23.435  0.00  0.00    +0.002 C 
ATOM     18  C   UNL     1       9.661   3.268  24.032  0.00  0.00    +0.000 C 
ATOM     19  C   UNL     1       8.163   2.976  23.971  0.00  0.00    +0.002 C 
ATOM     20  C   UNL     1       7.729   2.579  22.558  0.00  0.00    +0.019 C 
ENDBRANCH  14  15
ENDBRANCH  12  14
ENDBRANCH   1  12
TORSDOF 4
ENDMDL
MODEL 2
REMARK VINA RESULT:      -5.7      1.485      2.012
REMARK  Name = 
REMARK  5 active torsions:
REMARK  status: ('A' for Active; 'I' for Inactive)
REMARK    1  A    between atoms: C_1  and  N_2
REMARK    2  A    between atoms: N_2  and  C_3
REMARK    3  A    between atoms: N_2  and  C_13
REMARK    4  A    between atoms: C_3  and  C_4
REMARK    5  A    between atoms: C_11  and  N_12
REMARK                            x       y       z     vdW  Elec       q    Type
REMARK                         _______ _______ _______ _____ _____    ______ ____
ROOT
ATOM      1  C   UNL     1       8.608  -3.169  23.958  0.00  0.00    -0.011 A 
ATOM      2  C   UNL     1       8.090  -3.218  25.274  0.00  0.00    +0.043 A 
ATOM      3  C   UNL     1       6.976  -4.053  25.528  0.00  0.00    +0.040 A 
ATOM      4 BR   UNL     1       6.207  -4.141  27.268  0.00  0.00    -0.048 Br
ATOM      5  C   UNL     1       6.416  -4.856  24.535  0.00  0.00    +0.032 A 
ATOM      6  C   UNL     1       6.922  -4.787  23.245  0.00  0.00    +0.019 A 
ATOM      7 BR   UNL     1       6.168  -5.856  21.882  0.00  0.00    -0.050 Br
ATOM      8  C   UNL     1       7.987  -3.937  22.950  0.00  0.00    +0.022 A 
ENDROOT
BRANCH   2   9
ATOM      9  N   UNL     1       8.510  -2.298  26.256  0.00  0.00    -0.357 N 
ATOM     10  H   UNL     1       8.933  -1.443  25.918  0.00  0.00    +0.142 HD
ATOM     11  H   UNL     1       9.065  -2.734  26.987  0.00  0.00    +0.142 HD
ENDBRANCH   2   9
BRANCH   1  12
ATOM     12  C   UNL     1       9.762  -2.242  23.591  0.00  0.00    +0.121 C 
BRANCH  12  14
ATOM     13  C   UNL     1       9.366  -1.152  21.459  0.00  0.00    +0.105 C 
ATOM     14  N   UNL     1       9.398  -0.966  22.921  0.00  0.00    -0.298 NA
BRANCH  14  15
ATOM     15  C   UNL     1      10.348   0.133  23.283  0.00  0.00    +0.057 C 
ATOM     16  C   UNL     1      10.291   0.557  24.772  0.00  0.00    +0.019 C 
ATOM     17  C   UNL     1       8.941   1.166  25.148  0.00  0.00    +0.002 C 
ATOM     18  C   UNL     1       8.613   2.372  24.270  0.00  0.00    +0.000 C 
ATOM     19  C   UNL     1       8.747   2.059  22.782  0.00  0.00    +0.002 C 
ATOM     20  C   UNL     1      10.104   1.427  22.463  0.00  0.00    +0.019 C 
ENDBRANCH  14  15
ENDBRANCH  12  14
ENDBRANCH   1  12
TORSDOF 4
ENDMDL
MODEL 3
REMARK VINA RESULT:      -5.6      2.994      6.022
REMARK  Name = 
REMARK  5 active torsions:
REMARK  status: ('A' for Active; 'I' for Inactive)
REMARK    1  A    between atoms: C_1  and  N_2
REMARK    2  A    between atoms: N_2  and  C_3
REMARK    3  A    between atoms: N_2  and  C_13
REMARK    4  A    between atoms: C_3  and  C_4
REMARK    5  A    between atoms: C_11  and  N_12
REMARK                            x       y       z     vdW  Elec       q    Type
REMARK                         _______ _______ _______ _____ _____    ______ ____
ROOT
ATOM      1  C   UNL     1       9.208  -1.790  24.313  0.00  0.00    -0.011 A 
ATOM      2  C   UNL     1       9.676  -0.914  23.306  0.00  0.00    +0.043 A 
ATOM      3  C   UNL     1       9.377   0.464  23.420  0.00  0.00    +0.040 A 
ATOM      4 BR   UNL     1       9.946   1.695  22.083  0.00  0.00    -0.048 Br
ATOM      5  C   UNL     1       8.684   0.978  24.515  0.00  0.00    +0.032 A 
ATOM      6  C   UNL     1       8.215   0.108  25.489  0.00  0.00    +0.019 A 
ATOM      7 BR   UNL     1       7.261   0.784  26.973  0.00  0.00    -0.050 Br
ATOM      8  C   UNL     1       8.450  -1.262  25.380  0.00  0.00    +0.022 A 
ENDROOT
BRANCH   2   9
ATOM      9  N   UNL     1      10.221  -1.411  22.105  0.00  0.00    -0.357 N 
ATOM     10  H   UNL     1      11.221  -1.571  22.099  0.00  0.00    +0.142 HD
ATOM     11  H   UNL     1       9.916  -0.886  21.290  0.00  0.00    +0.142 HD
ENDBRANCH   2   9
BRANCH   1  12
ATOM     12  C   UNL     1       9.431  -3.297  24.225  0.00  0.00    +0.121 C 
BRANCH  12  14
ATOM     13  C   UNL     1       8.675  -5.205  25.520  0.00  0.00    +0.105 C 
ATOM     14  N   UNL     1       8.268  -4.158  24.565  0.00  0.00    -0.298 NA
BRANCH  14  15
ATOM     15  C   UNL     1       7.668  -4.777  23.342  0.00  0.00    +0.057 C 
ATOM     16  C   UNL     1       7.258  -3.757  22.250  0.00  0.00    +0.019 C 
ATOM     17  C   UNL     1       6.139  -2.828  22.719  0.00  0.00    +0.002 C 
ATOM     18  C   UNL     1       4.907  -3.620  23.154  0.00  0.00    +0.000 C 
ATOM     19  C   UNL     1       5.249  -4.718  24.159  0.00  0.00    +0.002 C 
ATOM     20  C   UNL     1       6.392  -5.601  23.654  0.00  0.00    +0.019 C 
ENDBRANCH  14  15
ENDBRANCH  12  14
ENDBRANCH   1  12
TORSDOF 4
ENDMDL
MODEL 4
REMARK VINA RESULT:      -5.6      1.555      3.084
REMARK  Name = 
REMARK  5 active torsions:
REMARK  status: ('A' for Active; 'I' for Inactive)
REMARK    1  A    between atoms: C_1  and  N_2
REMARK    2  A    between atoms: N_2  and  C_3
REMARK    3  A    between atoms: N_2  and  C_13
REMARK    4  A    between atoms: C_3  and  C_4
REMARK    5  A    between atoms: C_11  and  N_12
REMARK                            x       y       z     vdW  Elec       q    Type
REMARK                         _______ _______ _______ _____ _____    ______ ____
ROOT
ATOM      1  C   UNL     1       7.060  -2.417  23.885  0.00  0.00    -0.011 A 
ATOM      2  C   UNL     1       6.465  -3.205  22.871  0.00  0.00    +0.043 A 
ATOM      3  C   UNL     1       6.919  -4.534  22.698  0.00  0.00    +0.040 A 
ATOM      4 BR   UNL     1       6.187  -5.639  21.331  0.00  0.00    -0.048 Br
ATOM      5  C   UNL     1       7.892  -5.093  23.527  0.00  0.00    +0.032 A 
ATOM      6  C   UNL     1       8.479  -4.306  24.506  0.00  0.00    +0.019 A 
ATOM      7 BR   UNL     1       9.809  -5.041  25.629  0.00  0.00    -0.050 Br
ATOM      8  C   UNL     1       8.090  -2.977  24.670  0.00  0.00    +0.022 A 
ENDROOT
BRANCH   2   9
ATOM      9  N   UNL     1       5.614  -2.628  21.908  0.00  0.00    -0.357 N 
ATOM     10  H   UNL     1       5.780  -2.894  20.945  0.00  0.00    +0.142 HD
ATOM     11  H   UNL     1       5.528  -1.621  22.014  0.00  0.00    +0.142 HD
ENDBRANCH   2   9
BRANCH   1  12
ATOM     12  C   UNL     1       6.673  -0.955  24.088  0.00  0.00    +0.121 C 
BRANCH  12  14
ATOM     13  C   UNL     1       7.813   0.156  25.919  0.00  0.00    +0.105 C 
ATOM     14  N   UNL     1       7.772  -0.026  24.456  0.00  0.00    -0.298 NA
BRANCH  14  15
ATOM     15  C   UNL     1       7.622   1.298  23.773  0.00  0.00    +0.057 C 
ATOM     16  C   UNL     1       7.610   1.217  22.227  0.00  0.00    +0.019 C 
ATOM     17  C   UNL     1       8.941   0.716  21.665  0.00  0.00    +0.002 C 
ATOM     18  C   UNL     1      10.100   1.605  22.112  0.00  0.00    +0.000 C 
ATOM     19  C   UNL     1      10.119   1.817  23.624  0.00  0.00    +0.002 C 
ATOM     20  C   UNL     1       8.757   2.290  24.139  0.00  0.00    +0.019 C 
ENDBRANCH  14  15
ENDBRANCH  12  14
ENDBRANCH   1  12
TORSDOF 4
ENDMDL
MODEL 5
REMARK VINA RESULT:      -5.5      2.332      3.230
REMARK  Name = 
REMARK  5 active torsions:
REMARK  status: ('A' for Active; 'I' for Inactive)
REMARK    1  A    between atoms: C_1  and  N_2
REMARK    2  A    between atoms: N_2  and  C_3
REMARK    3  A    between atoms: N_2  and  C_13
REMARK    4  A    between atoms: C_3  and  C_4
REMARK    5  A    between atoms: C_11  and  N_12
REMARK                            x       y       z     vdW  Elec       q    Type
REMARK                         _______ _______ _______ _____ _____    ______ ____
ROOT
ATOM      1  C   UNL     1       8.422  -2.070  25.141  0.00  0.00    -0.011 A 
ATOM      2  C   UNL     1       8.296  -3.388  25.642  0.00  0.00    +0.043 A 
ATOM      3  C   UNL     1       7.223  -3.676  26.518  0.00  0.00    +0.040 A 
ATOM      4 BR   UNL     1       7.014  -5.419  27.256  0.00  0.00    -0.048 Br
ATOM      5  C   UNL     1       6.270  -2.715  26.854  0.00  0.00    +0.032 A 
ATOM      6  C   UNL     1       6.412  -1.423  26.370  0.00  0.00    +0.019 A 
ATOM      7 BR   UNL     1       5.139  -0.104  26.827  0.00  0.00    -0.050 Br
ATOM      8  C   UNL     1       7.487  -1.094  25.545  0.00  0.00    +0.022 A 
ENDROOT
BRANCH   2   9
ATOM      9  N   UNL     1       9.328  -4.333  25.470  0.00  0.00    -0.357 N 
ATOM     10  H   UNL     1       9.075  -5.303  25.607  0.00  0.00    +0.142 HD
ATOM     11  H   UNL     1      10.173  -4.085  25.976  0.00  0.00    +0.142 HD
ENDBRANCH   2   9
BRANCH   1  12
ATOM     12  C   UNL     1       9.590  -1.666  24.247  0.00  0.00    +0.121 C 
BRANCH  12  14
ATOM     13  C   UNL     1       9.177  -1.493  21.862  0.00  0.00    +0.105 C 
ATOM     14  N   UNL     1       9.275  -0.741  23.127  0.00  0.00    -0.298 NA
BRANCH  14  15
ATOM     15  C   UNL     1      10.299   0.343  23.007  0.00  0.00    +0.057 C 
ATOM     16  C   UNL     1      10.482   1.189  24.292  0.00  0.00    +0.019 C 
ATOM     17  C   UNL     1       9.222   1.978  24.648  0.00  0.00    +0.002 C 
ATOM     18  C   UNL     1       8.800   2.894  23.500  0.00  0.00    +0.000 C 
ATOM     19  C   UNL     1       8.697   2.148  22.172  0.00  0.00    +0.002 C 
ATOM     20  C   UNL     1       9.971   1.353  21.877  0.00  0.00    +0.019 C 
ENDBRANCH  14  15
ENDBRANCH  12  14
ENDBRANCH   1  12
TORSDOF 4
ENDMDL
MODEL 6
REMARK VINA RESULT:      -5.4      1.267      1.563
REMARK  Name = 
REMARK  5 active torsions:
REMARK  status: ('A' for Active; 'I' for Inactive)
REMARK    1  A    between atoms: C_1  and  N_2
REMARK    2  A    between atoms: N_2  and  C_3
REMARK    3  A    between atoms: N_2  and  C_13
REMARK    4  A    between atoms: C_3  and  C_4
REMARK    5  A    between atoms: C_11  and  N_12
REMARK                            x       y       z     vdW  Elec       q    Type
REMARK                         _______ _______ _______ _____ _____    ______ ____
ROOT
ATOM      1  C   UNL     1       6.937  -2.207  23.454  0.00  0.00    -0.011 A 
ATOM      2  C   UNL     1       7.558  -2.579  24.670  0.00  0.00    +0.043 A 
ATOM      3  C   UNL     1       7.890  -3.940  24.867  0.00  0.00    +0.040 A 
ATOM      4 BR   UNL     1       8.697  -4.517  26.493  0.00  0.00    -0.048 Br
ATOM      5  C   UNL     1       7.666  -4.902  23.882  0.00  0.00    +0.032 A 
ATOM      6  C   UNL     1       7.041  -4.529  22.701  0.00  0.00    +0.019 A 
ATOM      7 BR   UNL     1       6.717  -5.821  21.362  0.00  0.00    -0.050 Br
ATOM      8  C   UNL     1       6.656  -3.205  22.497  0.00  0.00    +0.022 A 
ENDROOT
BRANCH   2   9
ATOM      9  N   UNL     1       7.640  -1.678  25.751  0.00  0.00    -0.357 N 
ATOM     10  H   UNL     1       8.103  -2.018  26.584  0.00  0.00    +0.142 HD
ATOM     11  H   UNL     1       6.747  -1.242  25.964  0.00  0.00    +0.142 HD
ENDBRANCH   2   9
BRANCH   1  12
ATOM     12  C   UNL     1       6.487  -0.772  23.196  0.00  0.00    +0.121 C 
BRANCH  12  14
ATOM     13  C   UNL     1       6.577   1.449  24.169  0.00  0.00    +0.105 C 
ATOM     14  N   UNL     1       7.379   0.302  23.707  0.00  0.00    -0.298 NA
BRANCH  14  15
ATOM     15  C   UNL     1       8.360   0.741  22.665  0.00  0.00    +0.057 C 
ATOM     16  C   UNL     1       9.584  -0.195  22.510  0.00  0.00    +0.019 C 
ATOM     17  C   UNL     1      10.449  -0.227  23.770  0.00  0.00    +0.002 C 
ATOM     18  C   UNL     1      10.932   1.173  24.146  0.00  0.00    +0.000 C 
ATOM     19  C   UNL     1       9.788   2.181  24.218  0.00  0.00    +0.002 C 
ATOM     20  C   UNL     1       8.937   2.153  22.946  0.00  0.00    +0.019 C 
ENDBRANCH  14  15
ENDBRANCH  12  14
ENDBRANCH   1  12
TORSDOF 4
ENDMDL
MODEL 7
REMARK VINA RESULT:      -5.4      3.150      5.837
REMARK  Name = 
REMARK  5 active torsions:
REMARK  status: ('A' for Active; 'I' for Inactive)
REMARK    1  A    between atoms: C_1  and  N_2
REMARK    2  A    between atoms: N_2  and  C_3
REMARK    3  A    between atoms: N_2  and  C_13
REMARK    4  A    between atoms: C_3  and  C_4
REMARK    5  A    between atoms: C_11  and  N_12
REMARK                            x       y       z     vdW  Elec       q    Type
REMARK                         _______ _______ _______ _____ _____    ______ ____
ROOT
ATOM      1  C   UNL     1       9.219  -1.545  24.407  0.00  0.00    -0.011 A 
ATOM      2  C   UNL     1       8.429  -1.160  25.516  0.00  0.00    +0.043 A 
ATOM      3  C   UNL     1       8.209   0.220  25.740  0.00  0.00    +0.040 A 
ATOM      4 BR   UNL     1       7.183   0.809  27.233  0.00  0.00    -0.048 Br
ATOM      5  C   UNL     1       8.707   1.194  24.875  0.00  0.00    +0.032 A 
ATOM      6  C   UNL     1       9.494   0.806  23.801  0.00  0.00    +0.019 A 
ATOM      7 BR   UNL     1      10.190   2.113  22.627  0.00  0.00    -0.050 Br
ATOM      8  C   UNL     1       9.771  -0.542  23.581  0.00  0.00    +0.022 A 
ENDROOT
BRANCH   2   9
ATOM      9  N   UNL     1       8.059  -2.094  26.504  0.00  0.00    -0.357 N 
ATOM     10  H   UNL     1       8.585  -2.066  27.368  0.00  0.00    +0.142 HD
ATOM     11  H   UNL     1       7.979  -3.039  26.138  0.00  0.00    +0.142 HD
ENDBRANCH   2   9
BRANCH   1  12
ATOM     12  C   UNL     1       9.557  -3.008  24.139  0.00  0.00    +0.121 C 
BRANCH  12  14
ATOM     13  C   UNL     1       8.941  -5.207  24.960  0.00  0.00    +0.105 C 
ATOM     14  N   UNL     1       8.448  -3.983  24.303  0.00  0.00    -0.298 NA
BRANCH  14  15
ATOM     15  C   UNL     1       7.815  -4.319  22.988  0.00  0.00    +0.057 C 
ATOM     16  C   UNL     1       7.121  -3.122  22.293  0.00  0.00    +0.019 C 
ATOM     17  C   UNL     1       5.929  -2.601  23.096  0.00  0.00    +0.002 C 
ATOM     18  C   UNL     1       4.901  -3.704  23.342  0.00  0.00    +0.000 C 
ATOM     19  C   UNL     1       5.532  -4.962  23.935  0.00  0.00    +0.002 C 
ATOM     20  C   UNL     1       6.735  -5.426  23.111  0.00  0.00    +0.019 C 
ENDBRANCH  14  15
ENDBRANCH  12  14
ENDBRANCH   1  12
TORSDOF 4
ENDMDL
MODEL 8
REMARK VINA RESULT:      -5.3      3.793      6.502
REMARK  Name = 
REMARK  5 active torsions:
REMARK  status: ('A' for Active; 'I' for Inactive)
REMARK    1  A    between atoms: C_1  and  N_2
REMARK    2  A    between atoms: N_2  and  C_3
REMARK    3  A    between atoms: N_2  and  C_13
REMARK    4  A    between atoms: C_3  and  C_4
REMARK    5  A    between atoms: C_11  and  N_12
REMARK                            x       y       z     vdW  Elec       q    Type
REMARK                         _______ _______ _______ _____ _____    ______ ____
ROOT
ATOM      1  C   UNL     1       9.000   2.339  22.912  0.00  0.00    -0.011 A 
ATOM      2  C   UNL     1       9.596   3.563  23.299  0.00  0.00    +0.043 A 
ATOM      3  C   UNL     1       8.761   4.690  23.485  0.00  0.00    +0.040 A 
ATOM      4 BR   UNL     1       9.500   6.376  23.972  0.00  0.00    -0.048 Br
ATOM      5  C   UNL     1       7.376   4.609  23.347  0.00  0.00    +0.032 A 
ATOM      6  C   UNL     1       6.804   3.409  22.952  0.00  0.00    +0.019 A 
ATOM      7 BR   UNL     1       4.930   3.284  22.745  0.00  0.00    -0.050 Br
ATOM      8  C   UNL     1       7.604   2.293  22.711  0.00  0.00    +0.022 A 
ENDROOT
BRANCH   2   9
ATOM      9  N   UNL     1      10.996   3.729  23.277  0.00  0.00    -0.357 N 
ATOM     10  H   UNL     1      11.547   2.926  23.550  0.00  0.00    +0.142 HD
ATOM     11  H   UNL     1      11.296   4.576  23.752  0.00  0.00    +0.142 HD
ENDBRANCH   2   9
BRANCH   1  12
ATOM     12  C   UNL     1       9.841   1.099  22.626  0.00  0.00    +0.121 C 
BRANCH  12  14
ATOM     13  C   UNL     1      10.757   0.257  24.709  0.00  0.00    +0.105 C 
ATOM     14  N   UNL     1       9.777   0.010  23.635  0.00  0.00    -0.298 NA
BRANCH  14  15
ATOM     15  C   UNL     1      10.017  -1.329  23.012  0.00  0.00    +0.057 C 
ATOM     16  C   UNL     1       9.009  -1.701  21.897  0.00  0.00    +0.019 C 
ATOM     17  C   UNL     1       7.585  -1.849  22.432  0.00  0.00    +0.002 C 
ATOM     18  C   UNL     1       7.516  -2.898  23.540  0.00  0.00    +0.000 C 
ATOM     19  C   UNL     1       8.556  -2.656  24.633  0.00  0.00    +0.002 C 
ATOM     20  C   UNL     1       9.958  -2.487  24.042  0.00  0.00    +0.019 C 
ENDBRANCH  14  15
ENDBRANCH  12  14
ENDBRANCH   1  12
TORSDOF 4
ENDMDL
MODEL 9
REMARK VINA RESULT:      -5.3      1.856      3.177
REMARK  Name = 
REMARK  5 active torsions:
REMARK  status: ('A' for Active; 'I' for Inactive)
REMARK    1  A    between atoms: C_1  and  N_2
REMARK    2  A    between atoms: N_2  and  C_3
REMARK    3  A    between atoms: N_2  and  C_13
REMARK    4  A    between atoms: C_3  and  C_4
REMARK    5  A    between atoms: C_11  and  N_12
REMARK                            x       y       z     vdW  Elec       q    Type
REMARK                         _______ _______ _______ _____ _____    ______ ____
ROOT
ATOM      1  C   UNL     1       6.714  -2.451  24.657  0.00  0.00    -0.011 A 
ATOM      2  C   UNL     1       6.888  -3.163  23.447  0.00  0.00    +0.043 A 
ATOM      3  C   UNL     1       6.861  -4.577  23.488  0.00  0.00    +0.040 A 
ATOM      4 BR   UNL     1       7.123  -5.598  21.902  0.00  0.00    -0.048 Br
ATOM      5  C   UNL     1       6.620  -5.274  24.670  0.00  0.00    +0.032 A 
ATOM      6  C   UNL     1       6.467  -4.566  25.854  0.00  0.00    +0.019 A 
ATOM      7 BR   UNL     1       6.154  -5.494  27.470  0.00  0.00    -0.050 Br
ATOM      8  C   UNL     1       6.538  -3.174  25.856  0.00  0.00    +0.022 A 
ENDROOT
BRANCH   2   9
ATOM      9  N   UNL     1       7.306  -2.507  22.271  0.00  0.00    -0.357 N 
ATOM     10  H   UNL     1       8.013  -1.791  22.384  0.00  0.00    +0.142 HD
ATOM     11  H   UNL     1       6.526  -2.186  21.705  0.00  0.00    +0.142 HD
ENDBRANCH   2   9
BRANCH   1  12
ATOM     12  C   UNL     1       6.799  -0.928  24.705  0.00  0.00    +0.121 C 
BRANCH  12  14
ATOM     13  C   UNL     1       8.985  -0.584  25.701  0.00  0.00    +0.105 C 
ATOM     14  N   UNL     1       8.148  -0.335  24.513  0.00  0.00    -0.298 NA
BRANCH  14  15
ATOM     15  C   UNL     1       8.066   1.133  24.235  0.00  0.00    +0.057 C 
ATOM     16  C   UNL     1       7.607   1.483  22.798  0.00  0.00    +0.019 C 
ATOM     17  C   UNL     1       8.608   1.015  21.742  0.00  0.00    +0.002 C 
ATOM     18  C   UNL     1       9.992   1.613  21.987  0.00  0.00    +0.000 C 
ATOM     19  C   UNL     1      10.472   1.396  23.420  0.00  0.00    +0.002 C 
ATOM     20  C   UNL     1       9.423   1.856  24.436  0.00  0.00    +0.019 C 
ENDBRANCH  14  15
ENDBRANCH  12  14
ENDBRANCH   1  12
TORSDOF 4
ENDMDL
