MODEL 1
REMARK VINA RESULT:      -6.5      0.000      0.000
REMARK  Name = 
REMARK  6 active torsions:
REMARK  status: ('A' for Active; 'I' for Inactive)
REMARK    1  A    between atoms: O_1  and  C_2
REMARK    2  A    between atoms: C_2  and  C_3
REMARK    3  A    between atoms: C_2  and  C_11
REMARK    4  A    between atoms: C_2  and  C_16
REMARK    5  A    between atoms: C_3  and  C_4
REMARK    6  A    between atoms: C_4  and  N_5
REMARK                            x       y       z     vdW  Elec       q    Type
REMARK                         _______ _______ _______ _____ _____    ______ ____
ROOT
ATOM      1  C   UNL     1       8.311  -3.330  23.988  0.00  0.00    +0.095 C 
ENDROOT
BRANCH   1   2
ATOM      2  C   UNL     1       7.597  -3.845  25.244  0.00  0.00    -0.016 A 
ATOM      3  C   UNL     1       6.327  -3.369  25.612  0.00  0.00    +0.006 A 
ATOM      4  C   UNL     1       5.664  -3.870  26.740  0.00  0.00    +0.000 A 
ATOM      5  C   UNL     1       6.259  -4.851  27.527  0.00  0.00    +0.000 A 
ATOM      6  C   UNL     1       7.521  -5.329  27.192  0.00  0.00    +0.000 A 
ATOM      7  C   UNL     1       8.181  -4.829  26.064  0.00  0.00    +0.006 A 
ENDBRANCH   1   2
BRANCH   1   8
ATOM      8  C   UNL     1       7.850  -4.103  22.698  0.00  0.00    +0.025 C 
ATOM      9  C   UNL     1       6.556  -3.605  22.038  0.00  0.00    +0.007 C 
ATOM     10  C   UNL     1       5.960  -4.810  21.298  0.00  0.00    +0.000 C 
ATOM     11  C   UNL     1       6.814  -6.015  21.659  0.00  0.00    +0.000 C 
ATOM     12  C   UNL     1       7.548  -5.598  22.919  0.00  0.00    +0.007 C 
ENDBRANCH   1   8
BRANCH   1  13
ATOM     13  O   UNL     1       9.723  -3.523  24.157  0.00  0.00    -0.384 OA
ATOM     14  H   UNL     1       9.870  -4.403  24.538  0.00  0.00    +0.211 HD
ENDBRANCH   1  13
BRANCH   1  15
ATOM     15  C   UNL     1       8.055  -1.822  23.732  0.00  0.00    +0.055 C 
BRANCH  15  16
ATOM     16  C   UNL     1       8.885  -0.789  24.507  0.00  0.00    +0.087 C 
BRANCH  16  17
ATOM     17  N   UNL     1      10.194  -0.559  23.844  0.00  0.00    -0.302 NA
ATOM     18  C   UNL     1      10.929   0.638  24.288  0.00  0.00    +0.084 C 
ATOM     19  C   UNL     1      10.257   1.943  23.863  0.00  0.00    +0.015 C 
ATOM     20  C   UNL     1      10.164   1.998  22.344  0.00  0.00    +0.002 C 
ATOM     21  C   UNL     1       9.495   0.741  21.789  0.00  0.00    +0.015 C 
ATOM     22  C   UNL     1      10.085  -0.550  22.375  0.00  0.00    +0.084 C 
ENDBRANCH  16  17
ENDBRANCH  15  16
ENDBRANCH   1  15
TORSDOF 6
ENDMDL
MODEL 2
REMARK VINA RESULT:      -6.3      1.751      6.183
REMARK  Name = 
REMARK  6 active torsions:
REMARK  status: ('A' for Active; 'I' for Inactive)
REMARK    1  A    between atoms: O_1  and  C_2
REMARK    2  A    between atoms: C_2  and  C_3
REMARK    3  A    between atoms: C_2  and  C_11
REMARK    4  A    between atoms: C_2  and  C_16
REMARK    5  A    between atoms: C_3  and  C_4
REMARK    6  A    between atoms: C_4  and  N_5
REMARK                            x       y       z     vdW  Elec       q    Type
REMARK                         _______ _______ _______ _____ _____    ______ ____
ROOT
ATOM      1  C   UNL     1       9.080  -1.779  23.596  0.00  0.00    +0.095 C 
ENDROOT
BRANCH   1   2
ATOM      2  C   UNL     1       9.599  -0.358  23.347  0.00  0.00    -0.016 A 
ATOM      3  C   UNL     1       9.453   0.267  22.097  0.00  0.00    +0.006 A 
ATOM      4  C   UNL     1       9.896   1.580  21.887  0.00  0.00    +0.000 A 
ATOM      5  C   UNL     1      10.499   2.292  22.918  0.00  0.00    +0.000 A 
ATOM      6  C   UNL     1      10.668   1.691  24.160  0.00  0.00    +0.000 A 
ATOM      7  C   UNL     1      10.223   0.381  24.370  0.00  0.00    +0.006 A 
ENDBRANCH   1   2
BRANCH   1   8
ATOM      8  C   UNL     1       8.560  -1.960  25.069  0.00  0.00    +0.025 C 
ATOM      9  C   UNL     1       8.592  -3.389  25.628  0.00  0.00    +0.007 C 
ATOM     10  C   UNL     1       7.496  -3.457  26.699  0.00  0.00    +0.000 C 
ATOM     11  C   UNL     1       6.745  -2.136  26.644  0.00  0.00    +0.000 C 
ATOM     12  C   UNL     1       7.088  -1.559  25.285  0.00  0.00    +0.007 C 
ENDBRANCH   1   8
BRANCH   1  13
ATOM     13  O   UNL     1      10.158  -2.702  23.375  0.00  0.00    -0.384 OA
ATOM     14  H   UNL     1      10.983  -2.288  23.674  0.00  0.00    +0.211 HD
ENDBRANCH   1  13
BRANCH   1  15
ATOM     15  C   UNL     1       7.913  -2.163  22.650  0.00  0.00    +0.055 C 
BRANCH  15  16
ATOM     16  C   UNL     1       7.758  -3.630  22.223  0.00  0.00    +0.087 C 
BRANCH  16  17
ATOM     17  N   UNL     1       6.383  -3.892  21.725  0.00  0.00    -0.302 NA
ATOM     18  C   UNL     1       5.295  -3.578  22.667  0.00  0.00    +0.084 C 
ATOM     19  C   UNL     1       5.256  -4.520  23.869  0.00  0.00    +0.015 C 
ATOM     20  C   UNL     1       5.050  -5.952  23.389  0.00  0.00    +0.002 C 
ATOM     21  C   UNL     1       6.086  -6.330  22.331  0.00  0.00    +0.015 C 
ATOM     22  C   UNL     1       6.220  -5.270  21.230  0.00  0.00    +0.084 C 
ENDBRANCH  16  17
ENDBRANCH  15  16
ENDBRANCH   1  15
TORSDOF 6
ENDMDL
MODEL 3
REMARK VINA RESULT:      -6.2      1.785      5.841
REMARK  Name = 
REMARK  6 active torsions:
REMARK  status: ('A' for Active; 'I' for Inactive)
REMARK    1  A    between atoms: O_1  and  C_2
REMARK    2  A    between atoms: C_2  and  C_3
REMARK    3  A    between atoms: C_2  and  C_11
REMARK    4  A    between atoms: C_2  and  C_16
REMARK    5  A    between atoms: C_3  and  C_4
REMARK    6  A    between atoms: C_4  and  N_5
REMARK                            x       y       z     vdW  Elec       q    Type
REMARK                         _______ _______ _______ _____ _____    ______ ____
ROOT
ATOM      1  C   UNL     1       8.773  -3.131  24.525  0.00  0.00    +0.095 C 
ENDROOT
BRANCH   1   2
ATOM      2  C   UNL     1       7.762  -3.791  23.580  0.00  0.00    -0.016 A 
ATOM      3  C   UNL     1       6.796  -3.033  22.895  0.00  0.00    +0.006 A 
ATOM      4  C   UNL     1       5.899  -3.637  22.004  0.00  0.00    +0.000 A 
ATOM      5  C   UNL     1       5.943  -5.010  21.786  0.00  0.00    +0.000 A 
ATOM      6  C   UNL     1       6.879  -5.784  22.462  0.00  0.00    +0.000 A 
ATOM      7  C   UNL     1       7.776  -5.180  23.350  0.00  0.00    +0.006 A 
ENDBRANCH   1   2
BRANCH   1   8
ATOM      8  C   UNL     1       8.991  -1.613  24.177  0.00  0.00    +0.025 C 
ATOM      9  C   UNL     1      10.161  -1.297  23.235  0.00  0.00    +0.007 C 
ATOM     10  C   UNL     1      10.599   0.138  23.558  0.00  0.00    +0.000 C 
ATOM     11  C   UNL     1       9.796   0.579  24.772  0.00  0.00    +0.000 C 
ATOM     12  C   UNL     1       9.297  -0.713  25.389  0.00  0.00    +0.007 C 
ENDBRANCH   1   8
BRANCH   1  13
ATOM     13  O   UNL     1      10.028  -3.816  24.397  0.00  0.00    -0.384 OA
ATOM     14  H   UNL     1      10.743  -3.177  24.546  0.00  0.00    +0.211 HD
ENDBRANCH   1  13
BRANCH   1  15
ATOM     15  C   UNL     1       8.334  -3.199  26.011  0.00  0.00    +0.055 C 
BRANCH  15  16
ATOM     16  C   UNL     1       8.071  -4.574  26.643  0.00  0.00    +0.087 C 
BRANCH  16  17
ATOM     17  N   UNL     1       6.869  -4.534  27.513  0.00  0.00    -0.302 NA
ATOM     18  C   UNL     1       6.155  -5.813  27.670  0.00  0.00    +0.084 C 
ATOM     19  C   UNL     1       5.460  -6.270  26.389  0.00  0.00    +0.015 C 
ATOM     20  C   UNL     1       4.439  -5.224  25.961  0.00  0.00    +0.002 C 
ATOM     21  C   UNL     1       5.079  -3.839  25.866  0.00  0.00    +0.015 C 
ATOM     22  C   UNL     1       5.915  -3.489  27.104  0.00  0.00    +0.084 C 
ENDBRANCH  16  17
ENDBRANCH  15  16
ENDBRANCH   1  15
TORSDOF 6
ENDMDL
MODEL 4
REMARK VINA RESULT:      -6.0      1.748      2.530
REMARK  Name = 
REMARK  6 active torsions:
REMARK  status: ('A' for Active; 'I' for Inactive)
REMARK    1  A    between atoms: O_1  and  C_2
REMARK    2  A    between atoms: C_2  and  C_3
REMARK    3  A    between atoms: C_2  and  C_11
REMARK    4  A    between atoms: C_2  and  C_16
REMARK    5  A    between atoms: C_3  and  C_4
REMARK    6  A    between atoms: C_4  and  N_5
REMARK                            x       y       z     vdW  Elec       q    Type
REMARK                         _______ _______ _______ _____ _____    ______ ____
ROOT
ATOM      1  C   UNL     1       6.721  -2.615  23.402  0.00  0.00    +0.095 C 
ENDROOT
BRANCH   1   2
ATOM      2  C   UNL     1       7.577  -3.405  24.400  0.00  0.00    -0.016 A 
ATOM      3  C   UNL     1       8.255  -4.576  24.019  0.00  0.00    +0.006 A 
ATOM      4  C   UNL     1       9.066  -5.272  24.926  0.00  0.00    +0.000 A 
ATOM      5  C   UNL     1       9.209  -4.816  26.232  0.00  0.00    +0.000 A 
ATOM      6  C   UNL     1       8.539  -3.668  26.638  0.00  0.00    +0.000 A 
ATOM      7  C   UNL     1       7.732  -2.972  25.731  0.00  0.00    +0.006 A 
ENDBRANCH   1   2
BRANCH   1   8
ATOM      8  C   UNL     1       5.234  -3.125  23.381  0.00  0.00    +0.025 C 
ATOM      9  C   UNL     1       4.490  -3.095  24.723  0.00  0.00    +0.007 C 
ATOM     10  C   UNL     1       3.411  -4.183  24.642  0.00  0.00    +0.000 C 
ATOM     11  C   UNL     1       3.636  -4.929  23.336  0.00  0.00    +0.000 C 
ATOM     12  C   UNL     1       5.063  -4.593  22.947  0.00  0.00    +0.007 C 
ENDBRANCH   1   8
BRANCH   1  13
ATOM     13  O   UNL     1       7.281  -2.783  22.091  0.00  0.00    -0.384 OA
ATOM     14  H   UNL     1       7.139  -3.701  21.811  0.00  0.00    +0.211 HD
ENDBRANCH   1  13
BRANCH   1  15
ATOM     15  C   UNL     1       6.680  -1.098  23.721  0.00  0.00    +0.055 C 
BRANCH  15  16
ATOM     16  C   UNL     1       7.489  -0.135  22.841  0.00  0.00    +0.087 C 
BRANCH  16  17
ATOM     17  N   UNL     1       8.942  -0.434  22.928  0.00  0.00    -0.302 NA
ATOM     18  C   UNL     1       9.572  -0.147  24.228  0.00  0.00    +0.084 C 
ATOM     19  C   UNL     1       9.656   1.348  24.533  0.00  0.00    +0.015 C 
ATOM     20  C   UNL     1      10.483   2.042  23.459  0.00  0.00    +0.002 C 
ATOM     21  C   UNL     1       9.952   1.718  22.063  0.00  0.00    +0.015 C 
ATOM     22  C   UNL     1       9.714   0.216  21.856  0.00  0.00    +0.084 C 
ENDBRANCH  16  17
ENDBRANCH  15  16
ENDBRANCH   1  15
TORSDOF 6
ENDMDL
MODEL 5
REMARK VINA RESULT:      -6.0      1.844      2.597
REMARK  Name = 
REMARK  6 active torsions:
REMARK  status: ('A' for Active; 'I' for Inactive)
REMARK    1  A    between atoms: O_1  and  C_2
REMARK    2  A    between atoms: C_2  and  C_3
REMARK    3  A    between atoms: C_2  and  C_11
REMARK    4  A    between atoms: C_2  and  C_16
REMARK    5  A    between atoms: C_3  and  C_4
REMARK    6  A    between atoms: C_4  and  N_5
REMARK                            x       y       z     vdW  Elec       q    Type
REMARK                         _______ _______ _______ _____ _____    ______ ____
ROOT
ATOM      1  C   UNL     1       8.320  -2.784  23.672  0.00  0.00    +0.095 C 
ENDROOT
BRANCH   1   2
ATOM      2  C   UNL     1       7.851  -1.994  24.899  0.00  0.00    -0.016 A 
ATOM      3  C   UNL     1       8.764  -1.500  25.847  0.00  0.00    +0.006 A 
ATOM      4  C   UNL     1       8.332  -0.746  26.946  0.00  0.00    +0.000 A 
ATOM      5  C   UNL     1       6.980  -0.476  27.125  0.00  0.00    +0.000 A 
ATOM      6  C   UNL     1       6.054  -0.965  26.210  0.00  0.00    +0.000 A 
ATOM      7  C   UNL     1       6.487  -1.716  25.111  0.00  0.00    +0.006 A 
ENDBRANCH   1   2
BRANCH   1   8
ATOM      8  C   UNL     1       7.286  -3.898  23.268  0.00  0.00    +0.025 C 
ATOM      9  C   UNL     1       7.835  -5.329  23.177  0.00  0.00    +0.007 C 
ATOM     10  C   UNL     1       6.936  -6.073  22.180  0.00  0.00    +0.000 C 
ATOM     11  C   UNL     1       5.986  -5.042  21.591  0.00  0.00    +0.000 C 
ATOM     12  C   UNL     1       6.646  -3.707  21.879  0.00  0.00    +0.007 C 
ENDBRANCH   1   8
BRANCH   1  13
ATOM     13  O   UNL     1       9.571  -3.413  23.988  0.00  0.00    -0.384 OA
ATOM     14  H   UNL     1      10.214  -2.723  24.213  0.00  0.00    +0.211 HD
ENDBRANCH   1  13
BRANCH   1  15
ATOM     15  C   UNL     1       8.531  -1.884  22.427  0.00  0.00    +0.055 C 
BRANCH  15  16
ATOM     16  C   UNL     1       9.635  -0.818  22.464  0.00  0.00    +0.087 C 
BRANCH  16  17
ATOM     17  N   UNL     1       9.147   0.467  21.900  0.00  0.00    -0.302 NA
ATOM     18  C   UNL     1      10.086   1.598  21.991  0.00  0.00    +0.084 C 
ATOM     19  C   UNL     1      10.303   2.078  23.425  0.00  0.00    +0.015 C 
ATOM     20  C   UNL     1       8.976   2.534  24.018  0.00  0.00    +0.002 C 
ATOM     21  C   UNL     1       7.910   1.447  23.877  0.00  0.00    +0.015 C 
ATOM     22  C   UNL     1       7.844   0.865  22.458  0.00  0.00    +0.084 C 
ENDBRANCH  16  17
ENDBRANCH  15  16
ENDBRANCH   1  15
TORSDOF 6
ENDMDL
MODEL 6
REMARK VINA RESULT:      -5.9      1.268      3.867
REMARK  Name = 
REMARK  6 active torsions:
REMARK  status: ('A' for Active; 'I' for Inactive)
REMARK    1  A    between atoms: O_1  and  C_2
REMARK    2  A    between atoms: C_2  and  C_3
REMARK    3  A    between atoms: C_2  and  C_11
REMARK    4  A    between atoms: C_2  and  C_16
REMARK    5  A    between atoms: C_3  and  C_4
REMARK    6  A    between atoms: C_4  and  N_5
REMARK                            x       y       z     vdW  Elec       q    Type
REMARK                         _______ _______ _______ _____ _____    ______ ____
ROOT
ATOM      1  C   UNL     1       7.179  -2.951  24.696  0.00  0.00    +0.095 C 
ENDROOT
BRANCH   1   2
ATOM      2  C   UNL     1       6.992  -3.876  23.487  0.00  0.00    -0.016 A 
ATOM      3  C   UNL     1       7.694  -5.088  23.375  0.00  0.00    +0.006 A 
ATOM      4  C   UNL     1       7.490  -5.946  22.286  0.00  0.00    +0.000 A 
ATOM      5  C   UNL     1       6.587  -5.607  21.284  0.00  0.00    +0.000 A 
ATOM      6  C   UNL     1       5.890  -4.407  21.363  0.00  0.00    +0.000 A 
ATOM      7  C   UNL     1       6.092  -3.552  22.453  0.00  0.00    +0.006 A 
ENDBRANCH   1   2
BRANCH   1   8
ATOM      8  C   UNL     1       6.778  -3.662  26.040  0.00  0.00    +0.025 C 
ATOM      9  C   UNL     1       7.869  -4.509  26.710  0.00  0.00    +0.007 C 
ATOM     10  C   UNL     1       7.140  -5.578  27.533  0.00  0.00    +0.000 C 
ATOM     11  C   UNL     1       5.659  -5.444  27.215  0.00  0.00    +0.000 C 
ATOM     12  C   UNL     1       5.618  -4.669  25.913  0.00  0.00    +0.007 C 
ENDBRANCH   1   8
BRANCH   1  13
ATOM     13  O   UNL     1       6.343  -1.798  24.520  0.00  0.00    -0.384 OA
ATOM     14  H   UNL     1       5.486  -1.973  24.941  0.00  0.00    +0.211 HD
ENDBRANCH   1  13
BRANCH   1  15
ATOM     15  C   UNL     1       8.644  -2.468  24.856  0.00  0.00    +0.055 C 
BRANCH  15  16
ATOM     16  C   UNL     1       9.238  -1.541  23.785  0.00  0.00    +0.087 C 
BRANCH  16  17
ATOM     17  N   UNL     1       8.544  -0.227  23.781  0.00  0.00    -0.302 NA
ATOM     18  C   UNL     1       8.205   0.308  22.451  0.00  0.00    +0.084 C 
ATOM     19  C   UNL     1       9.434   0.727  21.645  0.00  0.00    +0.015 C 
ATOM     20  C   UNL     1      10.192   1.813  22.397  0.00  0.00    +0.002 C 
ATOM     21  C   UNL     1      10.502   1.375  23.828  0.00  0.00    +0.015 C 
ATOM     22  C   UNL     1       9.276   0.796  24.548  0.00  0.00    +0.084 C 
ENDBRANCH  16  17
ENDBRANCH  15  16
ENDBRANCH   1  15
TORSDOF 6
ENDMDL
MODEL 7
REMARK VINA RESULT:      -5.9      1.451      2.110
REMARK  Name = 
REMARK  6 active torsions:
REMARK  status: ('A' for Active; 'I' for Inactive)
REMARK    1  A    between atoms: O_1  and  C_2
REMARK    2  A    between atoms: C_2  and  C_3
REMARK    3  A    between atoms: C_2  and  C_11
REMARK    4  A    between atoms: C_2  and  C_16
REMARK    5  A    between atoms: C_3  and  C_4
REMARK    6  A    between atoms: C_4  and  N_5
REMARK                            x       y       z     vdW  Elec       q    Type
REMARK                         _______ _______ _______ _____ _____    ______ ____
ROOT
ATOM      1  C   UNL     1       7.532  -2.824  23.103  0.00  0.00    +0.095 C 
ENDROOT
BRANCH   1   2
ATOM      2  C   UNL     1       8.001  -3.494  24.399  0.00  0.00    -0.016 A 
ATOM      3  C   UNL     1       7.207  -3.484  25.559  0.00  0.00    +0.006 A 
ATOM      4  C   UNL     1       7.625  -4.131  26.730  0.00  0.00    +0.000 A 
ATOM      5  C   UNL     1       8.847  -4.794  26.768  0.00  0.00    +0.000 A 
ATOM      6  C   UNL     1       9.658  -4.807  25.639  0.00  0.00    +0.000 A 
ATOM      7  C   UNL     1       9.239  -4.163  24.469  0.00  0.00    +0.006 A 
ENDBRANCH   1   2
BRANCH   1   8
ATOM      8  C   UNL     1       6.553  -3.748  22.291  0.00  0.00    +0.025 C 
ATOM      9  C   UNL     1       5.252  -4.146  23.002  0.00  0.00    +0.007 C 
ATOM     10  C   UNL     1       4.817  -5.483  22.389  0.00  0.00    +0.000 C 
ATOM     11  C   UNL     1       5.933  -5.921  21.454  0.00  0.00    +0.000 C 
ATOM     12  C   UNL     1       7.140  -5.117  21.897  0.00  0.00    +0.007 C 
ENDBRANCH   1   8
BRANCH   1  13
ATOM     13  O   UNL     1       8.683  -2.550  22.290  0.00  0.00    -0.384 OA
ATOM     14  H   UNL     1       9.253  -1.925  22.765  0.00  0.00    +0.211 HD
ENDBRANCH   1  13
BRANCH   1  15
ATOM     15  C   UNL     1       6.791  -1.486  23.357  0.00  0.00    +0.055 C 
BRANCH  15  16
ATOM     16  C   UNL     1       7.438  -0.178  22.878  0.00  0.00    +0.087 C 
BRANCH  16  17
ATOM     17  N   UNL     1       7.697   0.733  24.022  0.00  0.00    -0.302 NA
ATOM     18  C   UNL     1       8.464   1.950  23.704  0.00  0.00    +0.084 C 
ATOM     19  C   UNL     1       9.920   1.660  23.344  0.00  0.00    +0.015 C 
ATOM     20  C   UNL     1      10.610   0.976  24.517  0.00  0.00    +0.002 C 
ATOM     21  C   UNL     1       9.824  -0.252  24.976  0.00  0.00    +0.015 C 
ATOM     22  C   UNL     1       8.328   0.040  25.159  0.00  0.00    +0.084 C 
ENDBRANCH  16  17
ENDBRANCH  15  16
ENDBRANCH   1  15
TORSDOF 6
ENDMDL
MODEL 8
REMARK VINA RESULT:      -5.8      2.029      6.348
REMARK  Name = 
REMARK  6 active torsions:
REMARK  status: ('A' for Active; 'I' for Inactive)
REMARK    1  A    between atoms: O_1  and  C_2
REMARK    2  A    between atoms: C_2  and  C_3
REMARK    3  A    between atoms: C_2  and  C_11
REMARK    4  A    between atoms: C_2  and  C_16
REMARK    5  A    between atoms: C_3  and  C_4
REMARK    6  A    between atoms: C_4  and  N_5
REMARK                            x       y       z     vdW  Elec       q    Type
REMARK                         _______ _______ _______ _____ _____    ______ ____
ROOT
ATOM      1  C   UNL     1       8.205  -1.031  24.114  0.00  0.00    +0.095 C 
ENDROOT
BRANCH   1   2
ATOM      2  C   UNL     1       8.970   0.208  23.634  0.00  0.00    -0.016 A 
ATOM      3  C   UNL     1       9.531   1.122  24.543  0.00  0.00    +0.006 A 
ATOM      4  C   UNL     1      10.262   2.232  24.098  0.00  0.00    +0.000 A 
ATOM      5  C   UNL     1      10.439   2.456  22.737  0.00  0.00    +0.000 A 
ATOM      6  C   UNL     1       9.883   1.576  21.816  0.00  0.00    +0.000 A 
ATOM      7  C   UNL     1       9.156   0.465  22.262  0.00  0.00    +0.006 A 
ENDBRANCH   1   2
BRANCH   1   8
ATOM      8  C   UNL     1       7.250  -0.695  25.317  0.00  0.00    +0.025 C 
ATOM      9  C   UNL     1       7.151  -1.759  26.419  0.00  0.00    +0.007 C 
ATOM     10  C   UNL     1       5.774  -1.576  27.071  0.00  0.00    +0.000 C 
ATOM     11  C   UNL     1       5.035  -0.530  26.252  0.00  0.00    +0.000 C 
ATOM     12  C   UNL     1       5.773  -0.491  24.928  0.00  0.00    +0.007 C 
ENDBRANCH   1   8
BRANCH   1  13
ATOM     13  O   UNL     1       9.157  -2.014  24.546  0.00  0.00    -0.384 OA
ATOM     14  H   UNL     1       9.995  -1.854  24.083  0.00  0.00    +0.211 HD
ENDBRANCH   1  13
BRANCH   1  15
ATOM     15  C   UNL     1       7.330  -1.660  22.999  0.00  0.00    +0.055 C 
BRANCH  15  16
ATOM     16  C   UNL     1       7.721  -3.036  22.440  0.00  0.00    +0.087 C 
BRANCH  16  17
ATOM     17  N   UNL     1       7.381  -4.114  23.404  0.00  0.00    -0.302 NA
ATOM     18  C   UNL     1       7.654  -5.486  22.945  0.00  0.00    +0.084 C 
ATOM     19  C   UNL     1       6.730  -5.931  21.812  0.00  0.00    +0.015 C 
ATOM     20  C   UNL     1       5.282  -5.884  22.285  0.00  0.00    +0.002 C 
ATOM     21  C   UNL     1       4.940  -4.514  22.870  0.00  0.00    +0.015 C 
ATOM     22  C   UNL     1       5.989  -4.024  23.878  0.00  0.00    +0.084 C 
ENDBRANCH  16  17
ENDBRANCH  15  16
ENDBRANCH   1  15
TORSDOF 6
ENDMDL
MODEL 9
REMARK VINA RESULT:      -5.8      2.006      5.234
REMARK  Name = 
REMARK  6 active torsions:
REMARK  status: ('A' for Active; 'I' for Inactive)
REMARK    1  A    between atoms: O_1  and  C_2
REMARK    2  A    between atoms: C_2  and  C_3
REMARK    3  A    between atoms: C_2  and  C_11
REMARK    4  A    between atoms: C_2  and  C_16
REMARK    5  A    between atoms: C_3  and  C_4
REMARK    6  A    between atoms: C_4  and  N_5
REMARK                            x       y       z     vdW  Elec       q    Type
REMARK                         _______ _______ _______ _____ _____    ______ ____
ROOT
ATOM      1  C   UNL     1       7.782  -1.558  24.663  0.00  0.00    +0.095 C 
ENDROOT
BRANCH   1   2
ATOM      2  C   UNL     1       8.167  -2.916  25.260  0.00  0.00    -0.016 A 
ATOM      3  C   UNL     1       7.460  -3.469  26.341  0.00  0.00    +0.006 A 
ATOM      4  C   UNL     1       7.793  -4.728  26.858  0.00  0.00    +0.000 A 
ATOM      5  C   UNL     1       8.844  -5.457  26.311  0.00  0.00    +0.000 A 
ATOM      6  C   UNL     1       9.568  -4.927  25.249  0.00  0.00    +0.000 A 
ATOM      7  C   UNL     1       9.233  -3.670  24.732  0.00  0.00    +0.006 A 
ENDBRANCH   1   2
BRANCH   1   8
ATOM      8  C   UNL     1       8.961  -0.933  23.830  0.00  0.00    +0.025 C 
ATOM      9  C   UNL     1       9.870   0.052  24.578  0.00  0.00    +0.007 C 
ATOM     10  C   UNL     1      10.454   0.992  23.516  0.00  0.00    +0.000 C 
ATOM     11  C   UNL     1       9.767   0.651  22.202  0.00  0.00    +0.000 C 
ATOM     12  C   UNL     1       8.516  -0.102  22.610  0.00  0.00    +0.007 C 
ENDBRANCH   1   8
BRANCH   1  13
ATOM     13  O   UNL     1       7.457  -0.664  25.738  0.00  0.00    -0.384 OA
ATOM     14  H   UNL     1       6.491  -0.613  25.814  0.00  0.00    +0.211 HD
ENDBRANCH   1  13
BRANCH   1  15
ATOM     15  C   UNL     1       6.555  -1.647  23.719  0.00  0.00    +0.055 C 
BRANCH  15  16
ATOM     16  C   UNL     1       5.434  -2.642  24.055  0.00  0.00    +0.087 C 
BRANCH  16  17
ATOM     17  N   UNL     1       5.008  -3.386  22.843  0.00  0.00    -0.302 NA
ATOM     18  C   UNL     1       4.459  -4.732  23.084  0.00  0.00    +0.084 C 
ATOM     19  C   UNL     1       5.511  -5.727  23.572  0.00  0.00    +0.015 C 
ATOM     20  C   UNL     1       6.611  -5.860  22.527  0.00  0.00    +0.002 C 
ATOM     21  C   UNL     1       7.175  -4.492  22.146  0.00  0.00    +0.015 C 
ATOM     22  C   UNL     1       6.076  -3.467  21.831  0.00  0.00    +0.084 C 
ENDBRANCH  16  17
ENDBRANCH  15  16
ENDBRANCH   1  15
TORSDOF 6
ENDMDL
