MODEL 1
REMARK VINA RESULT:      -7.1      0.000      0.000
REMARK  Name = 
REMARK  9 active torsions:
REMARK  status: ('A' for Active; 'I' for Inactive)
REMARK    1  A    between atoms: C_1  and  C_2
REMARK    2  A    between atoms: C_2  and  N_3
REMARK    3  A    between atoms: C_4  and  C_6
REMARK    4  A    between atoms: C_9  and  C_24
REMARK    5  A    between atoms: C_10  and  C_11
REMARK    6  A    between atoms: C_14  and  C_15
REMARK    7  A    between atoms: C_15  and  N_16
REMARK    8  A    between atoms: C_25  and  O_26
REMARK    9  A    between atoms: C_28  and  O_29
REMARK                            x       y       z     vdW  Elec       q    Type
REMARK                         _______ _______ _______ _____ _____    ______ ____
ROOT
ATOM      1  C   UNL     1       9.069  -1.696  24.369  0.00  0.00    +0.176 A 
ATOM      2  C   UNL     1       7.776  -1.171  24.045  0.00  0.00    +0.061 A 
ATOM      3  C   UNL     1       8.025   0.161  23.735  0.00  0.00    +0.179 A 
ATOM      4  O   UNL     1       9.362   0.395  23.852  0.00  0.00    -0.353 OA
ATOM      5  N   UNL     1      10.018  -0.751  24.234  0.00  0.00    -0.072 NA
ENDROOT
BRANCH   3   6
ATOM      6  C   UNL     1       7.256   1.332  23.306  0.00  0.00    +0.064 A 
ATOM      7  C   UNL     1       6.067   1.686  23.964  0.00  0.00    +0.039 A 
ATOM      8  C   UNL     1       5.340   2.821  23.585  0.00  0.00    +0.083 A 
ATOM      9 CL   UNL     1       3.928   3.234  24.488  0.00  0.00    -0.080 Cl
ATOM     10  C   UNL     1       5.769   3.601  22.509  0.00  0.00    +0.139 A 
ATOM     11  C   UNL     1       6.935   3.263  21.830  0.00  0.00    +0.093 A 
ATOM     12  C   UNL     1       7.676   2.148  22.238  0.00  0.00    +0.131 A 
BRANCH  10  13
ATOM     13  O   UNL     1       5.049   4.698  22.124  0.00  0.00    -0.505 OA
ATOM     14  H   UNL     1       4.314   4.837  22.743  0.00  0.00    +0.292 HD
ENDBRANCH  10  13
BRANCH  12  15
ATOM     15  O   UNL     1       8.838   1.940  21.541  0.00  0.00    -0.506 OA
ATOM     16  H   UNL     1       9.523   1.595  22.142  0.00  0.00    +0.292 HD
ENDBRANCH  12  15
ENDBRANCH   3   6
BRANCH   2  17
ATOM     17  C   UNL     1       6.475  -1.820  23.918  0.00  0.00    -0.012 A 
ATOM     18  C   UNL     1       6.144  -2.535  22.763  0.00  0.00    +0.009 A 
ATOM     19  C   UNL     1       5.077  -3.434  22.769  0.00  0.00    +0.005 A 
ATOM     20  C   UNL     1       4.280  -3.585  23.909  0.00  0.00    -0.033 A 
ATOM     21  C   UNL     1       4.498  -2.738  24.999  0.00  0.00    +0.005 A 
ATOM     22  C   UNL     1       5.596  -1.869  25.009  0.00  0.00    +0.009 A 
BRANCH  20  23
ATOM     23  C   UNL     1       3.289  -4.727  23.992  0.00  0.00    +0.119 C 
BRANCH  23  24
ATOM     24  N   UNL     1       3.704  -5.968  23.324  0.00  0.00    -0.294 NA
ATOM     25  C   UNL     1       2.517  -6.803  23.016  0.00  0.00    +0.113 C 
ATOM     26  C   UNL     1       1.888  -7.483  24.246  0.00  0.00    +0.175 C 
ATOM     27  O   UNL     1       2.851  -8.259  24.968  0.00  0.00    -0.377 OA
ATOM     28  C   UNL     1       3.968  -7.452  25.360  0.00  0.00    +0.175 C 
ATOM     29  C   UNL     1       4.630  -6.780  24.145  0.00  0.00    +0.113 C 
ENDBRANCH  23  24
ENDBRANCH  20  23
ENDBRANCH   2  17
BRANCH   1  32
ATOM     30  N   UNL     1       8.806  -3.453  25.978  0.00  0.00    -0.310 N 
ATOM     31  H   UNL     1       8.116  -2.827  26.380  0.00  0.00    +0.149 HD
ATOM     32  C   UNL     1       9.433  -3.044  24.820  0.00  0.00    +0.266 C 
ATOM     33  O   UNL     1      10.230  -3.756  24.210  0.00  0.00    -0.268 OA
BRANCH  30  35
ATOM     34  C   UNL     1       7.574  -5.413  26.753  0.00  0.00    +0.024 C 
ATOM     35  C   UNL     1       8.937  -4.801  26.486  0.00  0.00    +0.101 C 
ENDBRANCH  30  35
ENDBRANCH   1  32
TORSDOF 8
ENDMDL
MODEL 2
REMARK VINA RESULT:      -7.0      3.571      6.788
REMARK  Name = 
REMARK  9 active torsions:
REMARK  status: ('A' for Active; 'I' for Inactive)
REMARK    1  A    between atoms: C_1  and  C_2
REMARK    2  A    between atoms: C_2  and  N_3
REMARK    3  A    between atoms: C_4  and  C_6
REMARK    4  A    between atoms: C_9  and  C_24
REMARK    5  A    between atoms: C_10  and  C_11
REMARK    6  A    between atoms: C_14  and  C_15
REMARK    7  A    between atoms: C_15  and  N_16
REMARK    8  A    between atoms: C_25  and  O_26
REMARK    9  A    between atoms: C_28  and  O_29
REMARK                            x       y       z     vdW  Elec       q    Type
REMARK                         _______ _______ _______ _____ _____    ______ ____
ROOT
ATOM      1  C   UNL     1      10.123   5.460  23.723  0.00  0.00    +0.176 A 
ATOM      2  C   UNL     1       9.328   4.274  23.604  0.00  0.00    +0.061 A 
ATOM      3  C   UNL     1       8.023   4.734  23.728  0.00  0.00    +0.179 A 
ATOM      4  O   UNL     1       8.049   6.087  23.891  0.00  0.00    -0.353 OA
ATOM      5  N   UNL     1       9.344   6.546  23.878  0.00  0.00    -0.072 NA
ENDROOT
BRANCH   3   6
ATOM      6  C   UNL     1       6.671   4.169  23.706  0.00  0.00    +0.064 A 
ATOM      7  C   UNL     1       6.318   3.125  24.578  0.00  0.00    +0.039 A 
ATOM      8  C   UNL     1       5.021   2.598  24.589  0.00  0.00    +0.083 A 
ATOM      9 CL   UNL     1       4.643   1.368  25.739  0.00  0.00    -0.080 Cl
ATOM     10  C   UNL     1       4.062   3.079  23.695  0.00  0.00    +0.139 A 
ATOM     11  C   UNL     1       4.390   4.100  22.811  0.00  0.00    +0.093 A 
ATOM     12  C   UNL     1       5.678   4.647  22.830  0.00  0.00    +0.131 A 
BRANCH  10  13
ATOM     13  O   UNL     1       2.801   2.551  23.690  0.00  0.00    -0.505 OA
ATOM     14  H   UNL     1       2.846   1.601  23.891  0.00  0.00    +0.292 HD
ENDBRANCH  10  13
BRANCH  12  15
ATOM     15  O   UNL     1       5.877   5.689  21.961  0.00  0.00    -0.506 OA
ATOM     16  H   UNL     1       5.209   5.657  21.253  0.00  0.00    +0.292 HD
ENDBRANCH  12  15
ENDBRANCH   3   6
BRANCH   2  17
ATOM     17  C   UNL     1       9.692   2.894  23.300  0.00  0.00    -0.012 A 
ATOM     18  C   UNL     1      10.351   2.105  24.247  0.00  0.00    +0.009 A 
ATOM     19  C   UNL     1      10.388   0.716  24.109  0.00  0.00    +0.005 A 
ATOM     20  C   UNL     1       9.826   0.098  22.987  0.00  0.00    -0.033 A 
ATOM     21  C   UNL     1       9.332   0.900  21.954  0.00  0.00    +0.005 A 
ATOM     22  C   UNL     1       9.255   2.288  22.114  0.00  0.00    +0.009 A 
BRANCH  20  23
ATOM     23  C   UNL     1       9.653  -1.406  22.961  0.00  0.00    +0.119 C 
BRANCH  23  24
ATOM     24  N   UNL     1       8.826  -1.961  24.042  0.00  0.00    -0.294 NA
ATOM     25  C   UNL     1       8.603  -3.411  23.820  0.00  0.00    +0.113 C 
ATOM     26  C   UNL     1       7.617  -3.730  22.681  0.00  0.00    +0.175 C 
ATOM     27  O   UNL     1       6.360  -3.071  22.875  0.00  0.00    -0.377 OA
ATOM     28  C   UNL     1       6.539  -1.655  22.998  0.00  0.00    +0.175 C 
ATOM     29  C   UNL     1       7.502  -1.309  24.146  0.00  0.00    +0.113 C 
ENDBRANCH  23  24
ENDBRANCH  20  23
ENDBRANCH   2  17
BRANCH   1  32
ATOM     30  N   UNL     1      12.201   5.132  22.575  0.00  0.00    -0.310 N 
ATOM     31  H   UNL     1      11.605   4.797  21.827  0.00  0.00    +0.149 HD
ATOM     32  C   UNL     1      11.584   5.597  23.717  0.00  0.00    +0.266 C 
ATOM     33  O   UNL     1      12.208   6.094  24.653  0.00  0.00    -0.268 OA
BRANCH  30  35
ATOM     34  C   UNL     1      13.882   6.647  21.655  0.00  0.00    +0.024 C 
ATOM     35  C   UNL     1      13.617   5.318  22.339  0.00  0.00    +0.101 C 
ENDBRANCH  30  35
ENDBRANCH   1  32
TORSDOF 8
ENDMDL
MODEL 3
REMARK VINA RESULT:      -6.7      3.011      6.393
REMARK  Name = 
REMARK  9 active torsions:
REMARK  status: ('A' for Active; 'I' for Inactive)
REMARK    1  A    between atoms: C_1  and  C_2
REMARK    2  A    between atoms: C_2  and  N_3
REMARK    3  A    between atoms: C_4  and  C_6
REMARK    4  A    between atoms: C_9  and  C_24
REMARK    5  A    between atoms: C_10  and  C_11
REMARK    6  A    between atoms: C_14  and  C_15
REMARK    7  A    between atoms: C_15  and  N_16
REMARK    8  A    between atoms: C_25  and  O_26
REMARK    9  A    between atoms: C_28  and  O_29
REMARK                            x       y       z     vdW  Elec       q    Type
REMARK                         _______ _______ _______ _____ _____    ______ ____
ROOT
ATOM      1  C   UNL     1       6.974  -4.400  24.617  0.00  0.00    +0.176 A 
ATOM      2  C   UNL     1       7.259  -3.011  24.820  0.00  0.00    +0.061 A 
ATOM      3  C   UNL     1       7.802  -2.602  23.608  0.00  0.00    +0.179 A 
ATOM      4  O   UNL     1       7.819  -3.664  22.755  0.00  0.00    -0.353 OA
ATOM      5  N   UNL     1       7.298  -4.778  23.367  0.00  0.00    -0.072 NA
ENDROOT
BRANCH   3   6
ATOM      6  C   UNL     1       8.321  -1.363  23.019  0.00  0.00    +0.064 A 
ATOM      7  C   UNL     1       7.496  -0.234  22.891  0.00  0.00    +0.039 A 
ATOM      8  C   UNL     1       7.988   0.965  22.360  0.00  0.00    +0.083 A 
ATOM      9 CL   UNL     1       6.936   2.332  22.301  0.00  0.00    -0.080 Cl
ATOM     10  C   UNL     1       9.306   1.041  21.907  0.00  0.00    +0.139 A 
ATOM     11  C   UNL     1      10.139  -0.068  22.008  0.00  0.00    +0.093 A 
ATOM     12  C   UNL     1       9.651  -1.251  22.574  0.00  0.00    +0.131 A 
BRANCH  10  13
ATOM     13  O   UNL     1       9.782   2.205  21.369  0.00  0.00    -0.505 OA
ATOM     14  H   UNL     1      10.750   2.227  21.450  0.00  0.00    +0.292 HD
ENDBRANCH  10  13
BRANCH  12  15
ATOM     15  O   UNL     1      10.571  -2.262  22.682  0.00  0.00    -0.506 OA
ATOM     16  H   UNL     1      11.456  -1.926  22.454  0.00  0.00    +0.292 HD
ENDBRANCH  12  15
ENDBRANCH   3   6
BRANCH   2  17
ATOM     17  C   UNL     1       6.973  -2.120  25.940  0.00  0.00    -0.012 A 
ATOM     18  C   UNL     1       8.002  -1.422  26.578  0.00  0.00    +0.009 A 
ATOM     19  C   UNL     1       7.716  -0.327  27.394  0.00  0.00    +0.005 A 
ATOM     20  C   UNL     1       6.391   0.050  27.640  0.00  0.00    -0.033 A 
ATOM     21  C   UNL     1       5.360  -0.759  27.152  0.00  0.00    +0.005 A 
ATOM     22  C   UNL     1       5.649  -1.830  26.298  0.00  0.00    +0.009 A 
BRANCH  20  23
ATOM     23  C   UNL     1       6.094   1.371  28.317  0.00  0.00    +0.119 C 
BRANCH  23  24
ATOM     24  N   UNL     1       5.386   2.355  27.488  0.00  0.00    -0.294 NA
ATOM     25  C   UNL     1       6.090   2.532  26.193  0.00  0.00    +0.113 C 
ATOM     26  C   UNL     1       7.407   3.323  26.294  0.00  0.00    +0.175 C 
ATOM     27  O   UNL     1       7.208   4.598  26.915  0.00  0.00    -0.377 OA
ATOM     28  C   UNL     1       6.615   4.449  28.210  0.00  0.00    +0.175 C 
ATOM     29  C   UNL     1       5.283   3.683  28.133  0.00  0.00    +0.113 C 
ENDBRANCH  23  24
ENDBRANCH  20  23
ENDBRANCH   2  17
BRANCH   1  32
ATOM     30  N   UNL     1       5.084  -5.640  25.414  0.00  0.00    -0.310 N 
ATOM     31  H   UNL     1       4.606  -5.190  24.640  0.00  0.00    +0.149 HD
ATOM     32  C   UNL     1       6.429  -5.379  25.565  0.00  0.00    +0.266 C 
ATOM     33  O   UNL     1       7.119  -5.929  26.422  0.00  0.00    -0.268 OA
BRANCH  30  35
ATOM     34  C   UNL     1       3.469  -7.467  25.277  0.00  0.00    +0.024 C 
ATOM     35  C   UNL     1       4.415  -6.680  26.165  0.00  0.00    +0.101 C 
ENDBRANCH  30  35
ENDBRANCH   1  32
TORSDOF 8
ENDMDL
MODEL 4
REMARK VINA RESULT:      -6.6      3.128      8.223
REMARK  Name = 
REMARK  9 active torsions:
REMARK  status: ('A' for Active; 'I' for Inactive)
REMARK    1  A    between atoms: C_1  and  C_2
REMARK    2  A    between atoms: C_2  and  N_3
REMARK    3  A    between atoms: C_4  and  C_6
REMARK    4  A    between atoms: C_9  and  C_24
REMARK    5  A    between atoms: C_10  and  C_11
REMARK    6  A    between atoms: C_14  and  C_15
REMARK    7  A    between atoms: C_15  and  N_16
REMARK    8  A    between atoms: C_25  and  O_26
REMARK    9  A    between atoms: C_28  and  O_29
REMARK                            x       y       z     vdW  Elec       q    Type
REMARK                         _______ _______ _______ _____ _____    ______ ____
ROOT
ATOM      1  C   UNL     1       9.577  -1.622  23.940  0.00  0.00    +0.176 A 
ATOM      2  C   UNL     1       8.411  -1.863  24.736  0.00  0.00    +0.061 A 
ATOM      3  C   UNL     1       8.376  -3.246  24.866  0.00  0.00    +0.179 A 
ATOM      4  O   UNL     1       9.448  -3.775  24.211  0.00  0.00    -0.353 OA
ATOM      5  N   UNL     1      10.203  -2.776  23.644  0.00  0.00    -0.072 NA
ENDROOT
BRANCH   3   6
ATOM      6  C   UNL     1       7.531  -4.249  25.521  0.00  0.00    +0.064 A 
ATOM      7  C   UNL     1       6.237  -4.515  25.044  0.00  0.00    +0.039 A 
ATOM      8  C   UNL     1       5.433  -5.493  25.640  0.00  0.00    +0.083 A 
ATOM      9 CL   UNL     1       3.882  -5.815  24.953  0.00  0.00    -0.080 Cl
ATOM     10  C   UNL     1       5.894  -6.195  26.755  0.00  0.00    +0.139 A 
ATOM     11  C   UNL     1       7.166  -5.940  27.257  0.00  0.00    +0.093 A 
ATOM     12  C   UNL     1       7.979  -4.987  26.633  0.00  0.00    +0.131 A 
BRANCH  10  13
ATOM     13  O   UNL     1       5.102  -7.137  27.352  0.00  0.00    -0.505 OA
ATOM     14  H   UNL     1       5.659  -7.839  27.725  0.00  0.00    +0.292 HD
ENDBRANCH  10  13
BRANCH  12  15
ATOM     15  O   UNL     1       9.234  -4.857  27.169  0.00  0.00    -0.506 OA
ATOM     16  H   UNL     1       9.215  -5.102  28.112  0.00  0.00    +0.292 HD
ENDBRANCH  12  15
ENDBRANCH   3   6
BRANCH   2  17
ATOM     17  C   UNL     1       7.490  -0.947  25.402  0.00  0.00    -0.012 A 
ATOM     18  C   UNL     1       7.669  -0.608  26.746  0.00  0.00    +0.009 A 
ATOM     19  C   UNL     1       7.030   0.509  27.286  0.00  0.00    +0.005 A 
ATOM     20  C   UNL     1       6.146   1.267  26.510  0.00  0.00    -0.033 A 
ATOM     21  C   UNL     1       5.828   0.820  25.224  0.00  0.00    +0.005 A 
ATOM     22  C   UNL     1       6.504  -0.272  24.669  0.00  0.00    +0.009 A 
BRANCH  20  23
ATOM     23  C   UNL     1       5.651   2.604  27.018  0.00  0.00    +0.119 C 
BRANCH  23  24
ATOM     24  N   UNL     1       6.693   3.613  27.251  0.00  0.00    -0.294 NA
ATOM     25  C   UNL     1       6.076   4.904  27.644  0.00  0.00    +0.113 C 
ATOM     26  C   UNL     1       5.384   5.650  26.487  0.00  0.00    +0.175 C 
ATOM     27  O   UNL     1       6.278   5.855  25.386  0.00  0.00    -0.377 OA
ATOM     28  C   UNL     1       6.817   4.610  24.926  0.00  0.00    +0.175 C 
ATOM     29  C   UNL     1       7.535   3.856  26.058  0.00  0.00    +0.113 C 
ENDBRANCH  23  24
ENDBRANCH  20  23
ENDBRANCH   2  17
BRANCH   1  32
ATOM     30  N   UNL     1       9.436   0.159  22.342  0.00  0.00    -0.310 N 
ATOM     31  H   UNL     1       8.617  -0.346  22.021  0.00  0.00    +0.149 HD
ATOM     32  C   UNL     1      10.105  -0.349  23.436  0.00  0.00    +0.266 C 
ATOM     33  O   UNL     1      11.064   0.224  23.951  0.00  0.00    -0.268 OA
BRANCH  30  35
ATOM     34  C   UNL     1       8.656   2.468  22.198  0.00  0.00    +0.024 C 
ATOM     35  C   UNL     1       9.730   1.470  21.804  0.00  0.00    +0.101 C 
ENDBRANCH  30  35
ENDBRANCH   1  32
TORSDOF 8
ENDMDL
MODEL 5
REMARK VINA RESULT:      -6.4      3.118      8.188
REMARK  Name = 
REMARK  9 active torsions:
REMARK  status: ('A' for Active; 'I' for Inactive)
REMARK    1  A    between atoms: C_1  and  C_2
REMARK    2  A    between atoms: C_2  and  N_3
REMARK    3  A    between atoms: C_4  and  C_6
REMARK    4  A    between atoms: C_9  and  C_24
REMARK    5  A    between atoms: C_10  and  C_11
REMARK    6  A    between atoms: C_14  and  C_15
REMARK    7  A    between atoms: C_15  and  N_16
REMARK    8  A    between atoms: C_25  and  O_26
REMARK    9  A    between atoms: C_28  and  O_29
REMARK                            x       y       z     vdW  Elec       q    Type
REMARK                         _______ _______ _______ _____ _____    ______ ____
ROOT
ATOM      1  C   UNL     1       8.606  -3.462  24.118  0.00  0.00    +0.176 A 
ATOM      2  C   UNL     1       7.540  -3.054  24.984  0.00  0.00    +0.061 A 
ATOM      3  C   UNL     1       7.066  -4.247  25.516  0.00  0.00    +0.179 A 
ATOM      4  O   UNL     1       7.807  -5.275  25.014  0.00  0.00    -0.353 OA
ATOM      5  N   UNL     1       8.769  -4.798  24.156  0.00  0.00    -0.072 NA
ENDROOT
BRANCH   3   6
ATOM      6  C   UNL     1       6.030  -4.673  26.461  0.00  0.00    +0.064 A 
ATOM      7  C   UNL     1       4.698  -4.262  26.294  0.00  0.00    +0.039 A 
ATOM      8  C   UNL     1       3.693  -4.688  27.171  0.00  0.00    +0.083 A 
ATOM      9 CL   UNL     1       2.067  -4.201  26.859  0.00  0.00    -0.080 Cl
ATOM     10  C   UNL     1       4.013  -5.501  28.260  0.00  0.00    +0.139 A 
ATOM     11  C   UNL     1       5.328  -5.909  28.458  0.00  0.00    +0.093 A 
ATOM     12  C   UNL     1       6.320  -5.509  27.556  0.00  0.00    +0.131 A 
BRANCH  10  13
ATOM     13  O   UNL     1       3.037  -5.901  29.130  0.00  0.00    -0.505 OA
ATOM     14  H   UNL     1       2.186  -5.516  28.862  0.00  0.00    +0.292 HD
ENDBRANCH  10  13
BRANCH  12  15
ATOM     15  O   UNL     1       7.569  -6.016  27.808  0.00  0.00    -0.506 OA
ATOM     16  H   UNL     1       8.087  -6.037  26.983  0.00  0.00    +0.292 HD
ENDBRANCH  12  15
ENDBRANCH   3   6
BRANCH   2  17
ATOM     17  C   UNL     1       7.071  -1.729  25.378  0.00  0.00    -0.012 A 
ATOM     18  C   UNL     1       7.652  -1.058  26.458  0.00  0.00    +0.009 A 
ATOM     19  C   UNL     1       7.465   0.315  26.622  0.00  0.00    +0.005 A 
ATOM     20  C   UNL     1       6.638   1.030  25.748  0.00  0.00    -0.033 A 
ATOM     21  C   UNL     1       5.913   0.326  24.781  0.00  0.00    +0.005 A 
ATOM     22  C   UNL     1       6.137  -1.042  24.590  0.00  0.00    +0.009 A 
BRANCH  20  23
ATOM     23  C   UNL     1       6.634   2.543  25.780  0.00  0.00    +0.119 C 
BRANCH  23  24
ATOM     24  N   UNL     1       7.959   3.176  25.740  0.00  0.00    -0.294 NA
ATOM     25  C   UNL     1       7.835   4.636  25.974  0.00  0.00    +0.113 C 
ATOM     26  C   UNL     1       7.246   5.417  24.784  0.00  0.00    +0.175 C 
ATOM     27  O   UNL     1       7.988   5.181  23.582  0.00  0.00    -0.377 OA
ATOM     28  C   UNL     1       8.043   3.781  23.282  0.00  0.00    +0.175 C 
ATOM     29  C   UNL     1       8.651   2.980  24.446  0.00  0.00    +0.113 C 
ENDBRANCH  23  24
ENDBRANCH  20  23
ENDBRANCH   2  17
BRANCH   1  32
ATOM     30  N   UNL     1       8.771  -1.917  22.294  0.00  0.00    -0.310 N 
ATOM     31  H   UNL     1       7.758  -1.963  22.312  0.00  0.00    +0.149 HD
ATOM     32  C   UNL     1       9.455  -2.642  23.247  0.00  0.00    +0.266 C 
ATOM     33  O   UNL     1      10.678  -2.599  23.361  0.00  0.00    -0.268 OA
BRANCH  30  35
ATOM     34  C   UNL     1       9.079   0.467  21.863  0.00  0.00    +0.024 C 
ATOM     35  C   UNL     1       9.432  -0.950  21.446  0.00  0.00    +0.101 C 
ENDBRANCH  30  35
ENDBRANCH   1  32
TORSDOF 8
ENDMDL
MODEL 6
REMARK VINA RESULT:      -6.3      3.975      7.887
REMARK  Name = 
REMARK  9 active torsions:
REMARK  status: ('A' for Active; 'I' for Inactive)
REMARK    1  A    between atoms: C_1  and  C_2
REMARK    2  A    between atoms: C_2  and  N_3
REMARK    3  A    between atoms: C_4  and  C_6
REMARK    4  A    between atoms: C_9  and  C_24
REMARK    5  A    between atoms: C_10  and  C_11
REMARK    6  A    between atoms: C_14  and  C_15
REMARK    7  A    between atoms: C_15  and  N_16
REMARK    8  A    between atoms: C_25  and  O_26
REMARK    9  A    between atoms: C_28  and  O_29
REMARK                            x       y       z     vdW  Elec       q    Type
REMARK                         _______ _______ _______ _____ _____    ______ ____
ROOT
ATOM      1  C   UNL     1      10.242   2.143  23.830  0.00  0.00    +0.176 A 
ATOM      2  C   UNL     1       9.087   1.314  23.658  0.00  0.00    +0.061 A 
ATOM      3  C   UNL     1       9.565   0.027  23.869  0.00  0.00    +0.179 A 
ATOM      4  O   UNL     1      10.895   0.096  24.159  0.00  0.00    -0.353 OA
ATOM      5  N   UNL     1      11.320   1.403  24.148  0.00  0.00    -0.072 NA
ENDROOT
BRANCH   3   6
ATOM      6  C   UNL     1       9.028  -1.337  23.885  0.00  0.00    +0.064 A 
ATOM      7  C   UNL     1       8.670  -1.949  25.098  0.00  0.00    +0.039 A 
ATOM      8  C   UNL     1       8.125  -3.238  25.124  0.00  0.00    +0.083 A 
ATOM      9 CL   UNL     1       7.641  -3.896  26.645  0.00  0.00    -0.080 Cl
ATOM     10  C   UNL     1       7.969  -3.957  23.938  0.00  0.00    +0.139 A 
ATOM     11  C   UNL     1       8.331  -3.381  22.725  0.00  0.00    +0.093 A 
ATOM     12  C   UNL     1       8.840  -2.077  22.703  0.00  0.00    +0.131 A 
BRANCH  10  13
ATOM     13  O   UNL     1       7.457  -5.225  23.964  0.00  0.00    -0.505 OA
ATOM     14  H   UNL     1       6.507  -5.195  23.765  0.00  0.00    +0.292 HD
ENDBRANCH  10  13
BRANCH  12  15
ATOM     15  O   UNL     1       9.108  -1.583  21.452  0.00  0.00    -0.506 OA
ATOM     16  H   UNL     1       8.397  -0.975  21.181  0.00  0.00    +0.292 HD
ENDBRANCH  12  15
ENDBRANCH   3   6
BRANCH   2  17
ATOM     17  C   UNL     1       7.683   1.648  23.438  0.00  0.00    -0.012 A 
ATOM     18  C   UNL     1       6.750   1.526  24.472  0.00  0.00    +0.009 A 
ATOM     19  C   UNL     1       5.510   2.160  24.387  0.00  0.00    +0.005 A 
ATOM     20  C   UNL     1       5.154   2.874  23.237  0.00  0.00    -0.033 A 
ATOM     21  C   UNL     1       6.012   2.841  22.133  0.00  0.00    +0.005 A 
ATOM     22  C   UNL     1       7.273   2.243  22.237  0.00  0.00    +0.009 A 
BRANCH  20  23
ATOM     23  C   UNL     1       3.925   3.756  23.246  0.00  0.00    +0.119 C 
BRANCH  23  24
ATOM     24  N   UNL     1       2.665   3.080  22.904  0.00  0.00    -0.294 NA
ATOM     25  C   UNL     1       2.348   3.287  21.469  0.00  0.00    +0.113 C 
ATOM     26  C   UNL     1       1.867   4.710  21.128  0.00  0.00    +0.175 C 
ATOM     27  O   UNL     1       0.744   5.091  21.932  0.00  0.00    -0.377 OA
ATOM     28  C   UNL     1       1.056   4.990  23.327  0.00  0.00    +0.175 C 
ATOM     29  C   UNL     1       1.516   3.570  23.698  0.00  0.00    +0.113 C 
ENDBRANCH  23  24
ENDBRANCH  20  23
ENDBRANCH   2  17
BRANCH   1  32
ATOM     30  N   UNL     1      11.618   4.035  23.307  0.00  0.00    -0.310 N 
ATOM     31  H   UNL     1      12.317   3.328  23.107  0.00  0.00    +0.149 HD
ATOM     32  C   UNL     1      10.366   3.598  23.685  0.00  0.00    +0.266 C 
ATOM     33  O   UNL     1       9.426   4.367  23.878  0.00  0.00    -0.268 OA
BRANCH  30  35
ATOM     34  C   UNL     1      13.151   5.549  22.159  0.00  0.00    +0.024 C 
ATOM     35  C   UNL     1      11.881   5.419  22.980  0.00  0.00    +0.101 C 
ENDBRANCH  30  35
ENDBRANCH   1  32
TORSDOF 8
ENDMDL
MODEL 7
REMARK VINA RESULT:      -6.3      2.878      3.772
REMARK  Name = 
REMARK  9 active torsions:
REMARK  status: ('A' for Active; 'I' for Inactive)
REMARK    1  A    between atoms: C_1  and  C_2
REMARK    2  A    between atoms: C_2  and  N_3
REMARK    3  A    between atoms: C_4  and  C_6
REMARK    4  A    between atoms: C_9  and  C_24
REMARK    5  A    between atoms: C_10  and  C_11
REMARK    6  A    between atoms: C_14  and  C_15
REMARK    7  A    between atoms: C_15  and  N_16
REMARK    8  A    between atoms: C_25  and  O_26
REMARK    9  A    between atoms: C_28  and  O_29
REMARK                            x       y       z     vdW  Elec       q    Type
REMARK                         _______ _______ _______ _____ _____    ______ ____
ROOT
ATOM      1  C   UNL     1       9.083  -3.057  24.487  0.00  0.00    +0.176 A 
ATOM      2  C   UNL     1       8.376  -1.824  24.664  0.00  0.00    +0.061 A 
ATOM      3  C   UNL     1       9.147  -0.896  23.975  0.00  0.00    +0.179 A 
ATOM      4  O   UNL     1      10.215  -1.537  23.422  0.00  0.00    -0.353 OA
ATOM      5  N   UNL     1      10.178  -2.877  23.725  0.00  0.00    -0.072 NA
ENDROOT
BRANCH   3   6
ATOM      6  C   UNL     1       9.100   0.538  23.675  0.00  0.00    +0.064 A 
ATOM      7  C   UNL     1       7.960   1.109  23.086  0.00  0.00    +0.039 A 
ATOM      8  C   UNL     1       7.890   2.482  22.825  0.00  0.00    +0.083 A 
ATOM      9 CL   UNL     1       6.428   3.122  22.168  0.00  0.00    -0.080 Cl
ATOM     10  C   UNL     1       8.981   3.306  23.110  0.00  0.00    +0.139 A 
ATOM     11  C   UNL     1      10.129   2.763  23.679  0.00  0.00    +0.093 A 
ATOM     12  C   UNL     1      10.177   1.396  23.971  0.00  0.00    +0.131 A 
BRANCH  10  13
ATOM     13  O   UNL     1       8.923   4.644  22.836  0.00  0.00    -0.505 OA
ATOM     14  H   UNL     1       9.760   5.064  23.094  0.00  0.00    +0.292 HD
ENDBRANCH  10  13
BRANCH  12  15
ATOM     15  O   UNL     1      11.329   0.976  24.585  0.00  0.00    -0.506 OA
ATOM     16  H   UNL     1      11.786   0.329  24.019  0.00  0.00    +0.292 HD
ENDBRANCH  12  15
ENDBRANCH   3   6
BRANCH   2  17
ATOM     17  C   UNL     1       7.090  -1.530  25.288  0.00  0.00    -0.012 A 
ATOM     18  C   UNL     1       5.906  -2.057  24.764  0.00  0.00    +0.009 A 
ATOM     19  C   UNL     1       4.740  -2.079  25.531  0.00  0.00    +0.005 A 
ATOM     20  C   UNL     1       4.720  -1.513  26.811  0.00  0.00    -0.033 A 
ATOM     21  C   UNL     1       5.852  -0.825  27.260  0.00  0.00    +0.005 A 
ATOM     22  C   UNL     1       7.032  -0.843  26.509  0.00  0.00    +0.009 A 
BRANCH  20  23
ATOM     23  C   UNL     1       3.539  -1.755  27.726  0.00  0.00    +0.119 C 
BRANCH  23  24
ATOM     24  N   UNL     1       3.874  -2.260  29.064  0.00  0.00    -0.294 NA
ATOM     25  C   UNL     1       4.251  -3.694  28.989  0.00  0.00    +0.113 C 
ATOM     26  C   UNL     1       3.065  -4.646  28.748  0.00  0.00    +0.175 C 
ATOM     27  O   UNL     1       2.039  -4.467  29.732  0.00  0.00    -0.377 OA
ATOM     28  C   UNL     1       1.590  -3.106  29.759  0.00  0.00    +0.175 C 
ATOM     29  C   UNL     1       2.753  -2.136  30.023  0.00  0.00    +0.113 C 
ENDBRANCH  23  24
ENDBRANCH  20  23
ENDBRANCH   2  17
BRANCH   1  32
ATOM     30  N   UNL     1       8.146  -4.376  26.255  0.00  0.00    -0.310 N 
ATOM     31  H   UNL     1       7.901  -3.473  26.646  0.00  0.00    +0.149 HD
ATOM     32  C   UNL     1       8.774  -4.386  25.028  0.00  0.00    +0.266 C 
ATOM     33  O   UNL     1       9.047  -5.426  24.430  0.00  0.00    -0.268 OA
BRANCH  30  35
ATOM     34  C   UNL     1       6.158  -5.753  26.594  0.00  0.00    +0.024 C 
ATOM     35  C   UNL     1       7.642  -5.586  26.868  0.00  0.00    +0.101 C 
ENDBRANCH  30  35
ENDBRANCH   1  32
TORSDOF 8
ENDMDL
MODEL 8
REMARK VINA RESULT:      -6.3      3.079      5.733
REMARK  Name = 
REMARK  9 active torsions:
REMARK  status: ('A' for Active; 'I' for Inactive)
REMARK    1  A    between atoms: C_1  and  C_2
REMARK    2  A    between atoms: C_2  and  N_3
REMARK    3  A    between atoms: C_4  and  C_6
REMARK    4  A    between atoms: C_9  and  C_24
REMARK    5  A    between atoms: C_10  and  C_11
REMARK    6  A    between atoms: C_14  and  C_15
REMARK    7  A    between atoms: C_15  and  N_16
REMARK    8  A    between atoms: C_25  and  O_26
REMARK    9  A    between atoms: C_28  and  O_29
REMARK                            x       y       z     vdW  Elec       q    Type
REMARK                         _______ _______ _______ _____ _____    ______ ____
ROOT
ATOM      1  C   UNL     1       9.370   3.899  23.633  0.00  0.00    +0.176 A 
ATOM      2  C   UNL     1       8.376   2.904  23.908  0.00  0.00    +0.061 A 
ATOM      3  C   UNL     1       7.196   3.629  24.007  0.00  0.00    +0.179 A 
ATOM      4  O   UNL     1       7.471   4.947  23.791  0.00  0.00    -0.353 OA
ATOM      5  N   UNL     1       8.812   5.121  23.548  0.00  0.00    -0.072 NA
ENDROOT
BRANCH   3   6
ATOM      6  C   UNL     1       5.776   3.356  24.250  0.00  0.00    +0.064 A 
ATOM      7  C   UNL     1       5.357   2.776  25.459  0.00  0.00    +0.039 A 
ATOM      8  C   UNL     1       4.001   2.540  25.716  0.00  0.00    +0.083 A 
ATOM      9 CL   UNL     1       3.556   1.893  27.253  0.00  0.00    -0.080 Cl
ATOM     10  C   UNL     1       3.042   2.841  24.748  0.00  0.00    +0.139 A 
ATOM     11  C   UNL     1       3.432   3.401  23.536  0.00  0.00    +0.093 A 
ATOM     12  C   UNL     1       4.785   3.668  23.301  0.00  0.00    +0.131 A 
BRANCH  10  13
ATOM     13  O   UNL     1       1.719   2.591  24.989  0.00  0.00    -0.505 OA
ATOM     14  H   UNL     1       1.515   2.795  25.917  0.00  0.00    +0.292 HD
ENDBRANCH  10  13
BRANCH  12  15
ATOM     15  O   UNL     1       5.054   4.276  22.101  0.00  0.00    -0.506 OA
ATOM     16  H   UNL     1       6.003   4.197  21.899  0.00  0.00    +0.292 HD
ENDBRANCH  12  15
ENDBRANCH   3   6
BRANCH   2  17
ATOM     17  C   UNL     1       8.459   1.448  23.964  0.00  0.00    -0.012 A 
ATOM     18  C   UNL     1       9.010   0.807  25.078  0.00  0.00    +0.009 A 
ATOM     19  C   UNL     1       8.780  -0.552  25.299  0.00  0.00    +0.005 A 
ATOM     20  C   UNL     1       8.050  -1.309  24.376  0.00  0.00    -0.033 A 
ATOM     21  C   UNL     1       7.658  -0.709  23.175  0.00  0.00    +0.005 A 
ATOM     22  C   UNL     1       7.850   0.662  22.975  0.00  0.00    +0.009 A 
BRANCH  20  23
ATOM     23  C   UNL     1       7.598  -2.708  24.736  0.00  0.00    +0.119 C 
BRANCH  23  24
ATOM     24  N   UNL     1       7.535  -2.996  26.175  0.00  0.00    -0.294 NA
ATOM     25  C   UNL     1       8.554  -4.012  26.537  0.00  0.00    +0.113 C 
ATOM     26  C   UNL     1       8.214  -5.440  26.071  0.00  0.00    +0.175 C 
ATOM     27  O   UNL     1       6.927  -5.854  26.544  0.00  0.00    -0.377 OA
ATOM     28  C   UNL     1       5.909  -4.937  26.127  0.00  0.00    +0.175 C 
ATOM     29  C   UNL     1       6.213  -3.506  26.602  0.00  0.00    +0.113 C 
ENDBRANCH  23  24
ENDBRANCH  20  23
ENDBRANCH   2  17
BRANCH   1  32
ATOM     30  N   UNL     1      11.490   4.889  23.116  0.00  0.00    -0.310 N 
ATOM     31  H   UNL     1      10.948   5.745  23.056  0.00  0.00    +0.149 HD
ATOM     32  C   UNL     1      10.819   3.739  23.471  0.00  0.00    +0.266 C 
ATOM     33  O   UNL     1      11.391   2.664  23.645  0.00  0.00    -0.268 OA
BRANCH  30  35
ATOM     34  C   UNL     1      13.391   5.823  21.900  0.00  0.00    +0.024 C 
ATOM     35  C   UNL     1      12.934   4.947  23.053  0.00  0.00    +0.101 C 
ENDBRANCH  30  35
ENDBRANCH   1  32
TORSDOF 8
ENDMDL
MODEL 9
REMARK VINA RESULT:      -6.3      3.185      5.431
REMARK  Name = 
REMARK  9 active torsions:
REMARK  status: ('A' for Active; 'I' for Inactive)
REMARK    1  A    between atoms: C_1  and  C_2
REMARK    2  A    between atoms: C_2  and  N_3
REMARK    3  A    between atoms: C_4  and  C_6
REMARK    4  A    between atoms: C_9  and  C_24
REMARK    5  A    between atoms: C_10  and  C_11
REMARK    6  A    between atoms: C_14  and  C_15
REMARK    7  A    between atoms: C_15  and  N_16
REMARK    8  A    between atoms: C_25  and  O_26
REMARK    9  A    between atoms: C_28  and  O_29
REMARK                            x       y       z     vdW  Elec       q    Type
REMARK                         _______ _______ _______ _____ _____    ______ ____
ROOT
ATOM      1  C   UNL     1       9.193  -2.902  24.296  0.00  0.00    +0.176 A 
ATOM      2  C   UNL     1       8.619  -1.631  24.628  0.00  0.00    +0.061 A 
ATOM      3  C   UNL     1       9.350  -0.726  23.868  0.00  0.00    +0.179 A 
ATOM      4  O   UNL     1      10.270  -1.413  23.133  0.00  0.00    -0.353 OA
ATOM      5  N   UNL     1      10.173  -2.761  23.384  0.00  0.00    -0.072 NA
ENDROOT
BRANCH   3   6
ATOM      6  C   UNL     1       9.372   0.721  23.638  0.00  0.00    +0.064 A 
ATOM      7  C   UNL     1       8.259   1.374  23.084  0.00  0.00    +0.039 A 
ATOM      8  C   UNL     1       8.256   2.760  22.889  0.00  0.00    +0.083 A 
ATOM      9 CL   UNL     1       6.825   3.501  22.271  0.00  0.00    -0.080 Cl
ATOM     10  C   UNL     1       9.387   3.515  23.207  0.00  0.00    +0.139 A 
ATOM     11  C   UNL     1      10.508   2.891  23.743  0.00  0.00    +0.093 A 
ATOM     12  C   UNL     1      10.490   1.510  23.969  0.00  0.00    +0.131 A 
BRANCH  10  13
ATOM     13  O   UNL     1       9.393   4.867  22.998  0.00  0.00    -0.505 OA
ATOM     14  H   UNL     1       8.885   5.072  22.196  0.00  0.00    +0.292 HD
ENDBRANCH  10  13
BRANCH  12  15
ATOM     15  O   UNL     1      11.622   1.006  24.556  0.00  0.00    -0.506 OA
ATOM     16  H   UNL     1      11.481   0.913  25.515  0.00  0.00    +0.292 HD
ENDBRANCH  12  15
ENDBRANCH   3   6
BRANCH   2  17
ATOM     17  C   UNL     1       7.468  -1.279  25.452  0.00  0.00    -0.012 A 
ATOM     18  C   UNL     1       7.627  -0.511  26.609  0.00  0.00    +0.009 A 
ATOM     19  C   UNL     1       6.529   0.119  27.198  0.00  0.00    +0.005 A 
ATOM     20  C   UNL     1       5.242  -0.064  26.680  0.00  0.00    -0.033 A 
ATOM     21  C   UNL     1       5.060  -0.978  25.637  0.00  0.00    +0.005 A 
ATOM     22  C   UNL     1       6.167  -1.572  25.020  0.00  0.00    +0.009 A 
BRANCH  20  23
ATOM     23  C   UNL     1       4.102   0.805  27.165  0.00  0.00    +0.119 C 
BRANCH  23  24
ATOM     24  N   UNL     1       3.395   1.555  26.118  0.00  0.00    -0.294 NA
ATOM     25  C   UNL     1       4.250   2.658  25.614  0.00  0.00    +0.113 C 
ATOM     26  C   UNL     1       4.395   3.840  26.590  0.00  0.00    +0.175 C 
ATOM     27  O   UNL     1       3.117   4.358  26.981  0.00  0.00    -0.377 OA
ATOM     28  C   UNL     1       2.304   3.330  27.559  0.00  0.00    +0.175 C 
ATOM     29  C   UNL     1       2.124   2.147  26.593  0.00  0.00    +0.113 C 
ENDBRANCH  23  24
ENDBRANCH  20  23
ENDBRANCH   2  17
BRANCH   1  32
ATOM     30  N   UNL     1       8.634  -4.271  26.181  0.00  0.00    -0.310 N 
ATOM     31  H   UNL     1       8.651  -3.390  26.683  0.00  0.00    +0.149 HD
ATOM     32  C   UNL     1       8.864  -4.231  24.822  0.00  0.00    +0.266 C 
ATOM     33  O   UNL     1       8.792  -5.229  24.108  0.00  0.00    -0.268 OA
BRANCH  30  35
ATOM     34  C   UNL     1       6.714  -5.306  27.281  0.00  0.00    +0.024 C 
ATOM     35  C   UNL     1       8.159  -5.467  26.844  0.00  0.00    +0.101 C 
ENDBRANCH  30  35
ENDBRANCH   1  32
TORSDOF 8
ENDMDL
