MODEL 1
REMARK VINA RESULT:      -6.9      0.000      0.000
REMARK  Name = 
REMARK  15 active torsions:
REMARK  status: ('A' for Active; 'I' for Inactive)
REMARK    1  A    between atoms: C_1  and  O_2
REMARK    2  A    between atoms: O_2  and  C_3
REMARK    3  A    between atoms: C_3  and  C_4
REMARK    4  A    between atoms: C_4  and  O_5
REMARK    5  A    between atoms: O_5  and  C_6
REMARK    6  A    between atoms: C_6  and  C_7
REMARK    7  A    between atoms: C_7  and  C_9
REMARK    8  A    between atoms: C_7  and  C_29
REMARK    9  A    between atoms: C_9  and  C_10
REMARK   10  A    between atoms: C_10  and  C_15
REMARK   11  A    between atoms: N_17  and  C_18
REMARK   12  A    between atoms: C_22  and  C_26
REMARK   13  A    between atoms: C_26  and  O_27
REMARK   14  A    between atoms: C_29  and  O_31
REMARK   15  A    between atoms: O_31  and  C_32
REMARK                            x       y       z     vdW  Elec       q    Type
REMARK                         _______ _______ _______ _____ _____    ______ ____
ROOT
ATOM      1  C   UNL     1       7.690  -1.391  24.083  0.00  0.00    +0.033 C 
ENDROOT
BRANCH   1   2
ATOM      2  C   UNL     1       6.926  -0.712  25.264  0.00  0.00    +0.048 C 
ATOM      3  C   UNL     1       6.652   0.785  25.010  0.00  0.00    +0.016 C 
ATOM      4  C   UNL     1       7.015   1.543  26.283  0.00  0.00    +0.001 C 
ATOM      5  C   UNL     1       7.334   0.510  27.348  0.00  0.00    +0.001 C 
ATOM      6  C   UNL     1       7.707  -0.761  26.604  0.00  0.00    +0.016 C 
BRANCH   2   7
ATOM      7  C   UNL     1       5.576  -1.462  25.511  0.00  0.00    +0.219 C 
ATOM      8  N   UNL     1       5.625  -2.834  25.665  0.00  0.00    -0.312 N 
ATOM      9  H   UNL     1       6.523  -3.281  25.802  0.00  0.00    +0.149 HD
ATOM     10  O   UNL     1       4.501  -0.869  25.572  0.00  0.00    -0.275 OA
BRANCH   8  11
ATOM     11  C   UNL     1       4.403  -3.597  25.942  0.00  0.00    +0.073 C 
ATOM     12  C   UNL     1       4.058  -3.615  27.432  0.00  0.00    +0.023 C 
ATOM     13  C   UNL     1       5.035  -4.444  28.263  0.00  0.00    +0.016 C 
ATOM     14  C   UNL     1       5.298  -5.859  27.713  0.00  0.00    +0.098 C 
ATOM     15  C   UNL     1       5.493  -5.890  26.194  0.00  0.00    +0.016 C 
ATOM     16  C   UNL     1       4.473  -5.046  25.435  0.00  0.00    +0.023 C 
BRANCH  14  17
ATOM     17  C   UNL     1       6.524  -6.457  28.399  0.00  0.00    +0.308 C 
ATOM     18  O   UNL     1       6.489  -7.224  29.349  0.00  0.00    -0.251 OA
BRANCH  17  19
ATOM     19  O   UNL     1       7.694  -6.059  27.852  0.00  0.00    -0.480 OA
ATOM     20  H   UNL     1       7.717  -5.124  27.583  0.00  0.00    +0.295 HD
ENDBRANCH  17  19
ENDBRANCH  14  17
ENDBRANCH   8  11
ENDBRANCH   2   7
ENDBRANCH   1   2
BRANCH   1  21
ATOM     21  C   UNL     1       9.191  -1.806  24.262  0.00  0.00    +0.125 C 
BRANCH  21  22
ATOM     22  C   UNL     1       9.986  -1.369  23.034  0.00  0.00    +0.318 C 
ATOM     23  O   UNL     1       9.965  -1.926  21.946  0.00  0.00    -0.250 OA
BRANCH  22  24
ATOM     24  O   UNL     1      10.648  -0.183  23.317  0.00  0.00    -0.426 OA
BRANCH  24  25
ATOM     25  C   UNL     1       9.922   0.987  23.044  0.00  0.00    +0.132 A 
ATOM     26  C   UNL     1       9.068   1.070  21.931  0.00  0.00    +0.046 A 
ATOM     27  C   UNL     1       8.264   2.192  21.749  0.00  0.00    +0.007 A 
ATOM     28  C   UNL     1       8.317   3.203  22.694  0.00  0.00    -0.044 A 
ATOM     29  C   UNL     1       7.531   4.471  22.682  0.00  0.00    +0.036 C 
ATOM     30  C   UNL     1       7.977   5.179  23.969  0.00  0.00    +0.009 C 
ATOM     31  C   UNL     1       9.033   4.317  24.682  0.00  0.00    +0.036 C 
ATOM     32  C   UNL     1       9.154   3.114  23.807  0.00  0.00    -0.041 A 
ATOM     33  C   UNL     1       9.963   2.003  24.002  0.00  0.00    +0.050 A 
ENDBRANCH  24  25
ENDBRANCH  22  24
ENDBRANCH  21  22
BRANCH  21  34
ATOM     34  C   UNL     1       9.408  -3.285  24.514  0.00  0.00    +0.174 C 
BRANCH  34  35
ATOM     35  O   UNL     1       8.222  -4.021  24.801  0.00  0.00    -0.377 OA
BRANCH  35  36
ATOM     36  C   UNL     1       8.074  -5.066  23.827  0.00  0.00    +0.188 C 
BRANCH  36  37
ATOM     37  C   UNL     1       7.129  -4.631  22.722  0.00  0.00    +0.187 C 
BRANCH  37  39
ATOM     38  C   UNL     1       6.223  -5.830  20.915  0.00  0.00    +0.194 C 
ATOM     39  O   UNL     1       6.334  -5.749  22.328  0.00  0.00    -0.381 OA
ENDBRANCH  37  39
ENDBRANCH  36  37
ENDBRANCH  35  36
ENDBRANCH  34  35
ENDBRANCH  21  34
ENDBRANCH   1  21
TORSDOF 14
ENDMDL
MODEL 2
REMARK VINA RESULT:      -6.8      1.376      2.104
REMARK  Name = 
REMARK  15 active torsions:
REMARK  status: ('A' for Active; 'I' for Inactive)
REMARK    1  A    between atoms: C_1  and  O_2
REMARK    2  A    between atoms: O_2  and  C_3
REMARK    3  A    between atoms: C_3  and  C_4
REMARK    4  A    between atoms: C_4  and  O_5
REMARK    5  A    between atoms: O_5  and  C_6
REMARK    6  A    between atoms: C_6  and  C_7
REMARK    7  A    between atoms: C_7  and  C_9
REMARK    8  A    between atoms: C_7  and  C_29
REMARK    9  A    between atoms: C_9  and  C_10
REMARK   10  A    between atoms: C_10  and  C_15
REMARK   11  A    between atoms: N_17  and  C_18
REMARK   12  A    between atoms: C_22  and  C_26
REMARK   13  A    between atoms: C_26  and  O_27
REMARK   14  A    between atoms: C_29  and  O_31
REMARK   15  A    between atoms: O_31  and  C_32
REMARK                            x       y       z     vdW  Elec       q    Type
REMARK                         _______ _______ _______ _____ _____    ______ ____
ROOT
ATOM      1  C   UNL     1       7.589  -1.502  24.222  0.00  0.00    +0.033 C 
ENDROOT
BRANCH   1   2
ATOM      2  C   UNL     1       6.934  -0.521  25.247  0.00  0.00    +0.048 C 
ATOM      3  C   UNL     1       6.041   0.538  24.567  0.00  0.00    +0.016 C 
ATOM      4  C   UNL     1       6.376   1.891  25.186  0.00  0.00    +0.001 C 
ATOM      5  C   UNL     1       7.326   1.636  26.341  0.00  0.00    +0.001 C 
ATOM      6  C   UNL     1       7.974   0.290  26.066  0.00  0.00    +0.016 C 
BRANCH   2   7
ATOM      7  C   UNL     1       6.094  -1.335  26.284  0.00  0.00    +0.219 C 
ATOM      8  N   UNL     1       5.830  -2.660  25.996  0.00  0.00    -0.312 N 
ATOM      9  H   UNL     1       6.335  -3.108  25.242  0.00  0.00    +0.149 HD
ATOM     10  O   UNL     1       5.674  -0.832  27.325  0.00  0.00    -0.275 OA
BRANCH   8  11
ATOM     11  C   UNL     1       5.084  -3.495  26.944  0.00  0.00    +0.073 C 
ATOM     12  C   UNL     1       5.620  -4.927  27.000  0.00  0.00    +0.023 C 
ATOM     13  C   UNL     1       5.338  -5.723  25.728  0.00  0.00    +0.016 C 
ATOM     14  C   UNL     1       3.872  -5.672  25.257  0.00  0.00    +0.098 C 
ATOM     15  C   UNL     1       3.259  -4.270  25.338  0.00  0.00    +0.016 C 
ATOM     16  C   UNL     1       3.578  -3.545  26.642  0.00  0.00    +0.023 C 
BRANCH  14  17
ATOM     17  C   UNL     1       3.774  -6.191  23.824  0.00  0.00    +0.308 C 
ATOM     18  O   UNL     1       3.329  -5.557  22.880  0.00  0.00    -0.251 OA
BRANCH  17  19
ATOM     19  O   UNL     1       4.239  -7.452  23.675  0.00  0.00    -0.480 OA
ATOM     20  H   UNL     1       4.171  -8.004  24.474  0.00  0.00    +0.295 HD
ENDBRANCH  17  19
ENDBRANCH  14  17
ENDBRANCH   8  11
ENDBRANCH   2   7
ENDBRANCH   1   2
BRANCH   1  21
ATOM     21  C   UNL     1       9.118  -1.830  24.325  0.00  0.00    +0.125 C 
BRANCH  21  22
ATOM     22  C   UNL     1       9.783  -1.561  22.978  0.00  0.00    +0.318 C 
ATOM     23  O   UNL     1       9.613  -2.222  21.964  0.00  0.00    -0.250 OA
BRANCH  22  24
ATOM     24  O   UNL     1      10.526  -0.392  23.060  0.00  0.00    -0.426 OA
BRANCH  24  25
ATOM     25  C   UNL     1       9.815   0.787  22.782  0.00  0.00    +0.132 A 
ATOM     26  C   UNL     1       8.834   0.825  21.777  0.00  0.00    +0.046 A 
ATOM     27  C   UNL     1       8.057   1.967  21.603  0.00  0.00    +0.007 A 
ATOM     28  C   UNL     1       8.264   3.044  22.448  0.00  0.00    -0.044 A 
ATOM     29  C   UNL     1       7.531   4.343  22.428  0.00  0.00    +0.036 C 
ATOM     30  C   UNL     1       8.159   5.125  23.590  0.00  0.00    +0.009 C 
ATOM     31  C   UNL     1       9.262   4.271  24.238  0.00  0.00    +0.036 C 
ATOM     32  C   UNL     1       9.229   3.000  23.456  0.00  0.00    -0.041 A 
ATOM     33  C   UNL     1      10.014   1.870  23.642  0.00  0.00    +0.050 A 
ENDBRANCH  24  25
ENDBRANCH  22  24
ENDBRANCH  21  22
BRANCH  21  34
ATOM     34  C   UNL     1       9.428  -3.242  24.779  0.00  0.00    +0.174 C 
BRANCH  34  35
ATOM     35  O   UNL     1       8.290  -4.089  24.914  0.00  0.00    -0.377 OA
BRANCH  35  36
ATOM     36  C   UNL     1       8.346  -5.111  23.908  0.00  0.00    +0.188 C 
BRANCH  36  37
ATOM     37  C   UNL     1       7.342  -4.828  22.806  0.00  0.00    +0.187 C 
BRANCH  37  39
ATOM     38  C   UNL     1       6.244  -5.810  20.975  0.00  0.00    +0.194 C 
ATOM     39  O   UNL     1       7.077  -6.040  22.101  0.00  0.00    -0.381 OA
ENDBRANCH  37  39
ENDBRANCH  36  37
ENDBRANCH  35  36
ENDBRANCH  34  35
ENDBRANCH  21  34
ENDBRANCH   1  21
TORSDOF 14
ENDMDL
MODEL 3
REMARK VINA RESULT:      -6.5      2.074      3.015
REMARK  Name = 
REMARK  15 active torsions:
REMARK  status: ('A' for Active; 'I' for Inactive)
REMARK    1  A    between atoms: C_1  and  O_2
REMARK    2  A    between atoms: O_2  and  C_3
REMARK    3  A    between atoms: C_3  and  C_4
REMARK    4  A    between atoms: C_4  and  O_5
REMARK    5  A    between atoms: O_5  and  C_6
REMARK    6  A    between atoms: C_6  and  C_7
REMARK    7  A    between atoms: C_7  and  C_9
REMARK    8  A    between atoms: C_7  and  C_29
REMARK    9  A    between atoms: C_9  and  C_10
REMARK   10  A    between atoms: C_10  and  C_15
REMARK   11  A    between atoms: N_17  and  C_18
REMARK   12  A    between atoms: C_22  and  C_26
REMARK   13  A    between atoms: C_26  and  O_27
REMARK   14  A    between atoms: C_29  and  O_31
REMARK   15  A    between atoms: O_31  and  C_32
REMARK                            x       y       z     vdW  Elec       q    Type
REMARK                         _______ _______ _______ _____ _____    ______ ____
ROOT
ATOM      1  C   UNL     1       6.143  -2.546  24.372  0.00  0.00    +0.033 C 
ENDROOT
BRANCH   1   2
ATOM      2  C   UNL     1       6.086  -1.228  25.210  0.00  0.00    +0.048 C 
ATOM      3  C   UNL     1       6.125   0.037  24.328  0.00  0.00    +0.016 C 
ATOM      4  C   UNL     1       7.125   1.005  24.953  0.00  0.00    +0.001 C 
ATOM      5  C   UNL     1       7.554   0.414  26.283  0.00  0.00    +0.001 C 
ATOM      6  C   UNL     1       7.280  -1.077  26.190  0.00  0.00    +0.016 C 
BRANCH   2   7
ATOM      7  C   UNL     1       4.792  -1.222  26.086  0.00  0.00    +0.219 C 
ATOM      8  N   UNL     1       4.392  -2.421  26.646  0.00  0.00    -0.312 N 
ATOM      9  H   UNL     1       5.032  -3.205  26.636  0.00  0.00    +0.149 HD
ATOM     10  O   UNL     1       4.139  -0.199  26.283  0.00  0.00    -0.275 OA
BRANCH   8  11
ATOM     11  C   UNL     1       3.211  -2.481  27.514  0.00  0.00    +0.073 C 
ATOM     12  C   UNL     1       3.443  -3.356  28.748  0.00  0.00    +0.023 C 
ATOM     13  C   UNL     1       3.555  -4.842  28.415  0.00  0.00    +0.016 C 
ATOM     14  C   UNL     1       2.418  -5.384  27.528  0.00  0.00    +0.098 C 
ATOM     15  C   UNL     1       2.057  -4.448  26.370  0.00  0.00    +0.016 C 
ATOM     16  C   UNL     1       1.955  -2.983  26.784  0.00  0.00    +0.023 C 
BRANCH  14  17
ATOM     17  C   UNL     1       2.804  -6.754  26.978  0.00  0.00    +0.308 C 
ATOM     18  O   UNL     1       2.070  -7.476  26.319  0.00  0.00    -0.251 OA
BRANCH  17  19
ATOM     19  O   UNL     1       4.069  -7.121  27.284  0.00  0.00    -0.480 OA
ATOM     20  H   UNL     1       4.135  -7.807  27.970  0.00  0.00    +0.295 HD
ENDBRANCH  17  19
ENDBRANCH  14  17
ENDBRANCH   8  11
ENDBRANCH   2   7
ENDBRANCH   1   2
BRANCH   1  21
ATOM     21  C   UNL     1       7.221  -3.634  24.703  0.00  0.00    +0.125 C 
BRANCH  21  22
ATOM     22  C   UNL     1       8.024  -3.948  23.442  0.00  0.00    +0.318 C 
ATOM     23  O   UNL     1       7.569  -4.444  22.423  0.00  0.00    -0.250 OA
BRANCH  22  24
ATOM     24  O   UNL     1       9.322  -3.484  23.601  0.00  0.00    -0.426 OA
BRANCH  24  25
ATOM     25  C   UNL     1       9.548  -2.174  23.149  0.00  0.00    +0.132 A 
ATOM     26  C   UNL     1       9.081  -1.747  21.894  0.00  0.00    +0.046 A 
ATOM     27  C   UNL     1       9.207  -0.412  21.520  0.00  0.00    +0.007 A 
ATOM     28  C   UNL     1       9.782   0.474  22.414  0.00  0.00    -0.044 A 
ATOM     29  C   UNL     1       9.995   1.936  22.203  0.00  0.00    +0.036 C 
ATOM     30  C   UNL     1      10.636   2.396  23.520  0.00  0.00    +0.009 C 
ATOM     31  C   UNL     1      10.806   1.185  24.452  0.00  0.00    +0.036 C 
ATOM     32  C   UNL     1      10.233   0.053  23.666  0.00  0.00    -0.041 A 
ATOM     33  C   UNL     1      10.117  -1.275  24.054  0.00  0.00    +0.050 A 
ENDBRANCH  24  25
ENDBRANCH  22  24
ENDBRANCH  21  22
BRANCH  21  34
ATOM     34  C   UNL     1       6.662  -4.915  25.288  0.00  0.00    +0.174 C 
BRANCH  34  35
ATOM     35  O   UNL     1       5.246  -5.045  25.194  0.00  0.00    -0.377 OA
BRANCH  35  36
ATOM     36  C   UNL     1       4.930  -5.964  24.137  0.00  0.00    +0.188 C 
BRANCH  36  37
ATOM     37  C   UNL     1       4.066  -5.290  23.087  0.00  0.00    +0.187 C 
BRANCH  37  39
ATOM     38  C   UNL     1       1.754  -5.707  23.031  0.00  0.00    +0.194 C 
ATOM     39  O   UNL     1       3.041  -6.196  22.683  0.00  0.00    -0.381 OA
ENDBRANCH  37  39
ENDBRANCH  36  37
ENDBRANCH  35  36
ENDBRANCH  34  35
ENDBRANCH  21  34
ENDBRANCH   1  21
TORSDOF 14
ENDMDL
MODEL 4
REMARK VINA RESULT:      -6.4      2.045      4.007
REMARK  Name = 
REMARK  15 active torsions:
REMARK  status: ('A' for Active; 'I' for Inactive)
REMARK    1  A    between atoms: C_1  and  O_2
REMARK    2  A    between atoms: O_2  and  C_3
REMARK    3  A    between atoms: C_3  and  C_4
REMARK    4  A    between atoms: C_4  and  O_5
REMARK    5  A    between atoms: O_5  and  C_6
REMARK    6  A    between atoms: C_6  and  C_7
REMARK    7  A    between atoms: C_7  and  C_9
REMARK    8  A    between atoms: C_7  and  C_29
REMARK    9  A    between atoms: C_9  and  C_10
REMARK   10  A    between atoms: C_10  and  C_15
REMARK   11  A    between atoms: N_17  and  C_18
REMARK   12  A    between atoms: C_22  and  C_26
REMARK   13  A    between atoms: C_26  and  O_27
REMARK   14  A    between atoms: C_29  and  O_31
REMARK   15  A    between atoms: O_31  and  C_32
REMARK                            x       y       z     vdW  Elec       q    Type
REMARK                         _______ _______ _______ _____ _____    ______ ____
ROOT
ATOM      1  C   UNL     1       6.471  -3.338  24.814  0.00  0.00    +0.033 C 
ENDROOT
BRANCH   1   2
ATOM      2  C   UNL     1       5.882  -1.997  25.358  0.00  0.00    +0.048 C 
ATOM      3  C   UNL     1       5.947  -0.856  24.321  0.00  0.00    +0.016 C 
ATOM      4  C   UNL     1       6.474   0.385  25.034  0.00  0.00    +0.001 C 
ATOM      5  C   UNL     1       6.560   0.055  26.513  0.00  0.00    +0.001 C 
ATOM      6  C   UNL     1       6.638  -1.459  26.602  0.00  0.00    +0.016 C 
BRANCH   2   7
ATOM      7  C   UNL     1       4.401  -2.222  25.805  0.00  0.00    +0.219 C 
ATOM      8  N   UNL     1       3.863  -3.483  25.628  0.00  0.00    -0.312 N 
ATOM      9  H   UNL     1       4.480  -4.252  25.402  0.00  0.00    +0.149 HD
ATOM     10  O   UNL     1       3.723  -1.323  26.300  0.00  0.00    -0.275 OA
BRANCH   8  11
ATOM     11  C   UNL     1       2.494  -3.777  26.064  0.00  0.00    +0.073 C 
ATOM     12  C   UNL     1       2.423  -5.017  26.957  0.00  0.00    +0.023 C 
ATOM     13  C   UNL     1       2.704  -6.315  26.203  0.00  0.00    +0.016 C 
ATOM     14  C   UNL     1       1.888  -6.489  24.908  0.00  0.00    +0.098 C 
ATOM     15  C   UNL     1       1.810  -5.210  24.067  0.00  0.00    +0.016 C 
ATOM     16  C   UNL     1       1.517  -3.960  24.891  0.00  0.00    +0.023 C 
BRANCH  14  17
ATOM     17  C   UNL     1       2.486  -7.616  24.071  0.00  0.00    +0.308 C 
ATOM     18  O   UNL     1       1.859  -8.315  23.289  0.00  0.00    -0.251 OA
BRANCH  17  19
ATOM     19  O   UNL     1       3.812  -7.788  24.268  0.00  0.00    -0.480 OA
ATOM     20  H   UNL     1       4.292  -8.139  23.497  0.00  0.00    +0.295 HD
ENDBRANCH  17  19
ENDBRANCH  14  17
ENDBRANCH   8  11
ENDBRANCH   2   7
ENDBRANCH   1   2
BRANCH   1  21
ATOM     21  C   UNL     1       7.751  -3.954  25.478  0.00  0.00    +0.125 C 
BRANCH  21  22
ATOM     22  C   UNL     1       8.687  -4.468  24.387  0.00  0.00    +0.318 C 
ATOM     23  O   UNL     1       8.422  -5.359  23.593  0.00  0.00    -0.250 OA
BRANCH  22  24
ATOM     24  O   UNL     1       9.840  -3.696  24.374  0.00  0.00    -0.426 OA
BRANCH  24  25
ATOM     25  C   UNL     1       9.717  -2.451  23.734  0.00  0.00    +0.132 A 
ATOM     26  C   UNL     1       9.180  -2.349  22.439  0.00  0.00    +0.046 A 
ATOM     27  C   UNL     1       8.953  -1.097  21.875  0.00  0.00    +0.007 A 
ATOM     28  C   UNL     1       9.252   0.030  22.623  0.00  0.00    -0.044 A 
ATOM     29  C   UNL     1       9.071   1.449  22.200  0.00  0.00    +0.036 C 
ATOM     30  C   UNL     1       9.536   2.247  23.426  0.00  0.00    +0.009 C 
ATOM     31  C   UNL     1      10.004   1.272  24.519  0.00  0.00    +0.036 C 
ATOM     32  C   UNL     1       9.771  -0.073  23.914  0.00  0.00    -0.041 A 
ATOM     33  C   UNL     1      10.005  -1.313  24.491  0.00  0.00    +0.050 A 
ENDBRANCH  24  25
ENDBRANCH  22  24
ENDBRANCH  21  22
BRANCH  21  34
ATOM     34  C   UNL     1       7.469  -5.058  26.476  0.00  0.00    +0.174 C 
BRANCH  34  35
ATOM     35  O   UNL     1       6.090  -5.255  26.776  0.00  0.00    -0.377 OA
BRANCH  35  36
ATOM     36  C   UNL     1       5.894  -5.108  28.191  0.00  0.00    +0.188 C 
BRANCH  36  37
ATOM     37  C   UNL     1       6.248  -6.395  28.912  0.00  0.00    +0.187 C 
BRANCH  37  39
ATOM     38  C   UNL     1       4.080  -6.723  29.758  0.00  0.00    +0.194 C 
ATOM     39  O   UNL     1       5.103  -7.247  28.924  0.00  0.00    -0.381 OA
ENDBRANCH  37  39
ENDBRANCH  36  37
ENDBRANCH  35  36
ENDBRANCH  34  35
ENDBRANCH  21  34
ENDBRANCH   1  21
TORSDOF 14
ENDMDL
MODEL 5
REMARK VINA RESULT:      -6.4      2.767      8.093
REMARK  Name = 
REMARK  15 active torsions:
REMARK  status: ('A' for Active; 'I' for Inactive)
REMARK    1  A    between atoms: C_1  and  O_2
REMARK    2  A    between atoms: O_2  and  C_3
REMARK    3  A    between atoms: C_3  and  C_4
REMARK    4  A    between atoms: C_4  and  O_5
REMARK    5  A    between atoms: O_5  and  C_6
REMARK    6  A    between atoms: C_6  and  C_7
REMARK    7  A    between atoms: C_7  and  C_9
REMARK    8  A    between atoms: C_7  and  C_29
REMARK    9  A    between atoms: C_9  and  C_10
REMARK   10  A    between atoms: C_10  and  C_15
REMARK   11  A    between atoms: N_17  and  C_18
REMARK   12  A    between atoms: C_22  and  C_26
REMARK   13  A    between atoms: C_26  and  O_27
REMARK   14  A    between atoms: C_29  and  O_31
REMARK   15  A    between atoms: O_31  and  C_32
REMARK                            x       y       z     vdW  Elec       q    Type
REMARK                         _______ _______ _______ _____ _____    ______ ____
ROOT
ATOM      1  C   UNL     1       8.571  -0.014  24.530  0.00  0.00    +0.033 C 
ENDROOT
BRANCH   1   2
ATOM      2  C   UNL     1       7.376  -0.110  25.532  0.00  0.00    +0.048 C 
ATOM      3  C   UNL     1       7.577  -1.216  26.589  0.00  0.00    +0.016 C 
ATOM      4  C   UNL     1       6.270  -1.996  26.695  0.00  0.00    +0.001 C 
ATOM      5  C   UNL     1       5.240  -1.269  25.849  0.00  0.00    +0.001 C 
ATOM      6  C   UNL     1       6.027  -0.446  24.843  0.00  0.00    +0.016 C 
BRANCH   2   7
ATOM      7  C   UNL     1       7.178   1.269  26.241  0.00  0.00    +0.219 C 
ATOM      8  N   UNL     1       6.938   2.371  25.442  0.00  0.00    -0.312 N 
ATOM      9  H   UNL     1       6.710   2.229  24.467  0.00  0.00    +0.149 HD
ATOM     10  O   UNL     1       7.230   1.390  27.464  0.00  0.00    -0.275 OA
BRANCH   8  11
ATOM     11  C   UNL     1       6.700   3.688  26.042  0.00  0.00    +0.073 C 
ATOM     12  C   UNL     1       5.446   4.362  25.481  0.00  0.00    +0.023 C 
ATOM     13  C   UNL     1       5.601   4.800  24.027  0.00  0.00    +0.016 C 
ATOM     14  C   UNL     1       6.873   5.619  23.740  0.00  0.00    +0.098 C 
ATOM     15  C   UNL     1       8.123   5.052  24.422  0.00  0.00    +0.016 C 
ATOM     16  C   UNL     1       7.890   4.647  25.874  0.00  0.00    +0.023 C 
BRANCH  14  17
ATOM     17  C   UNL     1       7.104   5.700  22.234  0.00  0.00    +0.308 C 
ATOM     18  O   UNL     1       7.097   6.732  21.579  0.00  0.00    -0.251 OA
BRANCH  17  19
ATOM     19  O   UNL     1       7.327   4.498  21.658  0.00  0.00    -0.480 OA
ATOM     20  H   UNL     1       8.024   4.499  20.978  0.00  0.00    +0.295 HD
ENDBRANCH  17  19
ENDBRANCH  14  17
ENDBRANCH   8  11
ENDBRANCH   2   7
ENDBRANCH   1   2
BRANCH   1  21
ATOM     21  C   UNL     1       8.329  -0.269  23.002  0.00  0.00    +0.125 C 
BRANCH  21  22
ATOM     22  C   UNL     1       9.180  -1.452  22.548  0.00  0.00    +0.318 C 
ATOM     23  O   UNL     1      10.354  -1.628  22.837  0.00  0.00    -0.250 OA
BRANCH  22  24
ATOM     24  O   UNL     1       8.382  -2.344  21.845  0.00  0.00    -0.426 OA
BRANCH  24  25
ATOM     25  C   UNL     1       7.398  -2.994  22.608  0.00  0.00    +0.132 A 
ATOM     26  C   UNL     1       6.051  -2.995  22.208  0.00  0.00    +0.046 A 
ATOM     27  C   UNL     1       5.114  -3.748  22.910  0.00  0.00    +0.007 A 
ATOM     28  C   UNL     1       5.547  -4.501  23.989  0.00  0.00    -0.044 A 
ATOM     29  C   UNL     1       4.704  -5.375  24.855  0.00  0.00    +0.036 C 
ATOM     30  C   UNL     1       5.711  -5.967  25.852  0.00  0.00    +0.009 C 
ATOM     31  C   UNL     1       7.109  -5.398  25.557  0.00  0.00    +0.036 C 
ATOM     32  C   UNL     1       6.887  -4.511  24.377  0.00  0.00    -0.041 A 
ATOM     33  C   UNL     1       7.833  -3.764  23.689  0.00  0.00    +0.050 A 
ENDBRANCH  24  25
ENDBRANCH  22  24
ENDBRANCH  21  22
BRANCH  21  34
ATOM     34  C   UNL     1       8.600   0.930  22.116  0.00  0.00    +0.174 C 
BRANCH  34  35
ATOM     35  O   UNL     1       8.867   2.142  22.816  0.00  0.00    -0.377 OA
BRANCH  35  36
ATOM     36  C   UNL     1      10.183   2.601  22.472  0.00  0.00    +0.188 C 
BRANCH  36  37
ATOM     37  C   UNL     1      10.905   3.114  23.704  0.00  0.00    +0.187 C 
BRANCH  37  39
ATOM     38  C   UNL     1      11.726   5.305  23.484  0.00  0.00    +0.194 C 
ATOM     39  O   UNL     1      12.003   3.926  23.289  0.00  0.00    -0.381 OA
ENDBRANCH  37  39
ENDBRANCH  36  37
ENDBRANCH  35  36
ENDBRANCH  34  35
ENDBRANCH  21  34
ENDBRANCH   1  21
TORSDOF 14
ENDMDL
MODEL 6
REMARK VINA RESULT:      -6.4      2.159      8.363
REMARK  Name = 
REMARK  15 active torsions:
REMARK  status: ('A' for Active; 'I' for Inactive)
REMARK    1  A    between atoms: C_1  and  O_2
REMARK    2  A    between atoms: O_2  and  C_3
REMARK    3  A    between atoms: C_3  and  C_4
REMARK    4  A    between atoms: C_4  and  O_5
REMARK    5  A    between atoms: O_5  and  C_6
REMARK    6  A    between atoms: C_6  and  C_7
REMARK    7  A    between atoms: C_7  and  C_9
REMARK    8  A    between atoms: C_7  and  C_29
REMARK    9  A    between atoms: C_9  and  C_10
REMARK   10  A    between atoms: C_10  and  C_15
REMARK   11  A    between atoms: N_17  and  C_18
REMARK   12  A    between atoms: C_22  and  C_26
REMARK   13  A    between atoms: C_26  and  O_27
REMARK   14  A    between atoms: C_29  and  O_31
REMARK   15  A    between atoms: O_31  and  C_32
REMARK                            x       y       z     vdW  Elec       q    Type
REMARK                         _______ _______ _______ _____ _____    ______ ____
ROOT
ATOM      1  C   UNL     1       6.064  -1.436  24.480  0.00  0.00    +0.033 C 
ENDROOT
BRANCH   1   2
ATOM      2  C   UNL     1       6.658  -2.563  23.576  0.00  0.00    +0.048 C 
ATOM      3  C   UNL     1       5.691  -2.994  22.453  0.00  0.00    +0.016 C 
ATOM      4  C   UNL     1       5.675  -4.519  22.417  0.00  0.00    +0.001 C 
ATOM      5  C   UNL     1       6.744  -5.004  23.379  0.00  0.00    +0.001 C 
ATOM      6  C   UNL     1       6.980  -3.866  24.356  0.00  0.00    +0.016 C 
BRANCH   2   7
ATOM      7  C   UNL     1       8.007  -2.076  22.954  0.00  0.00    +0.219 C 
ATOM      8  N   UNL     1       8.621  -0.983  23.534  0.00  0.00    -0.312 N 
ATOM      9  H   UNL     1       8.294  -0.656  24.434  0.00  0.00    +0.149 HD
ATOM     10  O   UNL     1       8.519  -2.633  21.985  0.00  0.00    -0.275 OA
BRANCH   8  11
ATOM     11  C   UNL     1       9.910  -0.497  23.029  0.00  0.00    +0.073 C 
ATOM     12  C   UNL     1      10.663   0.336  24.068  0.00  0.00    +0.023 C 
ATOM     13  C   UNL     1      10.005   1.686  24.343  0.00  0.00    +0.016 C 
ATOM     14  C   UNL     1       9.672   2.502  23.080  0.00  0.00    +0.098 C 
ATOM     15  C   UNL     1       9.059   1.656  21.959  0.00  0.00    +0.016 C 
ATOM     16  C   UNL     1       9.777   0.329  21.739  0.00  0.00    +0.023 C 
BRANCH  14  17
ATOM     17  C   UNL     1       8.723   3.642  23.439  0.00  0.00    +0.308 C 
ATOM     18  O   UNL     1       8.592   4.116  24.557  0.00  0.00    -0.251 OA
BRANCH  17  19
ATOM     19  O   UNL     1       8.015   4.106  22.386  0.00  0.00    -0.480 OA
ATOM     20  H   UNL     1       7.122   3.727  22.302  0.00  0.00    +0.295 HD
ENDBRANCH  17  19
ENDBRANCH  14  17
ENDBRANCH   8  11
ENDBRANCH   2   7
ENDBRANCH   1   2
BRANCH   1  21
ATOM     21  C   UNL     1       6.001  -1.635  26.034  0.00  0.00    +0.125 C 
BRANCH  21  22
ATOM     22  C   UNL     1       4.567  -1.420  26.513  0.00  0.00    +0.318 C 
ATOM     23  O   UNL     1       3.869  -0.457  26.234  0.00  0.00    -0.250 OA
BRANCH  22  24
ATOM     24  O   UNL     1       4.152  -2.537  27.224  0.00  0.00    -0.426 OA
BRANCH  24  25
ATOM     25  C   UNL     1       4.048  -3.719  26.472  0.00  0.00    +0.132 A 
ATOM     26  C   UNL     1       4.637  -4.916  26.916  0.00  0.00    +0.046 A 
ATOM     27  C   UNL     1       4.418  -6.101  26.219  0.00  0.00    +0.007 A 
ATOM     28  C   UNL     1       3.599  -6.071  25.103  0.00  0.00    -0.044 A 
ATOM     29  C   UNL     1       3.237  -7.230  24.237  0.00  0.00    +0.036 C 
ATOM     30  C   UNL     1       2.299  -6.612  23.190  0.00  0.00    +0.009 C 
ATOM     31  C   UNL     1       2.164  -5.103  23.457  0.00  0.00    +0.036 C 
ATOM     32  C   UNL     1       3.003  -4.885  24.672  0.00  0.00    -0.041 A 
ATOM     33  C   UNL     1       3.213  -3.694  25.353  0.00  0.00    +0.050 A 
ENDBRANCH  24  25
ENDBRANCH  22  24
ENDBRANCH  21  22
BRANCH  21  34
ATOM     34  C   UNL     1       6.944  -0.746  26.819  0.00  0.00    +0.174 C 
BRANCH  34  35
ATOM     35  O   UNL     1       7.452   0.371  26.095  0.00  0.00    -0.377 OA
BRANCH  35  36
ATOM     36  C   UNL     1       7.113   1.577  26.797  0.00  0.00    +0.188 C 
BRANCH  36  37
ATOM     37  C   UNL     1       5.971   2.293  26.100  0.00  0.00    +0.187 C 
BRANCH  37  39
ATOM     38  C   UNL     1       4.988   2.656  23.997  0.00  0.00    +0.194 C 
ATOM     39  O   UNL     1       5.994   1.956  24.714  0.00  0.00    -0.381 OA
ENDBRANCH  37  39
ENDBRANCH  36  37
ENDBRANCH  35  36
ENDBRANCH  34  35
ENDBRANCH  21  34
ENDBRANCH   1  21
TORSDOF 14
ENDMDL
MODEL 7
REMARK VINA RESULT:      -6.4      2.471      7.802
REMARK  Name = 
REMARK  15 active torsions:
REMARK  status: ('A' for Active; 'I' for Inactive)
REMARK    1  A    between atoms: C_1  and  O_2
REMARK    2  A    between atoms: O_2  and  C_3
REMARK    3  A    between atoms: C_3  and  C_4
REMARK    4  A    between atoms: C_4  and  O_5
REMARK    5  A    between atoms: O_5  and  C_6
REMARK    6  A    between atoms: C_6  and  C_7
REMARK    7  A    between atoms: C_7  and  C_9
REMARK    8  A    between atoms: C_7  and  C_29
REMARK    9  A    between atoms: C_9  and  C_10
REMARK   10  A    between atoms: C_10  and  C_15
REMARK   11  A    between atoms: N_17  and  C_18
REMARK   12  A    between atoms: C_22  and  C_26
REMARK   13  A    between atoms: C_26  and  O_27
REMARK   14  A    between atoms: C_29  and  O_31
REMARK   15  A    between atoms: O_31  and  C_32
REMARK                            x       y       z     vdW  Elec       q    Type
REMARK                         _______ _______ _______ _____ _____    ______ ____
ROOT
ATOM      1  C   UNL     1       7.372  -0.017  25.026  0.00  0.00    +0.033 C 
ENDROOT
BRANCH   1   2
ATOM      2  C   UNL     1       5.992  -0.415  25.642  0.00  0.00    +0.048 C 
ATOM      3  C   UNL     1       6.105  -0.851  27.118  0.00  0.00    +0.016 C 
ATOM      4  C   UNL     1       5.285  -2.126  27.286  0.00  0.00    +0.001 C 
ATOM      5  C   UNL     1       4.545  -2.363  25.982  0.00  0.00    +0.001 C 
ATOM      6  C   UNL     1       5.321  -1.611  24.915  0.00  0.00    +0.016 C 
BRANCH   2   7
ATOM      7  C   UNL     1       5.000   0.788  25.520  0.00  0.00    +0.219 C 
ATOM      8  N   UNL     1       5.262   1.737  24.550  0.00  0.00    -0.312 N 
ATOM      9  H   UNL     1       5.954   1.535  23.840  0.00  0.00    +0.149 HD
ATOM     10  O   UNL     1       4.018   0.903  26.251  0.00  0.00    -0.275 OA
BRANCH   8  11
ATOM     11  C   UNL     1       4.351   2.869  24.351  0.00  0.00    +0.073 C 
ATOM     12  C   UNL     1       4.209   3.246  22.875  0.00  0.00    +0.023 C 
ATOM     13  C   UNL     1       5.475   3.870  22.292  0.00  0.00    +0.016 C 
ATOM     14  C   UNL     1       6.061   5.023  23.129  0.00  0.00    +0.098 C 
ATOM     15  C   UNL     1       6.070   4.733  24.634  0.00  0.00    +0.016 C 
ATOM     16  C   UNL     1       4.767   4.121  25.140  0.00  0.00    +0.023 C 
BRANCH  14  17
ATOM     17  C   UNL     1       7.480   5.329  22.658  0.00  0.00    +0.308 C 
ATOM     18  O   UNL     1       8.494   5.101  23.300  0.00  0.00    -0.251 OA
BRANCH  17  19
ATOM     19  O   UNL     1       7.530   5.892  21.430  0.00  0.00    -0.480 OA
ATOM     20  H   UNL     1       8.001   5.363  20.763  0.00  0.00    +0.295 HD
ENDBRANCH  17  19
ENDBRANCH  14  17
ENDBRANCH   8  11
ENDBRANCH   2   7
ENDBRANCH   1   2
BRANCH   1  21
ATOM     21  C   UNL     1       8.045  -0.946  23.958  0.00  0.00    +0.125 C 
BRANCH  21  22
ATOM     22  C   UNL     1       9.442  -1.335  24.436  0.00  0.00    +0.318 C 
ATOM     23  O   UNL     1      10.199  -0.609  25.063  0.00  0.00    -0.250 OA
BRANCH  22  24
ATOM     24  O   UNL     1       9.671  -2.670  24.137  0.00  0.00    -0.426 OA
BRANCH  24  25
ATOM     25  C   UNL     1       8.785  -3.577  24.740  0.00  0.00    +0.132 A 
ATOM     26  C   UNL     1       8.787  -3.780  26.131  0.00  0.00    +0.046 A 
ATOM     27  C   UNL     1       7.818  -4.589  26.720  0.00  0.00    +0.007 A 
ATOM     28  C   UNL     1       6.857  -5.166  25.909  0.00  0.00    -0.044 A 
ATOM     29  C   UNL     1       5.738  -6.049  26.349  0.00  0.00    +0.036 C 
ATOM     30  C   UNL     1       4.993  -6.359  25.043  0.00  0.00    +0.009 C 
ATOM     31  C   UNL     1       5.715  -5.671  23.872  0.00  0.00    +0.036 C 
ATOM     32  C   UNL     1       6.846  -4.953  24.530  0.00  0.00    -0.041 A 
ATOM     33  C   UNL     1       7.806  -4.151  23.927  0.00  0.00    +0.050 A 
ENDBRANCH  24  25
ENDBRANCH  22  24
ENDBRANCH  21  22
BRANCH  21  34
ATOM     34  C   UNL     1       8.125  -0.347  22.568  0.00  0.00    +0.174 C 
BRANCH  34  35
ATOM     35  O   UNL     1       7.441   0.893  22.412  0.00  0.00    -0.377 OA
BRANCH  35  36
ATOM     36  C   UNL     1       8.322   1.837  21.784  0.00  0.00    +0.188 C 
BRANCH  36  37
ATOM     37  C   UNL     1       9.753   1.332  21.818  0.00  0.00    +0.187 C 
BRANCH  37  39
ATOM     38  C   UNL     1      10.566   2.483  23.699  0.00  0.00    +0.194 C 
ATOM     39  O   UNL     1      10.601   2.381  22.284  0.00  0.00    -0.381 OA
ENDBRANCH  37  39
ENDBRANCH  36  37
ENDBRANCH  35  36
ENDBRANCH  34  35
ENDBRANCH  21  34
ENDBRANCH   1  21
TORSDOF 14
ENDMDL
MODEL 8
REMARK VINA RESULT:      -6.3      2.582      8.823
REMARK  Name = 
REMARK  15 active torsions:
REMARK  status: ('A' for Active; 'I' for Inactive)
REMARK    1  A    between atoms: C_1  and  O_2
REMARK    2  A    between atoms: O_2  and  C_3
REMARK    3  A    between atoms: C_3  and  C_4
REMARK    4  A    between atoms: C_4  and  O_5
REMARK    5  A    between atoms: O_5  and  C_6
REMARK    6  A    between atoms: C_6  and  C_7
REMARK    7  A    between atoms: C_7  and  C_9
REMARK    8  A    between atoms: C_7  and  C_29
REMARK    9  A    between atoms: C_9  and  C_10
REMARK   10  A    between atoms: C_10  and  C_15
REMARK   11  A    between atoms: N_17  and  C_18
REMARK   12  A    between atoms: C_22  and  C_26
REMARK   13  A    between atoms: C_26  and  O_27
REMARK   14  A    between atoms: C_29  and  O_31
REMARK   15  A    between atoms: O_31  and  C_32
REMARK                            x       y       z     vdW  Elec       q    Type
REMARK                         _______ _______ _______ _____ _____    ______ ____
ROOT
ATOM      1  C   UNL     1       6.814  -2.536  24.150  0.00  0.00    +0.033 C 
ENDROOT
BRANCH   1   2
ATOM      2  C   UNL     1       8.153  -3.198  24.609  0.00  0.00    +0.048 C 
ATOM      3  C   UNL     1       8.255  -4.680  24.191  0.00  0.00    +0.016 C 
ATOM      4  C   UNL     1       8.752  -5.467  25.400  0.00  0.00    +0.001 C 
ATOM      5  C   UNL     1       9.114  -4.461  26.476  0.00  0.00    +0.001 C 
ATOM      6  C   UNL     1       8.337  -3.197  26.150  0.00  0.00    +0.016 C 
BRANCH   2   7
ATOM      7  C   UNL     1       9.360  -2.398  24.020  0.00  0.00    +0.219 C 
ATOM      8  N   UNL     1       9.206  -1.035  23.856  0.00  0.00    -0.312 N 
ATOM      9  H   UNL     1       8.415  -0.575  24.288  0.00  0.00    +0.149 HD
ATOM     10  O   UNL     1      10.417  -2.944  23.708  0.00  0.00    -0.275 OA
BRANCH   8  11
ATOM     11  C   UNL     1      10.312  -0.216  23.349  0.00  0.00    +0.073 C 
ATOM     12  C   UNL     1      10.622   0.970  24.265  0.00  0.00    +0.023 C 
ATOM     13  C   UNL     1       9.529   2.036  24.257  0.00  0.00    +0.016 C 
ATOM     14  C   UNL     1       9.094   2.491  22.851  0.00  0.00    +0.098 C 
ATOM     15  C   UNL     1       8.927   1.330  21.865  0.00  0.00    +0.016 C 
ATOM     16  C   UNL     1      10.063   0.314  21.927  0.00  0.00    +0.023 C 
BRANCH  14  17
ATOM     17  C   UNL     1       7.787   3.274  22.946  0.00  0.00    +0.308 C 
ATOM     18  O   UNL     1       7.414   4.113  22.140  0.00  0.00    -0.251 OA
BRANCH  17  19
ATOM     19  O   UNL     1       7.046   2.955  24.031  0.00  0.00    -0.480 OA
ATOM     20  H   UNL     1       6.522   2.140  23.936  0.00  0.00    +0.295 HD
ENDBRANCH  17  19
ENDBRANCH  14  17
ENDBRANCH   8  11
ENDBRANCH   2   7
ENDBRANCH   1   2
BRANCH   1  21
ATOM     21  C   UNL     1       5.763  -2.080  25.219  0.00  0.00    +0.125 C 
BRANCH  21  22
ATOM     22  C   UNL     1       4.428  -2.765  24.938  0.00  0.00    +0.318 C 
ATOM     23  O   UNL     1       3.380  -2.534  25.524  0.00  0.00    -0.250 OA
BRANCH  22  24
ATOM     24  O   UNL     1       4.570  -3.611  23.848  0.00  0.00    -0.426 OA
BRANCH  24  25
ATOM     25  C   UNL     1       4.114  -4.924  24.047  0.00  0.00    +0.132 A 
ATOM     26  C   UNL     1       4.687  -5.752  25.027  0.00  0.00    +0.046 A 
ATOM     27  C   UNL     1       4.139  -7.004  25.292  0.00  0.00    +0.007 A 
ATOM     28  C   UNL     1       3.016  -7.397  24.582  0.00  0.00    -0.044 A 
ATOM     29  C   UNL     1       2.281  -8.687  24.728  0.00  0.00    +0.036 C 
ATOM     30  C   UNL     1       1.129  -8.556  23.722  0.00  0.00    +0.009 C 
ATOM     31  C   UNL     1       1.240  -7.204  22.997  0.00  0.00    +0.036 C 
ATOM     32  C   UNL     1       2.439  -6.569  23.620  0.00  0.00    -0.041 A 
ATOM     33  C   UNL     1       2.975  -5.319  23.342  0.00  0.00    +0.050 A 
ENDBRANCH  24  25
ENDBRANCH  22  24
ENDBRANCH  21  22
BRANCH  21  34
ATOM     34  C   UNL     1       5.563  -0.580  25.303  0.00  0.00    +0.174 C 
BRANCH  34  35
ATOM     35  O   UNL     1       6.765   0.185  25.287  0.00  0.00    -0.377 OA
BRANCH  35  36
ATOM     36  C   UNL     1       7.277   0.278  26.626  0.00  0.00    +0.188 C 
BRANCH  36  37
ATOM     37  C   UNL     1       6.485   1.295  27.427  0.00  0.00    +0.187 C 
BRANCH  37  39
ATOM     38  C   UNL     1       6.921   3.593  27.653  0.00  0.00    +0.194 C 
ATOM     39  O   UNL     1       6.546   2.555  26.760  0.00  0.00    -0.381 OA
ENDBRANCH  37  39
ENDBRANCH  36  37
ENDBRANCH  35  36
ENDBRANCH  34  35
ENDBRANCH  21  34
ENDBRANCH   1  21
TORSDOF 14
ENDMDL
MODEL 9
REMARK VINA RESULT:      -6.3      1.928      6.631
REMARK  Name = 
REMARK  15 active torsions:
REMARK  status: ('A' for Active; 'I' for Inactive)
REMARK    1  A    between atoms: C_1  and  O_2
REMARK    2  A    between atoms: O_2  and  C_3
REMARK    3  A    between atoms: C_3  and  C_4
REMARK    4  A    between atoms: C_4  and  O_5
REMARK    5  A    between atoms: O_5  and  C_6
REMARK    6  A    between atoms: C_6  and  C_7
REMARK    7  A    between atoms: C_7  and  C_9
REMARK    8  A    between atoms: C_7  and  C_29
REMARK    9  A    between atoms: C_9  and  C_10
REMARK   10  A    between atoms: C_10  and  C_15
REMARK   11  A    between atoms: N_17  and  C_18
REMARK   12  A    between atoms: C_22  and  C_26
REMARK   13  A    between atoms: C_26  and  O_27
REMARK   14  A    between atoms: C_29  and  O_31
REMARK   15  A    between atoms: O_31  and  C_32
REMARK                            x       y       z     vdW  Elec       q    Type
REMARK                         _______ _______ _______ _____ _____    ______ ____
ROOT
ATOM      1  C   UNL     1       6.535  -4.502  25.414  0.00  0.00    +0.033 C 
ENDROOT
BRANCH   1   2
ATOM      2  C   UNL     1       7.002  -4.182  23.958  0.00  0.00    +0.048 C 
ATOM      3  C   UNL     1       6.063  -3.189  23.240  0.00  0.00    +0.016 C 
ATOM      4  C   UNL     1       5.800  -3.734  21.840  0.00  0.00    +0.001 C 
ATOM      5  C   UNL     1       6.699  -4.941  21.648  0.00  0.00    +0.001 C 
ATOM      6  C   UNL     1       7.045  -5.435  23.042  0.00  0.00    +0.016 C 
BRANCH   2   7
ATOM      7  C   UNL     1       8.455  -3.608  23.990  0.00  0.00    +0.219 C 
ATOM      8  N   UNL     1       8.604  -2.238  23.880  0.00  0.00    -0.312 N 
ATOM      9  H   UNL     1       7.789  -1.647  23.973  0.00  0.00    +0.149 HD
ATOM     10  O   UNL     1       9.442  -4.331  24.110  0.00  0.00    -0.275 OA
BRANCH   8  11
ATOM     11  C   UNL     1       9.936  -1.627  23.945  0.00  0.00    +0.073 C 
ATOM     12  C   UNL     1       9.955  -0.371  24.819  0.00  0.00    +0.023 C 
ATOM     13  C   UNL     1       9.198   0.801  24.199  0.00  0.00    +0.016 C 
ATOM     14  C   UNL     1       9.583   1.108  22.739  0.00  0.00    +0.098 C 
ATOM     15  C   UNL     1       9.725  -0.150  21.875  0.00  0.00    +0.016 C 
ATOM     16  C   UNL     1      10.502  -1.270  22.561  0.00  0.00    +0.023 C 
BRANCH  14  17
ATOM     17  C   UNL     1       8.546   2.040  22.119  0.00  0.00    +0.308 C 
ATOM     18  O   UNL     1       7.568   1.675  21.484  0.00  0.00    -0.251 OA
BRANCH  17  19
ATOM     19  O   UNL     1       8.800   3.350  22.338  0.00  0.00    -0.480 OA
ATOM     20  H   UNL     1       8.426   3.701  23.165  0.00  0.00    +0.295 HD
ENDBRANCH  17  19
ENDBRANCH  14  17
ENDBRANCH   8  11
ENDBRANCH   2   7
ENDBRANCH   1   2
BRANCH   1  21
ATOM     21  C   UNL     1       5.149  -3.974  25.923  0.00  0.00    +0.125 C 
BRANCH  21  22
ATOM     22  C   UNL     1       5.377  -2.862  26.944  0.00  0.00    +0.318 C 
ATOM     23  O   UNL     1       4.658  -2.630  27.905  0.00  0.00    -0.250 OA
BRANCH  22  24
ATOM     24  O   UNL     1       6.580  -2.229  26.668  0.00  0.00    -0.426 OA
BRANCH  24  25
ATOM     25  C   UNL     1       6.510  -0.830  26.565  0.00  0.00    +0.132 A 
ATOM     26  C   UNL     1       7.174   0.001  27.484  0.00  0.00    +0.046 A 
ATOM     27  C   UNL     1       7.192   1.380  27.292  0.00  0.00    +0.007 A 
ATOM     28  C   UNL     1       6.562   1.900  26.175  0.00  0.00    -0.044 A 
ATOM     29  C   UNL     1       6.481   3.339  25.791  0.00  0.00    +0.036 C 
ATOM     30  C   UNL     1       5.698   3.312  24.471  0.00  0.00    +0.009 C 
ATOM     31  C   UNL     1       5.318   1.860  24.135  0.00  0.00    +0.036 C 
ATOM     32  C   UNL     1       5.915   1.073  25.255  0.00  0.00    -0.041 A 
ATOM     33  C   UNL     1       5.885  -0.303  25.433  0.00  0.00    +0.050 A 
ENDBRANCH  24  25
ENDBRANCH  22  24
ENDBRANCH  21  22
BRANCH  21  34
ATOM     34  C   UNL     1       4.250  -5.040  26.515  0.00  0.00    +0.174 C 
BRANCH  34  35
ATOM     35  O   UNL     1       4.857  -6.322  26.656  0.00  0.00    -0.377 OA
BRANCH  35  36
ATOM     36  C   UNL     1       4.864  -6.686  28.045  0.00  0.00    +0.188 C 
BRANCH  36  37
ATOM     37  C   UNL     1       6.213  -6.377  28.667  0.00  0.00    +0.187 C 
BRANCH  37  39
ATOM     38  C   UNL     1       4.827  -5.316  30.240  0.00  0.00    +0.194 C 
ATOM     39  O   UNL     1       6.068  -5.267  29.553  0.00  0.00    -0.381 OA
ENDBRANCH  37  39
ENDBRANCH  36  37
ENDBRANCH  35  36
ENDBRANCH  34  35
ENDBRANCH  21  34
ENDBRANCH   1  21
TORSDOF 14
ENDMDL
