MODEL 1
REMARK VINA RESULT:      -8.4      0.000      0.000
REMARK  Name = 
REMARK  7 active torsions:
REMARK  status: ('A' for Active; 'I' for Inactive)
REMARK    1  A    between atoms: C_1  and  C_2
REMARK    2  A    between atoms: N_5  and  C_18
REMARK    3  A    between atoms: C_8  and  C_9
REMARK    4  A    between atoms: C_8  and  C_12
REMARK    5  A    between atoms: C_9  and  O_10
REMARK    6  A    between atoms: C_21  and  C_24
REMARK    7  A    between atoms: C_21  and  C_26
REMARK                            x       y       z     vdW  Elec       q    Type
REMARK                         _______ _______ _______ _____ _____    ______ ____
ROOT
ATOM      1  C   UNL     1       6.614  -3.545  26.326  0.00  0.00    +0.010 C 
ATOM      2  C   UNL     1       7.890  -2.975  25.680  0.00  0.00    +0.021 C 
ATOM      3  C   UNL     1       8.588  -3.847  24.575  0.00  0.00    +0.097 C 
ATOM      4  C   UNL     1       9.791  -2.965  24.118  0.00  0.00    +0.038 C 
ATOM      5  C   UNL     1       9.378  -1.581  23.585  0.00  0.00    +0.086 C 
ATOM      6  N   UNL     1       8.578  -0.764  24.502  0.00  0.00    -0.299 NA
ATOM      7  C   UNL     1       7.556  -1.561  25.212  0.00  0.00    +0.089 C 
ENDROOT
BRANCH   3   8
ATOM      8  C   UNL     1       7.675  -4.297  23.396  0.00  0.00    -0.030 A 
ATOM      9  C   UNL     1       6.765  -3.407  22.796  0.00  0.00    +0.005 A 
ATOM     10  C   UNL     1       6.007  -3.769  21.675  0.00  0.00    +0.000 A 
ATOM     11  C   UNL     1       6.094  -5.053  21.152  0.00  0.00    +0.000 A 
ATOM     12  C   UNL     1       6.896  -5.987  21.788  0.00  0.00    +0.000 A 
ATOM     13  C   UNL     1       7.650  -5.619  22.907  0.00  0.00    +0.005 A 
ENDBRANCH   3   8
BRANCH   6  14
ATOM     14  C   UNL     1       7.859   0.340  23.788  0.00  0.00    +0.057 C 
ATOM     15  C   UNL     1       8.368   0.751  22.387  0.00  0.00    +0.021 C 
ATOM     16  C   UNL     1       9.570   1.703  22.358  0.00  0.00    +0.028 C 
ATOM     17  C   UNL     1       9.510   2.884  23.362  0.00  0.00    +0.082 C 
ATOM     18  C   UNL     1       9.141   2.316  24.751  0.00  0.00    +0.028 C 
ATOM     19  C   UNL     1       7.785   1.603  24.673  0.00  0.00    +0.021 C 
BRANCH  17  20
ATOM     20  C   UNL     1       8.477   4.024  23.041  0.00  0.00    -0.027 A 
ATOM     21  C   UNL     1       7.335   3.845  22.241  0.00  0.00    +0.008 A 
ATOM     22  C   UNL     1       6.360   4.851  22.139  0.00  0.00    +0.038 A 
ATOM     23  C   UNL     1       6.535   6.063  22.788  0.00  0.00    +0.123 A 
ATOM     24  F   UNL     1       5.586   7.003  22.717  0.00  0.00    -0.205 F 
ATOM     25  C   UNL     1       7.685   6.305  23.524  0.00  0.00    +0.038 A 
ATOM     26  C   UNL     1       8.649   5.298  23.642  0.00  0.00    +0.008 A 
ENDBRANCH  17  20
BRANCH  17  27
ATOM     27  C   UNL     1      10.876   3.550  23.367  0.00  0.00    +0.074 C 
ATOM     28  N   UNL     1      12.009   4.103  23.370  0.00  0.00    -0.196 NA
ENDBRANCH  17  27
ENDBRANCH   6  14
BRANCH   3  29
ATOM     29  C   UNL     1       9.236  -5.069  25.282  0.00  0.00    +0.316 C 
ATOM     30  O   UNL     1       8.640  -5.808  26.059  0.00  0.00    -0.250 OA
BRANCH  29  31
ATOM     31  O   UNL     1      10.557  -5.261  25.045  0.00  0.00    -0.480 OA
ATOM     32  H   UNL     1      10.743  -5.893  24.331  0.00  0.00    +0.295 HD
ENDBRANCH  29  31
ENDBRANCH   3  29
TORSDOF 6
ENDMDL
MODEL 2
REMARK VINA RESULT:      -7.8      2.686      4.404
REMARK  Name = 
REMARK  7 active torsions:
REMARK  status: ('A' for Active; 'I' for Inactive)
REMARK    1  A    between atoms: C_1  and  C_2
REMARK    2  A    between atoms: N_5  and  C_18
REMARK    3  A    between atoms: C_8  and  C_9
REMARK    4  A    between atoms: C_8  and  C_12
REMARK    5  A    between atoms: C_9  and  O_10
REMARK    6  A    between atoms: C_21  and  C_24
REMARK    7  A    between atoms: C_21  and  C_26
REMARK                            x       y       z     vdW  Elec       q    Type
REMARK                         _______ _______ _______ _____ _____    ______ ____
ROOT
ATOM      1  C   UNL     1       8.101  -5.511  25.422  0.00  0.00    +0.010 C 
ATOM      2  C   UNL     1       7.337  -5.152  24.135  0.00  0.00    +0.021 C 
ATOM      3  C   UNL     1       5.793  -4.890  24.264  0.00  0.00    +0.097 C 
ATOM      4  C   UNL     1       5.362  -4.516  22.812  0.00  0.00    +0.038 C 
ATOM      5  C   UNL     1       6.108  -3.298  22.237  0.00  0.00    +0.086 C 
ATOM      6  N   UNL     1       7.571  -3.397  22.233  0.00  0.00    -0.299 NA
ATOM      7  C   UNL     1       8.093  -4.000  23.477  0.00  0.00    +0.089 C 
ENDROOT
BRANCH   3   8
ATOM      8  C   UNL     1       5.378  -3.823  25.320  0.00  0.00    -0.030 A 
ATOM      9  C   UNL     1       6.187  -3.548  26.438  0.00  0.00    +0.005 A 
ATOM     10  C   UNL     1       5.875  -2.526  27.343  0.00  0.00    +0.000 A 
ATOM     11  C   UNL     1       4.712  -1.782  27.190  0.00  0.00    +0.000 A 
ATOM     12  C   UNL     1       3.836  -2.102  26.165  0.00  0.00    +0.000 A 
ATOM     13  C   UNL     1       4.155  -3.125  25.264  0.00  0.00    +0.005 A 
ENDBRANCH   3   8
BRANCH   6  14
ATOM     14  C   UNL     1       8.224  -2.057  22.084  0.00  0.00    +0.057 C 
ATOM     15  C   UNL     1       9.670  -1.892  22.603  0.00  0.00    +0.021 C 
ATOM     16  C   UNL     1       9.822  -1.641  24.109  0.00  0.00    +0.028 C 
ATOM     17  C   UNL     1       8.828  -0.619  24.719  0.00  0.00    +0.082 C 
ATOM     18  C   UNL     1       7.405  -0.990  24.243  0.00  0.00    +0.028 C 
ATOM     19  C   UNL     1       7.347  -0.951  22.710  0.00  0.00    +0.021 C 
BRANCH  17  20
ATOM     20  C   UNL     1       9.060   0.889  24.348  0.00  0.00    -0.027 A 
ATOM     21  C   UNL     1       8.225   1.939  24.769  0.00  0.00    +0.008 A 
ATOM     22  C   UNL     1       8.585   3.279  24.555  0.00  0.00    +0.038 A 
ATOM     23  C   UNL     1       9.752   3.590  23.875  0.00  0.00    +0.123 A 
ATOM     24  F   UNL     1      10.108   4.869  23.705  0.00  0.00    -0.205 F 
ATOM     25  C   UNL     1      10.563   2.581  23.376  0.00  0.00    +0.038 A 
ATOM     26  C   UNL     1      10.215   1.246  23.604  0.00  0.00    +0.008 A 
ENDBRANCH  17  20
BRANCH  17  27
ATOM     27  C   UNL     1       8.959  -0.700  26.231  0.00  0.00    +0.074 C 
ATOM     28  N   UNL     1       9.067  -0.767  27.485  0.00  0.00    -0.196 NA
ENDBRANCH  17  27
ENDBRANCH   6  14
BRANCH   3  29
ATOM     29  C   UNL     1       5.108  -6.255  24.544  0.00  0.00    +0.316 C 
ATOM     30  O   UNL     1       4.772  -6.638  25.659  0.00  0.00    -0.250 OA
BRANCH  29  31
ATOM     31  O   UNL     1       4.943  -7.067  23.471  0.00  0.00    -0.480 OA
ATOM     32  H   UNL     1       5.610  -7.770  23.400  0.00  0.00    +0.295 HD
ENDBRANCH  29  31
ENDBRANCH   3  29
TORSDOF 6
ENDMDL
MODEL 3
REMARK VINA RESULT:      -7.7      2.853      4.265
REMARK  Name = 
REMARK  7 active torsions:
REMARK  status: ('A' for Active; 'I' for Inactive)
REMARK    1  A    between atoms: C_1  and  C_2
REMARK    2  A    between atoms: N_5  and  C_18
REMARK    3  A    between atoms: C_8  and  C_9
REMARK    4  A    between atoms: C_8  and  C_12
REMARK    5  A    between atoms: C_9  and  O_10
REMARK    6  A    between atoms: C_21  and  C_24
REMARK    7  A    between atoms: C_21  and  C_26
REMARK                            x       y       z     vdW  Elec       q    Type
REMARK                         _______ _______ _______ _____ _____    ______ ____
ROOT
ATOM      1  C   UNL     1       3.026  -4.190  25.205  0.00  0.00    +0.010 C 
ATOM      2  C   UNL     1       4.304  -4.270  26.061  0.00  0.00    +0.021 C 
ATOM      3  C   UNL     1       5.426  -5.263  25.586  0.00  0.00    +0.097 C 
ATOM      4  C   UNL     1       6.564  -5.056  26.633  0.00  0.00    +0.038 C 
ATOM      5  C   UNL     1       7.074  -3.606  26.718  0.00  0.00    +0.086 C 
ATOM      6  N   UNL     1       6.052  -2.592  26.997  0.00  0.00    -0.299 NA
ATOM      7  C   UNL     1       4.802  -2.840  26.250  0.00  0.00    +0.089 C 
ENDROOT
BRANCH   3   8
ATOM      8  C   UNL     1       5.906  -5.081  24.115  0.00  0.00    -0.030 A 
ATOM      9  C   UNL     1       7.106  -5.656  23.661  0.00  0.00    +0.005 A 
ATOM     10  C   UNL     1       7.501  -5.582  22.319  0.00  0.00    +0.000 A 
ATOM     11  C   UNL     1       6.734  -4.880  21.399  0.00  0.00    +0.000 A 
ATOM     12  C   UNL     1       5.604  -4.206  21.836  0.00  0.00    +0.000 A 
ATOM     13  C   UNL     1       5.216  -4.285  23.178  0.00  0.00    +0.005 A 
ENDBRANCH   3   8
BRANCH   6  14
ATOM     14  C   UNL     1       6.516  -1.214  26.638  0.00  0.00    +0.057 C 
ATOM     15  C   UNL     1       5.938  -0.563  25.360  0.00  0.00    +0.021 C 
ATOM     16  C   UNL     1       6.594  -0.977  24.036  0.00  0.00    +0.028 C 
ATOM     17  C   UNL     1       8.144  -1.038  24.050  0.00  0.00    +0.082 C 
ATOM     18  C   UNL     1       8.582  -1.844  25.293  0.00  0.00    +0.028 C 
ATOM     19  C   UNL     1       8.057  -1.160  26.563  0.00  0.00    +0.021 C 
BRANCH  17  20
ATOM     20  C   UNL     1       8.898   0.339  24.103  0.00  0.00    -0.027 A 
ATOM     21  C   UNL     1      10.290   0.467  24.256  0.00  0.00    +0.008 A 
ATOM     22  C   UNL     1      10.920   1.713  24.116  0.00  0.00    +0.038 A 
ATOM     23  C   UNL     1      10.170   2.854  23.876  0.00  0.00    +0.123 A 
ATOM     24  F   UNL     1      10.780   4.033  23.708  0.00  0.00    -0.205 F 
ATOM     25  C   UNL     1       8.788   2.780  23.796  0.00  0.00    +0.038 A 
ATOM     26  C   UNL     1       8.159   1.537  23.917  0.00  0.00    +0.008 A 
ENDBRANCH  17  20
BRANCH  17  27
ATOM     27  C   UNL     1       8.586  -1.704  22.758  0.00  0.00    +0.074 C 
ATOM     28  N   UNL     1       8.953  -2.256  21.686  0.00  0.00    -0.196 NA
ENDBRANCH  17  27
ENDBRANCH   6  14
BRANCH   3  29
ATOM     29  C   UNL     1       4.911  -6.706  25.836  0.00  0.00    +0.316 C 
ATOM     30  O   UNL     1       4.391  -7.408  24.975  0.00  0.00    -0.250 OA
BRANCH  29  31
ATOM     31  O   UNL     1       5.009  -7.159  27.110  0.00  0.00    -0.480 OA
ATOM     32  H   UNL     1       5.680  -6.701  27.643  0.00  0.00    +0.295 HD
ENDBRANCH  29  31
ENDBRANCH   3  29
TORSDOF 6
ENDMDL
MODEL 4
REMARK VINA RESULT:      -7.7      4.258      7.980
REMARK  Name = 
REMARK  7 active torsions:
REMARK  status: ('A' for Active; 'I' for Inactive)
REMARK    1  A    between atoms: C_1  and  C_2
REMARK    2  A    between atoms: N_5  and  C_18
REMARK    3  A    between atoms: C_8  and  C_9
REMARK    4  A    between atoms: C_8  and  C_12
REMARK    5  A    between atoms: C_9  and  O_10
REMARK    6  A    between atoms: C_21  and  C_24
REMARK    7  A    between atoms: C_21  and  C_26
REMARK                            x       y       z     vdW  Elec       q    Type
REMARK                         _______ _______ _______ _____ _____    ______ ____
ROOT
ATOM      1  C   UNL     1       8.667   1.483  21.090  0.00  0.00    +0.010 C 
ATOM      2  C   UNL     1       9.590   0.972  22.212  0.00  0.00    +0.021 C 
ATOM      3  C   UNL     1       9.527   1.720  23.593  0.00  0.00    +0.097 C 
ATOM      4  C   UNL     1      10.532   0.928  24.485  0.00  0.00    +0.038 C 
ATOM      5  C   UNL     1      10.193  -0.567  24.623  0.00  0.00    +0.086 C 
ATOM      6  N   UNL     1      10.071  -1.307  23.363  0.00  0.00    -0.299 NA
ATOM      7  C   UNL     1       9.355  -0.532  22.329  0.00  0.00    +0.089 C 
ENDROOT
BRANCH   3   8
ATOM      8  C   UNL     1       8.110   1.844  24.226  0.00  0.00    -0.030 A 
ATOM      9  C   UNL     1       7.941   2.029  25.610  0.00  0.00    +0.005 A 
ATOM     10  C   UNL     1       6.679   2.237  26.181  0.00  0.00    +0.000 A 
ATOM     11  C   UNL     1       5.537   2.211  25.390  0.00  0.00    +0.000 A 
ATOM     12  C   UNL     1       5.658   1.919  24.040  0.00  0.00    +0.000 A 
ATOM     13  C   UNL     1       6.922   1.712  23.478  0.00  0.00    +0.005 A 
ENDBRANCH   3   8
BRANCH   6  14
ATOM     14  C   UNL     1       9.330  -2.598  23.539  0.00  0.00    +0.057 C 
ATOM     15  C   UNL     1       7.979  -2.765  22.808  0.00  0.00    +0.021 C 
ATOM     16  C   UNL     1       6.759  -2.135  23.492  0.00  0.00    +0.028 C 
ATOM     17  C   UNL     1       6.663  -2.358  25.024  0.00  0.00    +0.082 C 
ATOM     18  C   UNL     1       8.033  -2.010  25.648  0.00  0.00    +0.028 C 
ATOM     19  C   UNL     1       9.120  -2.904  25.038  0.00  0.00    +0.021 C 
BRANCH  17  20
ATOM     20  C   UNL     1       6.297  -3.811  25.497  0.00  0.00    -0.027 A 
ATOM     21  C   UNL     1       6.417  -4.258  26.825  0.00  0.00    +0.008 A 
ATOM     22  C   UNL     1       5.907  -5.506  27.216  0.00  0.00    +0.038 A 
ATOM     23  C   UNL     1       5.318  -6.344  26.283  0.00  0.00    +0.123 A 
ATOM     24  F   UNL     1       4.801  -7.517  26.669  0.00  0.00    -0.205 F 
ATOM     25  C   UNL     1       5.251  -5.972  24.949  0.00  0.00    +0.038 A 
ATOM     26  C   UNL     1       5.742  -4.721  24.561  0.00  0.00    +0.008 A 
ENDBRANCH  17  20
BRANCH  17  27
ATOM     27  C   UNL     1       5.556  -1.459  25.549  0.00  0.00    +0.074 C 
ATOM     28  N   UNL     1       4.637  -0.713  25.984  0.00  0.00    -0.196 NA
ENDBRANCH  17  27
ENDBRANCH   6  14
BRANCH   3  29
ATOM     29  C   UNL     1      10.181   3.116  23.399  0.00  0.00    +0.316 C 
ATOM     30  O   UNL     1      11.391   3.313  23.399  0.00  0.00    -0.250 OA
BRANCH  29  31
ATOM     31  O   UNL     1       9.325   4.161  23.282  0.00  0.00    -0.480 OA
ATOM     32  H   UNL     1       8.468   3.929  22.885  0.00  0.00    +0.295 HD
ENDBRANCH  29  31
ENDBRANCH   3  29
TORSDOF 6
ENDMDL
MODEL 5
REMARK VINA RESULT:      -7.6      2.781      4.398
REMARK  Name = 
REMARK  7 active torsions:
REMARK  status: ('A' for Active; 'I' for Inactive)
REMARK    1  A    between atoms: C_1  and  C_2
REMARK    2  A    between atoms: N_5  and  C_18
REMARK    3  A    between atoms: C_8  and  C_9
REMARK    4  A    between atoms: C_8  and  C_12
REMARK    5  A    between atoms: C_9  and  O_10
REMARK    6  A    between atoms: C_21  and  C_24
REMARK    7  A    between atoms: C_21  and  C_26
REMARK                            x       y       z     vdW  Elec       q    Type
REMARK                         _______ _______ _______ _____ _____    ______ ____
ROOT
ATOM      1  C   UNL     1       7.191  -5.948  21.710  0.00  0.00    +0.010 C 
ATOM      2  C   UNL     1       6.295  -4.783  22.166  0.00  0.00    +0.021 C 
ATOM      3  C   UNL     1       5.700  -4.858  23.619  0.00  0.00    +0.097 C 
ATOM      4  C   UNL     1       4.901  -3.525  23.757  0.00  0.00    +0.038 C 
ATOM      5  C   UNL     1       5.758  -2.263  23.549  0.00  0.00    +0.086 C 
ATOM      6  N   UNL     1       6.481  -2.193  22.275  0.00  0.00    -0.299 NA
ATOM      7  C   UNL     1       7.068  -3.495  21.895  0.00  0.00    +0.089 C 
ENDROOT
BRANCH   3   8
ATOM      8  C   UNL     1       6.739  -5.071  24.760  0.00  0.00    -0.030 A 
ATOM      9  C   UNL     1       8.121  -5.089  24.496  0.00  0.00    +0.005 A 
ATOM     10  C   UNL     1       9.068  -5.184  25.524  0.00  0.00    +0.000 A 
ATOM     11  C   UNL     1       8.662  -5.321  26.844  0.00  0.00    +0.000 A 
ATOM     12  C   UNL     1       7.309  -5.421  27.127  0.00  0.00    +0.000 A 
ATOM     13  C   UNL     1       6.368  -5.325  26.096  0.00  0.00    +0.005 A 
ENDBRANCH   3   8
BRANCH   6  14
ATOM     14  C   UNL     1       7.601  -1.199  22.319  0.00  0.00    +0.057 C 
ATOM     15  C   UNL     1       8.809  -1.506  23.234  0.00  0.00    +0.021 C 
ATOM     16  C   UNL     1       8.634  -1.164  24.719  0.00  0.00    +0.028 C 
ATOM     17  C   UNL     1       7.969   0.205  25.015  0.00  0.00    +0.082 C 
ATOM     18  C   UNL     1       6.694   0.318  24.149  0.00  0.00    +0.028 C 
ATOM     19  C   UNL     1       7.067   0.207  22.665  0.00  0.00    +0.021 C 
BRANCH  17  20
ATOM     20  C   UNL     1       8.838   1.482  24.725  0.00  0.00    -0.027 A 
ATOM     21  C   UNL     1      10.126   1.444  24.161  0.00  0.00    +0.008 A 
ATOM     22  C   UNL     1      10.775   2.623  23.763  0.00  0.00    +0.038 A 
ATOM     23  C   UNL     1      10.174   3.856  23.968  0.00  0.00    +0.123 A 
ATOM     24  F   UNL     1      10.782   4.973  23.553  0.00  0.00    -0.205 F 
ATOM     25  C   UNL     1       8.938   3.939  24.592  0.00  0.00    +0.038 A 
ATOM     26  C   UNL     1       8.282   2.764  24.972  0.00  0.00    +0.008 A 
ENDBRANCH  17  20
BRANCH  17  27
ATOM     27  C   UNL     1       7.651   0.248  26.500  0.00  0.00    +0.074 C 
ATOM     28  N   UNL     1       7.387   0.283  27.733  0.00  0.00    -0.196 NA
ENDBRANCH  17  27
ENDBRANCH   6  14
BRANCH   3  29
ATOM     29  C   UNL     1       4.620  -5.973  23.626  0.00  0.00    +0.316 C 
ATOM     30  O   UNL     1       4.804  -7.105  24.061  0.00  0.00    -0.250 OA
BRANCH  29  31
ATOM     31  O   UNL     1       3.433  -5.653  23.054  0.00  0.00    -0.480 OA
ATOM     32  H   UNL     1       3.379  -4.734  22.741  0.00  0.00    +0.295 HD
ENDBRANCH  29  31
ENDBRANCH   3  29
TORSDOF 6
ENDMDL
MODEL 6
REMARK VINA RESULT:      -7.5      2.421      3.870
REMARK  Name = 
REMARK  7 active torsions:
REMARK  status: ('A' for Active; 'I' for Inactive)
REMARK    1  A    between atoms: C_1  and  C_2
REMARK    2  A    between atoms: N_5  and  C_18
REMARK    3  A    between atoms: C_8  and  C_9
REMARK    4  A    between atoms: C_8  and  C_12
REMARK    5  A    between atoms: C_9  and  O_10
REMARK    6  A    between atoms: C_21  and  C_24
REMARK    7  A    between atoms: C_21  and  C_26
REMARK                            x       y       z     vdW  Elec       q    Type
REMARK                         _______ _______ _______ _____ _____    ______ ____
ROOT
ATOM      1  C   UNL     1       9.307  -4.377  25.465  0.00  0.00    +0.010 C 
ATOM      2  C   UNL     1       8.859  -3.816  24.102  0.00  0.00    +0.021 C 
ATOM      3  C   UNL     1       7.340  -3.446  23.941  0.00  0.00    +0.097 C 
ATOM      4  C   UNL     1       7.254  -2.879  22.489  0.00  0.00    +0.038 C 
ATOM      5  C   UNL     1       8.173  -1.670  22.240  0.00  0.00    +0.086 C 
ATOM      6  N   UNL     1       9.595  -1.886  22.527  0.00  0.00    -0.299 NA
ATOM      7  C   UNL     1       9.801  -2.664  23.766  0.00  0.00    +0.089 C 
ENDROOT
BRANCH   3   8
ATOM      8  C   UNL     1       6.768  -2.473  25.014  0.00  0.00    -0.030 A 
ATOM      9  C   UNL     1       5.493  -1.895  24.871  0.00  0.00    +0.005 A 
ATOM     10  C   UNL     1       4.927  -1.096  25.873  0.00  0.00    +0.000 A 
ATOM     11  C   UNL     1       5.643  -0.802  27.026  0.00  0.00    +0.000 A 
ATOM     12  C   UNL     1       6.944  -1.263  27.148  0.00  0.00    +0.000 A 
ATOM     13  C   UNL     1       7.503  -2.061  26.144  0.00  0.00    +0.005 A 
ENDBRANCH   3   8
BRANCH   6  14
ATOM     14  C   UNL     1      10.338  -0.595  22.686  0.00  0.00    +0.057 C 
ATOM     15  C   UNL     1      10.781  -0.183  24.109  0.00  0.00    +0.021 C 
ATOM     16  C   UNL     1       9.712   0.487  24.981  0.00  0.00    +0.028 C 
ATOM     17  C   UNL     1       8.847   1.561  24.270  0.00  0.00    +0.082 C 
ATOM     18  C   UNL     1       8.344   0.966  22.936  0.00  0.00    +0.028 C 
ATOM     19  C   UNL     1       9.542   0.572  22.062  0.00  0.00    +0.021 C 
BRANCH  17  20
ATOM     20  C   UNL     1       9.559   2.920  23.931  0.00  0.00    -0.027 A 
ATOM     21  C   UNL     1       8.929   4.175  24.004  0.00  0.00    +0.008 A 
ATOM     22  C   UNL     1       9.666   5.362  23.862  0.00  0.00    +0.038 A 
ATOM     23  C   UNL     1      11.025   5.314  23.595  0.00  0.00    +0.123 A 
ATOM     24  F   UNL     1      11.728   6.448  23.497  0.00  0.00    -0.205 F 
ATOM     25  C   UNL     1      11.666   4.094  23.439  0.00  0.00    +0.038 A 
ATOM     26  C   UNL     1      10.938   2.911  23.598  0.00  0.00    +0.008 A 
ENDBRANCH  17  20
BRANCH  17  27
ATOM     27  C   UNL     1       7.700   1.914  25.202  0.00  0.00    +0.074 C 
ATOM     28  N   UNL     1       6.747   2.207  25.974  0.00  0.00    -0.196 NA
ENDBRANCH  17  27
ENDBRANCH   6  14
BRANCH   3  29
ATOM     29  C   UNL     1       6.536  -4.774  23.899  0.00  0.00    +0.316 C 
ATOM     30  O   UNL     1       5.904  -5.224  24.848  0.00  0.00    -0.250 OA
BRANCH  29  31
ATOM     31  O   UNL     1       6.612  -5.477  22.741  0.00  0.00    -0.480 OA
ATOM     32  H   UNL     1       7.513  -5.564  22.389  0.00  0.00    +0.295 HD
ENDBRANCH  29  31
ENDBRANCH   3  29
TORSDOF 6
ENDMDL
MODEL 7
REMARK VINA RESULT:      -7.5      4.223      8.075
REMARK  Name = 
REMARK  7 active torsions:
REMARK  status: ('A' for Active; 'I' for Inactive)
REMARK    1  A    between atoms: C_1  and  C_2
REMARK    2  A    between atoms: N_5  and  C_18
REMARK    3  A    between atoms: C_8  and  C_9
REMARK    4  A    between atoms: C_8  and  C_12
REMARK    5  A    between atoms: C_9  and  O_10
REMARK    6  A    between atoms: C_21  and  C_24
REMARK    7  A    between atoms: C_21  and  C_26
REMARK                            x       y       z     vdW  Elec       q    Type
REMARK                         _______ _______ _______ _____ _____    ______ ____
ROOT
ATOM      1  C   UNL     1       8.952   0.811  21.369  0.00  0.00    +0.010 C 
ATOM      2  C   UNL     1       9.451  -0.185  22.433  0.00  0.00    +0.021 C 
ATOM      3  C   UNL     1       9.282   0.228  23.940  0.00  0.00    +0.097 C 
ATOM      4  C   UNL     1       9.838  -1.003  24.721  0.00  0.00    +0.038 C 
ATOM      5  C   UNL     1       9.112  -2.322  24.399  0.00  0.00    +0.086 C 
ATOM      6  N   UNL     1       9.083  -2.697  22.982  0.00  0.00    -0.299 NA
ATOM      7  C   UNL     1       8.827  -1.538  22.103  0.00  0.00    +0.089 C 
ENDROOT
BRANCH   3   8
ATOM      8  C   UNL     1       7.839   0.627  24.370  0.00  0.00    -0.030 A 
ATOM      9  C   UNL     1       7.390   0.437  25.689  0.00  0.00    +0.005 A 
ATOM     10  C   UNL     1       6.130   0.878  26.113  0.00  0.00    +0.000 A 
ATOM     11  C   UNL     1       5.255   1.473  25.213  0.00  0.00    +0.000 A 
ATOM     12  C   UNL     1       5.621   1.572  23.880  0.00  0.00    +0.000 A 
ATOM     13  C   UNL     1       6.882   1.129  23.465  0.00  0.00    +0.005 A 
ENDBRANCH   3   8
BRANCH   6  14
ATOM     14  C   UNL     1       8.022  -3.714  22.692  0.00  0.00    +0.057 C 
ATOM     15  C   UNL     1       6.693  -3.222  22.076  0.00  0.00    +0.021 C 
ATOM     16  C   UNL     1       5.668  -2.639  23.058  0.00  0.00    +0.028 C 
ATOM     17  C   UNL     1       5.479  -3.436  24.375  0.00  0.00    +0.082 C 
ATOM     18  C   UNL     1       6.877  -3.731  24.964  0.00  0.00    +0.028 C 
ATOM     19  C   UNL     1       7.701  -4.542  23.955  0.00  0.00    +0.021 C 
BRANCH  17  20
ATOM     20  C   UNL     1       4.729  -4.811  24.259  0.00  0.00    -0.027 A 
ATOM     21  C   UNL     1       4.963  -5.908  25.108  0.00  0.00    +0.008 A 
ATOM     22  C   UNL     1       4.136  -7.042  25.068  0.00  0.00    +0.038 A 
ATOM     23  C   UNL     1       3.101  -7.121  24.149  0.00  0.00    +0.123 A 
ATOM     24  F   UNL     1       2.295  -8.189  24.140  0.00  0.00    -0.205 F 
ATOM     25  C   UNL     1       2.888  -6.093  23.243  0.00  0.00    +0.038 A 
ATOM     26  C   UNL     1       3.698  -4.954  23.294  0.00  0.00    +0.008 A 
ENDBRANCH  17  20
BRANCH  17  27
ATOM     27  C   UNL     1       4.639  -2.582  25.310  0.00  0.00    +0.074 C 
ATOM     28  N   UNL     1       3.942  -1.873  26.086  0.00  0.00    -0.196 NA
ENDBRANCH  17  27
ENDBRANCH   6  14
BRANCH   3  29
ATOM     29  C   UNL     1      10.291   1.372  24.229  0.00  0.00    +0.316 C 
ATOM     30  O   UNL     1      10.023   2.565  24.131  0.00  0.00    -0.250 OA
BRANCH  29  31
ATOM     31  O   UNL     1      11.551   0.986  24.549  0.00  0.00    -0.480 OA
ATOM     32  H   UNL     1      11.806   1.188  25.465  0.00  0.00    +0.295 HD
ENDBRANCH  29  31
ENDBRANCH   3  29
TORSDOF 6
ENDMDL
MODEL 8
REMARK VINA RESULT:      -7.4      1.667      2.279
REMARK  Name = 
REMARK  7 active torsions:
REMARK  status: ('A' for Active; 'I' for Inactive)
REMARK    1  A    between atoms: C_1  and  C_2
REMARK    2  A    between atoms: N_5  and  C_18
REMARK    3  A    between atoms: C_8  and  C_9
REMARK    4  A    between atoms: C_8  and  C_12
REMARK    5  A    between atoms: C_9  and  O_10
REMARK    6  A    between atoms: C_21  and  C_24
REMARK    7  A    between atoms: C_21  and  C_26
REMARK                            x       y       z     vdW  Elec       q    Type
REMARK                         _______ _______ _______ _____ _____    ______ ____
ROOT
ATOM      1  C   UNL     1       6.178  -3.510  26.123  0.00  0.00    +0.010 C 
ATOM      2  C   UNL     1       7.565  -3.030  25.658  0.00  0.00    +0.021 C 
ATOM      3  C   UNL     1       8.360  -3.967  24.677  0.00  0.00    +0.097 C 
ATOM      4  C   UNL     1       9.667  -3.167  24.385  0.00  0.00    +0.038 C 
ATOM      5  C   UNL     1       9.419  -1.774  23.779  0.00  0.00    +0.086 C 
ATOM      6  N   UNL     1       8.547  -0.891  24.559  0.00  0.00    -0.299 NA
ATOM      7  C   UNL     1       7.388  -1.610  25.127  0.00  0.00    +0.089 C 
ENDROOT
BRANCH   3   8
ATOM      8  C   UNL     1       7.597  -4.390  23.387  0.00  0.00    -0.030 A 
ATOM      9  C   UNL     1       7.713  -5.689  22.862  0.00  0.00    +0.005 A 
ATOM     10  C   UNL     1       6.960  -6.111  21.758  0.00  0.00    +0.000 A 
ATOM     11  C   UNL     1       6.107  -5.227  21.110  0.00  0.00    +0.000 A 
ATOM     12  C   UNL     1       6.055  -3.908  21.532  0.00  0.00    +0.000 A 
ATOM     13  C   UNL     1       6.810  -3.494  22.635  0.00  0.00    +0.005 A 
ENDBRANCH   3   8
BRANCH   6  14
ATOM     14  C   UNL     1       8.006   0.237  23.734  0.00  0.00    +0.057 C 
ATOM     15  C   UNL     1       8.829   1.543  23.662  0.00  0.00    +0.021 C 
ATOM     16  C   UNL     1       8.662   2.512  24.840  0.00  0.00    +0.028 C 
ATOM     17  C   UNL     1       7.204   2.727  25.325  0.00  0.00    +0.082 C 
ATOM     18  C   UNL     1       6.547   1.339  25.502  0.00  0.00    +0.028 C 
ATOM     19  C   UNL     1       6.566   0.586  24.166  0.00  0.00    +0.021 C 
BRANCH  17  20
ATOM     20  C   UNL     1       6.269   3.564  24.381  0.00  0.00    -0.027 A 
ATOM     21  C   UNL     1       4.865   3.566  24.467  0.00  0.00    +0.008 A 
ATOM     22  C   UNL     1       4.097   4.469  23.715  0.00  0.00    +0.038 A 
ATOM     23  C   UNL     1       4.711   5.343  22.832  0.00  0.00    +0.123 A 
ATOM     24  F   UNL     1       3.976   6.226  22.145  0.00  0.00    -0.205 F 
ATOM     25  C   UNL     1       6.086   5.317  22.661  0.00  0.00    +0.038 A 
ATOM     26  C   UNL     1       6.855   4.431  23.423  0.00  0.00    +0.008 A 
ENDBRANCH  17  20
BRANCH  17  27
ATOM     27  C   UNL     1       7.267   3.495  26.635  0.00  0.00    +0.074 C 
ATOM     28  N   UNL     1       7.320   4.133  27.721  0.00  0.00    -0.196 NA
ENDBRANCH  17  27
ENDBRANCH   6  14
BRANCH   3  29
ATOM     29  C   UNL     1       8.824  -5.208  25.488  0.00  0.00    +0.316 C 
ATOM     30  O   UNL     1       8.118  -5.806  26.293  0.00  0.00    -0.250 OA
BRANCH  29  31
ATOM     31  O   UNL     1      10.114  -5.585  25.309  0.00  0.00    -0.480 OA
ATOM     32  H   UNL     1      10.313  -6.480  25.631  0.00  0.00    +0.295 HD
ENDBRANCH  29  31
ENDBRANCH   3  29
TORSDOF 6
ENDMDL
MODEL 9
REMARK VINA RESULT:      -7.4      4.121      8.616
REMARK  Name = 
REMARK  7 active torsions:
REMARK  status: ('A' for Active; 'I' for Inactive)
REMARK    1  A    between atoms: C_1  and  C_2
REMARK    2  A    between atoms: N_5  and  C_18
REMARK    3  A    between atoms: C_8  and  C_9
REMARK    4  A    between atoms: C_8  and  C_12
REMARK    5  A    between atoms: C_9  and  O_10
REMARK    6  A    between atoms: C_21  and  C_24
REMARK    7  A    between atoms: C_21  and  C_26
REMARK                            x       y       z     vdW  Elec       q    Type
REMARK                         _______ _______ _______ _____ _____    ______ ____
ROOT
ATOM      1  C   UNL     1       7.236   3.751  22.191  0.00  0.00    +0.010 C 
ATOM      2  C   UNL     1       8.223   2.661  22.648  0.00  0.00    +0.021 C 
ATOM      3  C   UNL     1       9.047   2.939  23.957  0.00  0.00    +0.097 C 
ATOM      4  C   UNL     1       9.888   1.639  24.144  0.00  0.00    +0.038 C 
ATOM      5  C   UNL     1       9.038   0.360  24.258  0.00  0.00    +0.086 C 
ATOM      6  N   UNL     1       8.116   0.113  23.144  0.00  0.00    -0.299 NA
ATOM      7  C   UNL     1       7.445   1.348  22.691  0.00  0.00    +0.089 C 
ENDROOT
BRANCH   3   8
ATOM      8  C   UNL     1       8.206   3.311  25.215  0.00  0.00    -0.030 A 
ATOM      9  C   UNL     1       7.568   2.323  25.986  0.00  0.00    +0.005 A 
ATOM     10  C   UNL     1       6.889   2.633  27.171  0.00  0.00    +0.000 A 
ATOM     11  C   UNL     1       6.779   3.952  27.593  0.00  0.00    +0.000 A 
ATOM     12  C   UNL     1       7.299   4.961  26.798  0.00  0.00    +0.000 A 
ATOM     13  C   UNL     1       7.975   4.643  25.615  0.00  0.00    +0.005 A 
ENDBRANCH   3   8
BRANCH   6  14
ATOM     14  C   UNL     1       7.042  -0.865  23.512  0.00  0.00    +0.057 C 
ATOM     15  C   UNL     1       6.952  -1.325  24.985  0.00  0.00    +0.021 C 
ATOM     16  C   UNL     1       7.917  -2.441  25.404  0.00  0.00    +0.028 C 
ATOM     17  C   UNL     1       8.055  -3.615  24.399  0.00  0.00    +0.082 C 
ATOM     18  C   UNL     1       8.293  -3.019  22.993  0.00  0.00    +0.028 C 
ATOM     19  C   UNL     1       7.113  -2.116  22.610  0.00  0.00    +0.021 C 
BRANCH  17  20
ATOM     20  C   UNL     1       6.827  -4.588  24.287  0.00  0.00    -0.027 A 
ATOM     21  C   UNL     1       6.466  -5.263  23.107  0.00  0.00    +0.008 A 
ATOM     22  C   UNL     1       5.470  -6.253  23.117  0.00  0.00    +0.038 A 
ATOM     23  C   UNL     1       4.787  -6.545  24.288  0.00  0.00    +0.123 A 
ATOM     24  F   UNL     1       3.864  -7.514  24.299  0.00  0.00    -0.205 F 
ATOM     25  C   UNL     1       5.061  -5.846  25.453  0.00  0.00    +0.038 A 
ATOM     26  C   UNL     1       6.065  -4.873  25.449  0.00  0.00    +0.008 A 
ENDBRANCH  17  20
BRANCH  17  27
ATOM     27  C   UNL     1       9.224  -4.473  24.856  0.00  0.00    +0.074 C 
ATOM     28  N   UNL     1      10.193  -5.184  25.235  0.00  0.00    -0.196 NA
ENDBRANCH  17  27
ENDBRANCH   6  14
BRANCH   3  29
ATOM     29  C   UNL     1      10.088   4.044  23.629  0.00  0.00    +0.316 C 
ATOM     30  O   UNL     1       9.881   5.245  23.767  0.00  0.00    -0.250 OA
BRANCH  29  31
ATOM     31  O   UNL     1      11.263   3.616  23.107  0.00  0.00    -0.480 OA
ATOM     32  H   UNL     1      11.165   3.043  22.328  0.00  0.00    +0.295 HD
ENDBRANCH  29  31
ENDBRANCH   3  29
TORSDOF 6
ENDMDL
