MODEL 1
REMARK VINA RESULT:      -6.0      0.000      0.000
REMARK  Name = 
REMARK  10 active torsions:
REMARK  status: ('A' for Active; 'I' for Inactive)
REMARK    1  A    between atoms: CA_2  and  CB_3
REMARK    2  A    between atoms: CA_2  and  N_5
REMARK    3  A    between atoms: CA_2  and  C_16
REMARK    4  A    between atoms: CB_3  and  SG_4
REMARK    5  A    between atoms: C_6  and  O_8
REMARK    6  A    between atoms: O_8  and  C_9
REMARK    7  A    between atoms: C_9  and  C_10
REMARK    8  A    between atoms: N_18  and  CA_19
REMARK    9  A    between atoms: CA_19  and  C_20
REMARK   10  A    between atoms: C_20  and  O_21
REMARK                            x       y       z     vdW  Elec       q    Type
REMARK                         _______ _______ _______ _____ _____    ______ ____
ROOT
ATOM      1  CA  GLY A   1       9.146   2.702  23.765  0.00  0.00    +0.171 C 
ENDROOT
BRANCH   1   2
ATOM      2  C   GLY A   1       9.839   4.069  23.882  0.00  0.00    +0.235 C 
ATOM      3  N   GLY A   1      11.078   4.136  23.273  0.00  0.00    -0.303 N 
ATOM      4  H   GLY A   1      11.509   3.245  23.045  0.00  0.00    +0.149 HD
ATOM      5  O   GLY A   1       9.296   5.069  24.344  0.00  0.00    -0.274 OA
BRANCH   3   6
ATOM      6  CA  GLY A   1      11.965   5.274  23.530  0.00  0.00    +0.224 C 
BRANCH   6   7
ATOM      7  C   GLY A   1      13.214   5.309  22.652  0.00  0.00    +0.322 C 
ATOM      8  OXT GLY A   1      13.207   5.638  21.475  0.00  0.00    -0.249 OA
BRANCH   7   9
ATOM      9  O   GLY A   1      14.353   4.985  23.309  0.00  0.00    -0.480 OA
ATOM     10  H   GLY A   1      14.995   4.599  22.679  0.00  0.00    +0.295 HD
ENDBRANCH   7   9
ENDBRANCH   6   7
ENDBRANCH   3   6
ENDBRANCH   1   2
BRANCH   1  11
ATOM     11  N   GLY A   1       9.688   1.782  24.772  0.00  0.00    -0.269 N 
ATOM     12  H   GLY A   1       9.887   2.176  25.681  0.00  0.00    +0.153 HD
ATOM     13  C   UNK A   0       9.340   0.466  24.862  0.00  0.00    +0.401 C 
ATOM     14  O   UNK A   0       9.245  -0.098  25.942  0.00  0.00    -0.226 OA
BRANCH  13  15
ATOM     15  O   UNK A   0       9.209  -0.111  23.652  0.00  0.00    -0.446 OA
BRANCH  15  16
ATOM     16  C   UNK A   0      10.098  -1.209  23.401  0.00  0.00    +0.269 C 
BRANCH  16  17
ATOM     17  C   UNK A   0       9.244  -2.447  23.407  0.00  0.00    -0.010 A 
ATOM     18  C   UNK A   0       9.437  -3.415  24.404  0.00  0.00    +0.007 A 
ATOM     19  C   UNK A   0       8.610  -4.535  24.467  0.00  0.00    +0.000 A 
ATOM     20  C   UNK A   0       7.584  -4.694  23.542  0.00  0.00    +0.000 A 
ATOM     21  C   UNK A   0       7.380  -3.735  22.550  0.00  0.00    +0.000 A 
ATOM     22  C   UNK A   0       8.205  -2.615  22.482  0.00  0.00    +0.007 A 
ENDBRANCH  16  17
ENDBRANCH  15  16
ENDBRANCH  13  15
ENDBRANCH   1  11
BRANCH   1  23
ATOM     23  CB  GLY A   1       7.626   2.876  23.931  0.00  0.00    +0.097 C 
BRANCH  23  24
ATOM     24  SG  GLY A   1       6.709   2.464  22.408  0.00  0.00    -0.176 S 
ATOM     25  HG  GLY A   1       5.475   2.562  22.927  0.00  0.00    +0.102 HD
ENDBRANCH  23  24
ENDBRANCH   1  23
TORSDOF 10
ENDMDL
MODEL 2
REMARK VINA RESULT:      -6.0      4.781      8.874
REMARK  Name = 
REMARK  10 active torsions:
REMARK  status: ('A' for Active; 'I' for Inactive)
REMARK    1  A    between atoms: CA_2  and  CB_3
REMARK    2  A    between atoms: CA_2  and  N_5
REMARK    3  A    between atoms: CA_2  and  C_16
REMARK    4  A    between atoms: CB_3  and  SG_4
REMARK    5  A    between atoms: C_6  and  O_8
REMARK    6  A    between atoms: O_8  and  C_9
REMARK    7  A    between atoms: C_9  and  C_10
REMARK    8  A    between atoms: N_18  and  CA_19
REMARK    9  A    between atoms: CA_19  and  C_20
REMARK   10  A    between atoms: C_20  and  O_21
REMARK                            x       y       z     vdW  Elec       q    Type
REMARK                         _______ _______ _______ _____ _____    ______ ____
ROOT
ATOM      1  CA  GLY A   1       6.786  -3.614  23.530  0.00  0.00    +0.171 C 
ENDROOT
BRANCH   1   2
ATOM      2  C   GLY A   1       5.410  -4.115  23.997  0.00  0.00    +0.235 C 
ATOM      3  N   GLY A   1       5.370  -4.533  25.314  0.00  0.00    -0.303 N 
ATOM      4  H   GLY A   1       6.270  -4.708  25.751  0.00  0.00    +0.149 HD
ATOM      5  O   GLY A   1       4.389  -4.025  23.321  0.00  0.00    -0.274 OA
BRANCH   3   6
ATOM      6  CA  GLY A   1       4.213  -5.280  25.816  0.00  0.00    +0.224 C 
BRANCH   6   7
ATOM      7  C   GLY A   1       4.382  -6.798  25.780  0.00  0.00    +0.322 C 
ATOM      8  OXT GLY A   1       4.398  -7.454  24.748  0.00  0.00    -0.249 OA
BRANCH   7   9
ATOM      9  O   GLY A   1       4.561  -7.357  27.000  0.00  0.00    -0.480 OA
ATOM     10  H   GLY A   1       4.359  -8.313  26.953  0.00  0.00    +0.295 HD
ENDBRANCH   7   9
ENDBRANCH   6   7
ENDBRANCH   3   6
ENDBRANCH   1   2
BRANCH   1  11
ATOM     11  N   GLY A   1       7.828  -4.098  24.444  0.00  0.00    -0.269 N 
ATOM     12  H   GLY A   1       7.761  -5.064  24.731  0.00  0.00    +0.153 HD
ATOM     13  C   UNK A   0       9.124  -3.673  24.408  0.00  0.00    +0.401 C 
ATOM     14  O   UNK A   0      10.052  -4.430  24.652  0.00  0.00    -0.226 OA
BRANCH  13  15
ATOM     15  O   UNK A   0       9.222  -2.351  24.166  0.00  0.00    -0.446 OA
BRANCH  15  16
ATOM     16  C   UNK A   0      10.196  -1.984  23.178  0.00  0.00    +0.269 C 
BRANCH  16  17
ATOM     17  C   UNK A   0      10.161  -0.483  23.094  0.00  0.00    -0.010 A 
ATOM     18  C   UNK A   0      10.563   0.280  24.199  0.00  0.00    +0.007 A 
ATOM     19  C   UNK A   0      10.604   1.671  24.117  0.00  0.00    +0.000 A 
ATOM     20  C   UNK A   0      10.249   2.307  22.932  0.00  0.00    +0.000 A 
ATOM     21  C   UNK A   0       9.853   1.557  21.825  0.00  0.00    +0.000 A 
ATOM     22  C   UNK A   0       9.810   0.167  21.903  0.00  0.00    +0.007 A 
ENDBRANCH  16  17
ENDBRANCH  15  16
ENDBRANCH  13  15
ENDBRANCH   1  11
BRANCH   1  23
ATOM     23  CB  GLY A   1       7.047  -4.084  22.089  0.00  0.00    +0.097 C 
BRANCH  23  24
ATOM     24  SG  GLY A   1       7.078  -5.903  21.947  0.00  0.00    -0.176 S 
ATOM     25  HG  GLY A   1       8.402  -6.059  22.106  0.00  0.00    +0.102 HD
ENDBRANCH  23  24
ENDBRANCH   1  23
TORSDOF 10
ENDMDL
MODEL 3
REMARK VINA RESULT:      -5.9      3.884      8.291
REMARK  Name = 
REMARK  10 active torsions:
REMARK  status: ('A' for Active; 'I' for Inactive)
REMARK    1  A    between atoms: CA_2  and  CB_3
REMARK    2  A    between atoms: CA_2  and  N_5
REMARK    3  A    between atoms: CA_2  and  C_16
REMARK    4  A    between atoms: CB_3  and  SG_4
REMARK    5  A    between atoms: C_6  and  O_8
REMARK    6  A    between atoms: O_8  and  C_9
REMARK    7  A    between atoms: C_9  and  C_10
REMARK    8  A    between atoms: N_18  and  CA_19
REMARK    9  A    between atoms: CA_19  and  C_20
REMARK   10  A    between atoms: C_20  and  O_21
REMARK                            x       y       z     vdW  Elec       q    Type
REMARK                         _______ _______ _______ _____ _____    ______ ____
ROOT
ATOM      1  CA  GLY A   1       7.902  -2.770  24.011  0.00  0.00    +0.171 C 
ENDROOT
BRANCH   1   2
ATOM      2  C   GLY A   1       7.749  -3.400  25.406  0.00  0.00    +0.235 C 
ATOM      3  N   GLY A   1       6.501  -3.936  25.658  0.00  0.00    -0.303 N 
ATOM      4  H   GLY A   1       5.758  -3.644  25.031  0.00  0.00    +0.149 HD
ATOM      5  O   GLY A   1       8.685  -3.555  26.187  0.00  0.00    -0.274 OA
BRANCH   3   6
ATOM      6  CA  GLY A   1       6.126  -4.322  27.022  0.00  0.00    +0.224 C 
BRANCH   6   7
ATOM      7  C   GLY A   1       6.419  -5.781  27.366  0.00  0.00    +0.322 C 
ATOM      8  OXT GLY A   1       5.605  -6.684  27.239  0.00  0.00    -0.249 OA
BRANCH   7   9
ATOM      9  O   GLY A   1       7.688  -6.000  27.784  0.00  0.00    -0.480 OA
ATOM     10  H   GLY A   1       8.297  -5.402  27.305  0.00  0.00    +0.295 HD
ENDBRANCH   7   9
ENDBRANCH   6   7
ENDBRANCH   3   6
ENDBRANCH   1   2
BRANCH   1  11
ATOM     11  N   GLY A   1       9.287  -2.327  23.815  0.00  0.00    -0.269 N 
ATOM     12  H   GLY A   1      10.009  -2.926  24.188  0.00  0.00    +0.153 HD
ATOM     13  C   UNK A   0       9.717  -1.652  22.710  0.00  0.00    +0.401 C 
ATOM     14  O   UNK A   0      10.831  -1.833  22.243  0.00  0.00    -0.226 OA
BRANCH  13  15
ATOM     15  O   UNK A   0       8.817  -0.744  22.284  0.00  0.00    -0.446 OA
BRANCH  15  16
ATOM     16  C   UNK A   0       9.326   0.233  21.365  0.00  0.00    +0.269 C 
BRANCH  16  17
ATOM     17  C   UNK A   0       9.173   1.566  22.044  0.00  0.00    -0.010 A 
ATOM     18  C   UNK A   0       7.976   2.282  21.898  0.00  0.00    +0.007 A 
ATOM     19  C   UNK A   0       7.788   3.486  22.575  0.00  0.00    +0.000 A 
ATOM     20  C   UNK A   0       8.790   3.978  23.406  0.00  0.00    +0.000 A 
ATOM     21  C   UNK A   0       9.981   3.271  23.562  0.00  0.00    +0.000 A 
ATOM     22  C   UNK A   0      10.174   2.069  22.886  0.00  0.00    +0.007 A 
ENDBRANCH  16  17
ENDBRANCH  15  16
ENDBRANCH  13  15
ENDBRANCH   1  11
BRANCH   1  23
ATOM     23  CB  GLY A   1       7.485  -3.788  22.935  0.00  0.00    +0.097 C 
BRANCH  23  24
ATOM     24  SG  GLY A   1       5.968  -3.286  22.054  0.00  0.00    -0.176 S 
ATOM     25  HG  GLY A   1       6.138  -4.066  20.974  0.00  0.00    +0.102 HD
ENDBRANCH  23  24
ENDBRANCH   1  23
TORSDOF 10
ENDMDL
MODEL 4
REMARK VINA RESULT:      -5.9      3.984      6.336
REMARK  Name = 
REMARK  10 active torsions:
REMARK  status: ('A' for Active; 'I' for Inactive)
REMARK    1  A    between atoms: CA_2  and  CB_3
REMARK    2  A    between atoms: CA_2  and  N_5
REMARK    3  A    between atoms: CA_2  and  C_16
REMARK    4  A    between atoms: CB_3  and  SG_4
REMARK    5  A    between atoms: C_6  and  O_8
REMARK    6  A    between atoms: O_8  and  C_9
REMARK    7  A    between atoms: C_9  and  C_10
REMARK    8  A    between atoms: N_18  and  CA_19
REMARK    9  A    between atoms: CA_19  and  C_20
REMARK   10  A    between atoms: C_20  and  O_21
REMARK                            x       y       z     vdW  Elec       q    Type
REMARK                         _______ _______ _______ _____ _____    ______ ____
ROOT
ATOM      1  CA  GLY A   1       6.520  -2.833  23.194  0.00  0.00    +0.171 C 
ENDROOT
BRANCH   1   2
ATOM      2  C   GLY A   1       6.030  -1.569  23.918  0.00  0.00    +0.235 C 
ATOM      3  N   GLY A   1       6.597  -0.393  23.464  0.00  0.00    -0.303 N 
ATOM      4  H   GLY A   1       7.437  -0.494  22.903  0.00  0.00    +0.149 HD
ATOM      5  O   GLY A   1       5.109  -1.565  24.732  0.00  0.00    -0.274 OA
BRANCH   3   6
ATOM      6  CA  GLY A   1       6.435   0.847  24.229  0.00  0.00    +0.224 C 
BRANCH   6   7
ATOM      7  C   GLY A   1       5.776   1.984  23.451  0.00  0.00    +0.322 C 
ATOM      8  OXT GLY A   1       6.332   2.607  22.558  0.00  0.00    -0.249 OA
BRANCH   7   9
ATOM      9  O   GLY A   1       4.490   2.216  23.807  0.00  0.00    -0.480 OA
ATOM     10  H   GLY A   1       4.233   1.598  24.520  0.00  0.00    +0.295 HD
ENDBRANCH   7   9
ENDBRANCH   6   7
ENDBRANCH   3   6
ENDBRANCH   1   2
BRANCH   1  11
ATOM     11  N   GLY A   1       7.316  -3.656  24.113  0.00  0.00    -0.269 N 
ATOM     12  H   GLY A   1       7.002  -4.605  24.254  0.00  0.00    +0.153 HD
ATOM     13  C   UNK A   0       8.670  -3.551  24.244  0.00  0.00    +0.401 C 
ATOM     14  O   UNK A   0       9.370  -4.529  24.454  0.00  0.00    -0.226 OA
BRANCH  13  15
ATOM     15  O   UNK A   0       9.089  -2.270  24.199  0.00  0.00    -0.446 OA
BRANCH  15  16
ATOM     16  C   UNK A   0      10.066  -1.985  23.188  0.00  0.00    +0.269 C 
BRANCH  16  17
ATOM     17  C   UNK A   0      10.153  -0.486  23.101  0.00  0.00    -0.010 A 
ATOM     18  C   UNK A   0       9.797   0.159  21.908  0.00  0.00    +0.007 A 
ATOM     19  C   UNK A   0       9.805   1.551  21.831  0.00  0.00    +0.000 A 
ATOM     20  C   UNK A   0      10.160   2.306  22.944  0.00  0.00    +0.000 A 
ATOM     21  C   UNK A   0      10.510   1.674  24.137  0.00  0.00    +0.000 A 
ATOM     22  C   UNK A   0      10.506   0.284  24.218  0.00  0.00    +0.007 A 
ENDBRANCH  16  17
ENDBRANCH  15  16
ENDBRANCH  13  15
ENDBRANCH   1  11
BRANCH   1  23
ATOM     23  CB  GLY A   1       5.314  -3.617  22.648  0.00  0.00    +0.097 C 
BRANCH  23  24
ATOM     24  SG  GLY A   1       5.636  -5.411  22.554  0.00  0.00    -0.176 S 
ATOM     25  HG  GLY A   1       5.182  -5.595  21.303  0.00  0.00    +0.102 HD
ENDBRANCH  23  24
ENDBRANCH   1  23
TORSDOF 10
ENDMDL
MODEL 5
REMARK VINA RESULT:      -5.9      4.090      6.567
REMARK  Name = 
REMARK  10 active torsions:
REMARK  status: ('A' for Active; 'I' for Inactive)
REMARK    1  A    between atoms: CA_2  and  CB_3
REMARK    2  A    between atoms: CA_2  and  N_5
REMARK    3  A    between atoms: CA_2  and  C_16
REMARK    4  A    between atoms: CB_3  and  SG_4
REMARK    5  A    between atoms: C_6  and  O_8
REMARK    6  A    between atoms: O_8  and  C_9
REMARK    7  A    between atoms: C_9  and  C_10
REMARK    8  A    between atoms: N_18  and  CA_19
REMARK    9  A    between atoms: CA_19  and  C_20
REMARK   10  A    between atoms: C_20  and  O_21
REMARK                            x       y       z     vdW  Elec       q    Type
REMARK                         _______ _______ _______ _____ _____    ______ ____
ROOT
ATOM      1  CA  GLY A   1       8.484  -3.273  25.978  0.00  0.00    +0.171 C 
ENDROOT
BRANCH   1   2
ATOM      2  C   GLY A   1       8.987  -3.120  24.533  0.00  0.00    +0.235 C 
ATOM      3  N   GLY A   1       8.201  -2.310  23.736  0.00  0.00    -0.303 N 
ATOM      4  H   GLY A   1       7.268  -2.114  24.088  0.00  0.00    +0.149 HD
ATOM      5  O   GLY A   1      10.068  -3.552  24.140  0.00  0.00    -0.274 OA
BRANCH   3   6
ATOM      6  CA  GLY A   1       8.399  -2.288  22.284  0.00  0.00    +0.224 C 
BRANCH   6   7
ATOM      7  C   GLY A   1       9.391  -1.232  21.801  0.00  0.00    +0.322 C 
ATOM      8  OXT GLY A   1       9.067  -0.104  21.459  0.00  0.00    -0.249 OA
BRANCH   7   9
ATOM      9  O   GLY A   1      10.681  -1.642  21.828  0.00  0.00    -0.480 OA
ATOM     10  H   GLY A   1      11.271  -0.863  21.800  0.00  0.00    +0.295 HD
ENDBRANCH   7   9
ENDBRANCH   6   7
ENDBRANCH   3   6
ENDBRANCH   1   2
BRANCH   1  11
ATOM     11  N   GLY A   1       7.145  -2.687  26.103  0.00  0.00    -0.269 N 
ATOM     12  H   GLY A   1       6.374  -3.336  26.173  0.00  0.00    +0.153 HD
ATOM     13  C   UNK A   0       6.885  -1.526  26.770  0.00  0.00    +0.401 C 
ATOM     14  O   UNK A   0       5.852  -1.369  27.403  0.00  0.00    -0.226 OA
BRANCH  13  15
ATOM     15  O   UNK A   0       7.841  -0.597  26.569  0.00  0.00    -0.446 OA
BRANCH  15  16
ATOM     16  C   UNK A   0       7.407   0.581  25.873  0.00  0.00    +0.269 C 
BRANCH  16  17
ATOM     17  C   UNK A   0       8.595   1.062  25.085  0.00  0.00    -0.010 A 
ATOM     18  C   UNK A   0       8.501   2.255  24.353  0.00  0.00    +0.007 A 
ATOM     19  C   UNK A   0       9.612   2.753  23.674  0.00  0.00    +0.000 A 
ATOM     20  C   UNK A   0      10.821   2.068  23.726  0.00  0.00    +0.000 A 
ATOM     21  C   UNK A   0      10.927   0.884  24.455  0.00  0.00    +0.000 A 
ATOM     22  C   UNK A   0       9.819   0.382  25.134  0.00  0.00    +0.007 A 
ENDBRANCH  16  17
ENDBRANCH  15  16
ENDBRANCH  13  15
ENDBRANCH   1  11
BRANCH   1  23
ATOM     23  CB  GLY A   1       8.479  -4.761  26.369  0.00  0.00    +0.097 C 
BRANCH  23  24
ATOM     24  SG  GLY A   1       6.915  -5.266  27.161  0.00  0.00    -0.176 S 
ATOM     25  HG  GLY A   1       6.359  -5.838  26.081  0.00  0.00    +0.102 HD
ENDBRANCH  23  24
ENDBRANCH   1  23
TORSDOF 10
ENDMDL
MODEL 6
REMARK VINA RESULT:      -5.8      4.795      8.947
REMARK  Name = 
REMARK  10 active torsions:
REMARK  status: ('A' for Active; 'I' for Inactive)
REMARK    1  A    between atoms: CA_2  and  CB_3
REMARK    2  A    between atoms: CA_2  and  N_5
REMARK    3  A    between atoms: CA_2  and  C_16
REMARK    4  A    between atoms: CB_3  and  SG_4
REMARK    5  A    between atoms: C_6  and  O_8
REMARK    6  A    between atoms: O_8  and  C_9
REMARK    7  A    between atoms: C_9  and  C_10
REMARK    8  A    between atoms: N_18  and  CA_19
REMARK    9  A    between atoms: CA_19  and  C_20
REMARK   10  A    between atoms: C_20  and  O_21
REMARK                            x       y       z     vdW  Elec       q    Type
REMARK                         _______ _______ _______ _____ _____    ______ ____
ROOT
ATOM      1  CA  GLY A   1       6.670  -4.334  24.848  0.00  0.00    +0.171 C 
ENDROOT
BRANCH   1   2
ATOM      2  C   GLY A   1       5.759  -5.187  25.746  0.00  0.00    +0.235 C 
ATOM      3  N   GLY A   1       5.344  -4.556  26.904  0.00  0.00    -0.303 N 
ATOM      4  H   GLY A   1       5.868  -3.727  27.168  0.00  0.00    +0.149 HD
ATOM      5  O   GLY A   1       5.308  -6.280  25.414  0.00  0.00    -0.274 OA
BRANCH   3   6
ATOM      6  CA  GLY A   1       4.704  -5.326  27.974  0.00  0.00    +0.224 C 
BRANCH   6   7
ATOM      7  C   GLY A   1       5.644  -6.275  28.715  0.00  0.00    +0.322 C 
ATOM      8  OXT GLY A   1       6.436  -5.912  29.572  0.00  0.00    -0.249 OA
BRANCH   7   9
ATOM      9  O   GLY A   1       5.489  -7.575  28.372  0.00  0.00    -0.480 OA
ATOM     10  H   GLY A   1       5.339  -8.110  29.177  0.00  0.00    +0.295 HD
ENDBRANCH   7   9
ENDBRANCH   6   7
ENDBRANCH   3   6
ENDBRANCH   1   2
BRANCH   1  11
ATOM     11  N   GLY A   1       8.066  -4.473  25.282  0.00  0.00    -0.269 N 
ATOM     12  H   GLY A   1       8.334  -5.372  25.654  0.00  0.00    +0.153 HD
ATOM     13  C   UNK A   0       9.114  -3.849  24.672  0.00  0.00    +0.401 C 
ATOM     14  O   UNK A   0      10.207  -4.385  24.571  0.00  0.00    -0.226 OA
BRANCH  13  15
ATOM     15  O   UNK A   0       8.811  -2.590  24.297  0.00  0.00    -0.446 OA
BRANCH  15  16
ATOM     16  C   UNK A   0       9.307  -2.204  23.007  0.00  0.00    +0.269 C 
BRANCH  16  17
ATOM     17  C   UNK A   0       9.645  -0.742  23.109  0.00  0.00    -0.010 A 
ATOM     18  C   UNK A   0      10.101  -0.223  24.330  0.00  0.00    +0.007 A 
ATOM     19  C   UNK A   0      10.485   1.114  24.426  0.00  0.00    +0.000 A 
ATOM     20  C   UNK A   0      10.423   1.936  23.307  0.00  0.00    +0.000 A 
ATOM     21  C   UNK A   0       9.977   1.429  22.088  0.00  0.00    +0.000 A 
ATOM     22  C   UNK A   0       9.590   0.094  21.987  0.00  0.00    +0.007 A 
ENDBRANCH  16  17
ENDBRANCH  15  16
ENDBRANCH  13  15
ENDBRANCH   1  11
BRANCH   1  23
ATOM     23  CB  GLY A   1       6.499  -4.763  23.381  0.00  0.00    +0.097 C 
BRANCH  23  24
ATOM     24  SG  GLY A   1       5.698  -3.473  22.368  0.00  0.00    -0.176 S 
ATOM     25  HG  GLY A   1       4.573  -3.369  23.093  0.00  0.00    +0.102 HD
ENDBRANCH  23  24
ENDBRANCH   1  23
TORSDOF 10
ENDMDL
MODEL 7
REMARK VINA RESULT:      -5.8      2.987      7.904
REMARK  Name = 
REMARK  10 active torsions:
REMARK  status: ('A' for Active; 'I' for Inactive)
REMARK    1  A    between atoms: CA_2  and  CB_3
REMARK    2  A    between atoms: CA_2  and  N_5
REMARK    3  A    between atoms: CA_2  and  C_16
REMARK    4  A    between atoms: CB_3  and  SG_4
REMARK    5  A    between atoms: C_6  and  O_8
REMARK    6  A    between atoms: O_8  and  C_9
REMARK    7  A    between atoms: C_9  and  C_10
REMARK    8  A    between atoms: N_18  and  CA_19
REMARK    9  A    between atoms: CA_19  and  C_20
REMARK   10  A    between atoms: C_20  and  O_21
REMARK                            x       y       z     vdW  Elec       q    Type
REMARK                         _______ _______ _______ _____ _____    ______ ____
ROOT
ATOM      1  CA  GLY A   1       8.419  -1.343  23.698  0.00  0.00    +0.171 C 
ENDROOT
BRANCH   1   2
ATOM      2  C   GLY A   1       8.989  -2.761  23.863  0.00  0.00    +0.235 C 
ATOM      3  N   GLY A   1       8.033  -3.759  23.923  0.00  0.00    -0.303 N 
ATOM      4  H   GLY A   1       7.083  -3.451  24.108  0.00  0.00    +0.149 HD
ATOM      5  O   GLY A   1      10.187  -3.023  23.802  0.00  0.00    -0.274 OA
BRANCH   3   6
ATOM      6  CA  GLY A   1       8.405  -5.111  24.346  0.00  0.00    +0.224 C 
BRANCH   6   7
ATOM      7  C   GLY A   1       8.988  -5.192  25.755  0.00  0.00    +0.322 C 
ATOM      8  OXT GLY A   1       8.318  -5.090  26.773  0.00  0.00    -0.249 OA
BRANCH   7   9
ATOM      9  O   GLY A   1      10.319  -5.436  25.784  0.00  0.00    -0.480 OA
ATOM     10  H   GLY A   1      10.714  -5.003  26.566  0.00  0.00    +0.295 HD
ENDBRANCH   7   9
ENDBRANCH   6   7
ENDBRANCH   3   6
ENDBRANCH   1   2
BRANCH   1  11
ATOM     11  N   GLY A   1       8.972  -0.723  22.488  0.00  0.00    -0.269 N 
ATOM     12  H   GLY A   1       8.892  -1.254  21.633  0.00  0.00    +0.153 HD
ATOM     13  C   UNK A   0       8.953   0.620  22.248  0.00  0.00    +0.401 C 
ATOM     14  O   UNK A   0       8.800   1.067  21.122  0.00  0.00    -0.226 OA
BRANCH  13  15
ATOM     15  O   UNK A   0       9.201   1.341  23.360  0.00  0.00    -0.446 OA
BRANCH  15  16
ATOM     16  C   UNK A   0      10.551   1.808  23.494  0.00  0.00    +0.269 C 
BRANCH  16  17
ATOM     17  C   UNK A   0      10.465   3.303  23.632  0.00  0.00    -0.010 A 
ATOM     18  C   UNK A   0      11.612   4.083  23.428  0.00  0.00    +0.007 A 
ATOM     19  C   UNK A   0      11.537   5.474  23.483  0.00  0.00    +0.000 A 
ATOM     20  C   UNK A   0      10.317   6.093  23.735  0.00  0.00    +0.000 A 
ATOM     21  C   UNK A   0       9.169   5.327  23.933  0.00  0.00    +0.000 A 
ATOM     22  C   UNK A   0       9.240   3.937  23.880  0.00  0.00    +0.007 A 
ENDBRANCH  16  17
ENDBRANCH  15  16
ENDBRANCH  13  15
ENDBRANCH   1  11
BRANCH   1  23
ATOM     23  CB  GLY A   1       6.883  -1.406  23.638  0.00  0.00    +0.097 C 
BRANCH  23  24
ATOM     24  SG  GLY A   1       6.094  -0.354  24.904  0.00  0.00    -0.176 S 
ATOM     25  HG  GLY A   1       6.696  -0.902  25.972  0.00  0.00    +0.102 HD
ENDBRANCH  23  24
ENDBRANCH   1  23
TORSDOF 10
ENDMDL
MODEL 8
REMARK VINA RESULT:      -5.7      4.586      8.932
REMARK  Name = 
REMARK  10 active torsions:
REMARK  status: ('A' for Active; 'I' for Inactive)
REMARK    1  A    between atoms: CA_2  and  CB_3
REMARK    2  A    between atoms: CA_2  and  N_5
REMARK    3  A    between atoms: CA_2  and  C_16
REMARK    4  A    between atoms: CB_3  and  SG_4
REMARK    5  A    between atoms: C_6  and  O_8
REMARK    6  A    between atoms: O_8  and  C_9
REMARK    7  A    between atoms: C_9  and  C_10
REMARK    8  A    between atoms: N_18  and  CA_19
REMARK    9  A    between atoms: CA_19  and  C_20
REMARK   10  A    between atoms: C_20  and  O_21
REMARK                            x       y       z     vdW  Elec       q    Type
REMARK                         _______ _______ _______ _____ _____    ______ ____
ROOT
ATOM      1  CA  GLY A   1       7.271  -3.758  25.358  0.00  0.00    +0.171 C 
ENDROOT
BRANCH   1   2
ATOM      2  C   GLY A   1       6.893  -5.143  25.909  0.00  0.00    +0.235 C 
ATOM      3  N   GLY A   1       5.624  -5.569  25.565  0.00  0.00    -0.303 N 
ATOM      4  H   GLY A   1       4.994  -4.851  25.221  0.00  0.00    +0.149 HD
ATOM      5  O   GLY A   1       7.686  -5.886  26.482  0.00  0.00    -0.274 OA
BRANCH   3   6
ATOM      6  CA  GLY A   1       5.030  -6.731  26.233  0.00  0.00    +0.224 C 
BRANCH   6   7
ATOM      7  C   GLY A   1       4.913  -6.593  27.750  0.00  0.00    +0.322 C 
ATOM      8  OXT GLY A   1       4.355  -5.658  28.305  0.00  0.00    -0.249 OA
BRANCH   7   9
ATOM      9  O   GLY A   1       5.445  -7.633  28.435  0.00  0.00    -0.480 OA
ATOM     10  H   GLY A   1       4.925  -7.787  29.249  0.00  0.00    +0.295 HD
ENDBRANCH   7   9
ENDBRANCH   6   7
ENDBRANCH   3   6
ENDBRANCH   1   2
BRANCH   1  11
ATOM     11  N   GLY A   1       7.419  -3.827  23.899  0.00  0.00    -0.269 N 
ATOM     12  H   GLY A   1       6.672  -4.280  23.392  0.00  0.00    +0.153 HD
ATOM     13  C   UNK A   0       8.016  -2.855  23.151  0.00  0.00    +0.401 C 
ATOM     14  O   UNK A   0       7.617  -2.574  22.031  0.00  0.00    -0.226 OA
BRANCH  13  15
ATOM     15  O   UNK A   0       9.103  -2.340  23.758  0.00  0.00    -0.446 OA
BRANCH  15  16
ATOM     16  C   UNK A   0      10.139  -1.892  22.873  0.00  0.00    +0.269 C 
BRANCH  16  17
ATOM     17  C   UNK A   0      10.145  -0.390  22.962  0.00  0.00    -0.010 A 
ATOM     18  C   UNK A   0      10.536   0.229  24.158  0.00  0.00    +0.007 A 
ATOM     19  C   UNK A   0      10.614   1.618  24.239  0.00  0.00    +0.000 A 
ATOM     20  C   UNK A   0      10.311   2.396  23.127  0.00  0.00    +0.000 A 
ATOM     21  C   UNK A   0       9.928   1.791  21.932  0.00  0.00    +0.000 A 
ATOM     22  C   UNK A   0       9.846   0.402  21.847  0.00  0.00    +0.007 A 
ENDBRANCH  16  17
ENDBRANCH  15  16
ENDBRANCH  13  15
ENDBRANCH   1  11
BRANCH   1  23
ATOM     23  CB  GLY A   1       6.199  -2.731  25.760  0.00  0.00    +0.097 C 
BRANCH  23  24
ATOM     24  SG  GLY A   1       6.916  -1.255  26.559  0.00  0.00    -0.176 S 
ATOM     25  HG  GLY A   1       7.224  -1.834  27.731  0.00  0.00    +0.102 HD
ENDBRANCH  23  24
ENDBRANCH   1  23
TORSDOF 10
ENDMDL
MODEL 9
REMARK VINA RESULT:      -5.7      4.934      8.222
REMARK  Name = 
REMARK  10 active torsions:
REMARK  status: ('A' for Active; 'I' for Inactive)
REMARK    1  A    between atoms: CA_2  and  CB_3
REMARK    2  A    between atoms: CA_2  and  N_5
REMARK    3  A    between atoms: CA_2  and  C_16
REMARK    4  A    between atoms: CB_3  and  SG_4
REMARK    5  A    between atoms: C_6  and  O_8
REMARK    6  A    between atoms: O_8  and  C_9
REMARK    7  A    between atoms: C_9  and  C_10
REMARK    8  A    between atoms: N_18  and  CA_19
REMARK    9  A    between atoms: CA_19  and  C_20
REMARK   10  A    between atoms: C_20  and  O_21
REMARK                            x       y       z     vdW  Elec       q    Type
REMARK                         _______ _______ _______ _____ _____    ______ ____
ROOT
ATOM      1  CA  GLY A   1       7.748  -3.264  24.973  0.00  0.00    +0.171 C 
ENDROOT
BRANCH   1   2
ATOM      2  C   GLY A   1       8.084  -4.430  24.029  0.00  0.00    +0.235 C 
ATOM      3  N   GLY A   1       7.374  -4.430  22.843  0.00  0.00    -0.303 N 
ATOM      4  H   GLY A   1       6.549  -3.838  22.821  0.00  0.00    +0.149 HD
ATOM      5  O   GLY A   1       9.002  -5.222  24.227  0.00  0.00    -0.274 OA
BRANCH   3   6
ATOM      6  CA  GLY A   1       7.387  -5.611  21.975  0.00  0.00    +0.224 C 
BRANCH   6   7
ATOM      7  C   GLY A   1       6.085  -5.846  21.213  0.00  0.00    +0.322 C 
ATOM      8  OXT GLY A   1       5.950  -5.631  20.018  0.00  0.00    -0.249 OA
BRANCH   7   9
ATOM      9  O   GLY A   1       5.092  -6.364  21.975  0.00  0.00    -0.480 OA
ATOM     10  H   GLY A   1       4.897  -5.756  22.715  0.00  0.00    +0.295 HD
ENDBRANCH   7   9
ENDBRANCH   6   7
ENDBRANCH   3   6
ENDBRANCH   1   2
BRANCH   1  11
ATOM     11  N   GLY A   1       6.317  -2.951  24.887  0.00  0.00    -0.269 N 
ATOM     12  H   GLY A   1       5.691  -3.567  25.385  0.00  0.00    +0.153 HD
ATOM     13  C   UNK A   0       5.822  -1.682  24.816  0.00  0.00    +0.401 C 
ATOM     14  O   UNK A   0       4.770  -1.375  25.357  0.00  0.00    -0.226 OA
BRANCH  13  15
ATOM     15  O   UNK A   0       6.574  -0.883  24.034  0.00  0.00    -0.446 OA
BRANCH  15  16
ATOM     16  C   UNK A   0       6.896   0.395  24.602  0.00  0.00    +0.269 C 
BRANCH  16  17
ATOM     17  C   UNK A   0       8.013   0.955  23.764  0.00  0.00    -0.010 A 
ATOM     18  C   UNK A   0       9.207   1.353  24.383  0.00  0.00    +0.007 A 
ATOM     19  C   UNK A   0      10.279   1.809  23.617  0.00  0.00    +0.000 A 
ATOM     20  C   UNK A   0      10.168   1.863  22.231  0.00  0.00    +0.000 A 
ATOM     21  C   UNK A   0       8.988   1.463  21.606  0.00  0.00    +0.000 A 
ATOM     22  C   UNK A   0       7.914   1.009  22.368  0.00  0.00    +0.007 A 
ENDBRANCH  16  17
ENDBRANCH  15  16
ENDBRANCH  13  15
ENDBRANCH   1  11
BRANCH   1  23
ATOM     23  CB  GLY A   1       8.153  -3.629  26.411  0.00  0.00    +0.097 C 
BRANCH  23  24
ATOM     24  SG  GLY A   1       7.034  -4.862  27.156  0.00  0.00    -0.176 S 
ATOM     25  HG  GLY A   1       6.574  -5.384  26.008  0.00  0.00    +0.102 HD
ENDBRANCH  23  24
ENDBRANCH   1  23
TORSDOF 10
ENDMDL
