MODEL 1
REMARK VINA RESULT:      -4.4      0.000      0.000
REMARK  Name = 
REMARK  1 active torsions:
REMARK  status: ('A' for Active; 'I' for Inactive)
REMARK    1  A    between atoms: C_5  and  C_6
REMARK                            x       y       z     vdW  Elec       q    Type
REMARK                         _______ _______ _______ _____ _____    ______ ____
ROOT
ATOM      1  O   UNL     1       7.045  -6.029  28.037  0.00  0.00    -0.247 OA
ATOM      2  C   UNL     1       7.588  -5.279  27.235  0.00  0.00    +0.327 A 
ATOM      3  N   UNL     1       8.719  -5.627  26.554  0.00  0.00    -0.274 N 
ATOM      4  H   UNL     1       9.102  -6.543  26.733  0.00  0.00    +0.173 HD
ATOM      5  C   UNL     1       9.349  -4.860  25.610  0.00  0.00    +0.269 A 
ATOM      6  O   UNL     1      10.339  -5.272  25.011  0.00  0.00    -0.266 OA
ATOM      7  C   UNL     1       8.756  -3.513  25.353  0.00  0.00    +0.105 A 
ATOM      8  C   UNL     1       7.661  -3.179  26.050  0.00  0.00    +0.109 A 
ATOM      9  N   UNL     1       7.096  -4.034  26.957  0.00  0.00    -0.313 N 
ATOM     10  H   UNL     1       6.257  -3.770  27.463  0.00  0.00    +0.170 HD
ENDROOT
BRANCH   7  11
ATOM     11  C   UNL     1       9.320  -2.629  24.391  0.00  0.00    -0.063 C 
ATOM     12  C   UNL     1       9.809  -1.887  23.584  0.00  0.00    +0.009 C 
ENDBRANCH   7  11
TORSDOF 1
ENDMDL
MODEL 2
REMARK VINA RESULT:      -4.4      5.354      6.976
REMARK  Name = 
REMARK  1 active torsions:
REMARK  status: ('A' for Active; 'I' for Inactive)
REMARK    1  A    between atoms: C_5  and  C_6
REMARK                            x       y       z     vdW  Elec       q    Type
REMARK                         _______ _______ _______ _____ _____    ______ ____
ROOT
ATOM      1  O   UNL     1      11.127   3.749  23.306  0.00  0.00    -0.247 OA
ATOM      2  C   UNL     1      10.661   2.630  23.133  0.00  0.00    +0.327 A 
ATOM      3  N   UNL     1      10.624   1.689  24.122  0.00  0.00    -0.274 N 
ATOM      4  H   UNL     1      11.000   1.950  25.021  0.00  0.00    +0.173 HD
ATOM      5  C   UNL     1      10.074   0.439  24.013  0.00  0.00    +0.269 A 
ATOM      6  O   UNL     1      10.044  -0.330  24.970  0.00  0.00    -0.266 OA
ATOM      7  C   UNL     1       9.512   0.082  22.676  0.00  0.00    +0.105 A 
ATOM      8  C   UNL     1       9.581   1.009  21.710  0.00  0.00    +0.109 A 
ATOM      9  N   UNL     1      10.133   2.241  21.933  0.00  0.00    -0.313 N 
ATOM     10  H   UNL     1      10.160   2.936  21.195  0.00  0.00    +0.170 HD
ENDROOT
BRANCH   7  11
ATOM     11  C   UNL     1       8.910  -1.186  22.443  0.00  0.00    -0.063 C 
ATOM     12  C   UNL     1       8.404  -2.260  22.260  0.00  0.00    +0.009 C 
ENDBRANCH   7  11
TORSDOF 1
ENDMDL
MODEL 3
REMARK VINA RESULT:      -4.3      2.066      2.194
REMARK  Name = 
REMARK  1 active torsions:
REMARK  status: ('A' for Active; 'I' for Inactive)
REMARK    1  A    between atoms: C_5  and  C_6
REMARK                            x       y       z     vdW  Elec       q    Type
REMARK                         _______ _______ _______ _____ _____    ______ ____
ROOT
ATOM      1  O   UNL     1       7.059  -6.041  28.473  0.00  0.00    -0.247 OA
ATOM      2  C   UNL     1       7.112  -5.750  27.284  0.00  0.00    +0.327 A 
ATOM      3  N   UNL     1       8.294  -5.629  26.610  0.00  0.00    -0.274 N 
ATOM      4  H   UNL     1       9.141  -5.792  27.132  0.00  0.00    +0.173 HD
ATOM      5  C   UNL     1       8.424  -5.356  25.274  0.00  0.00    +0.269 A 
ATOM      6  O   UNL     1       9.529  -5.310  24.738  0.00  0.00    -0.266 OA
ATOM      7  C   UNL     1       7.155  -5.131  24.520  0.00  0.00    +0.105 A 
ATOM      8  C   UNL     1       6.006  -5.228  25.204  0.00  0.00    +0.109 A 
ATOM      9  N   UNL     1       5.986  -5.530  26.539  0.00  0.00    -0.313 N 
ATOM     10  H   UNL     1       5.107  -5.616  27.036  0.00  0.00    +0.170 HD
ENDROOT
BRANCH   7  11
ATOM     11  C   UNL     1       7.164  -4.845  23.127  0.00  0.00    -0.063 C 
ATOM     12  C   UNL     1       7.158  -4.597  21.952  0.00  0.00    +0.009 C 
ENDBRANCH   7  11
TORSDOF 1
ENDMDL
MODEL 4
REMARK VINA RESULT:      -4.3      1.446      2.075
REMARK  Name = 
REMARK  1 active torsions:
REMARK  status: ('A' for Active; 'I' for Inactive)
REMARK    1  A    between atoms: C_5  and  C_6
REMARK                            x       y       z     vdW  Elec       q    Type
REMARK                         _______ _______ _______ _____ _____    ______ ____
ROOT
ATOM      1  O   UNL     1       7.186  -6.035  27.992  0.00  0.00    -0.247 OA
ATOM      2  C   UNL     1       7.678  -5.314  27.133  0.00  0.00    +0.327 A 
ATOM      3  N   UNL     1       7.277  -4.023  26.940  0.00  0.00    -0.274 N 
ATOM      4  H   UNL     1       6.547  -3.672  27.542  0.00  0.00    +0.173 HD
ATOM      5  C   UNL     1       7.816  -3.147  26.035  0.00  0.00    +0.269 A 
ATOM      6  O   UNL     1       7.423  -1.986  25.959  0.00  0.00    -0.266 OA
ATOM      7  C   UNL     1       8.904  -3.686  25.165  0.00  0.00    +0.105 A 
ATOM      8  C   UNL     1       9.266  -4.963  25.351  0.00  0.00    +0.109 A 
ATOM      9  N   UNL     1       8.676  -5.748  26.304  0.00  0.00    -0.313 N 
ATOM     10  H   UNL     1       8.975  -6.707  26.442  0.00  0.00    +0.170 HD
ENDROOT
BRANCH   7  11
ATOM     11  C   UNL     1       9.544  -2.870  24.191  0.00  0.00    -0.063 C 
ATOM     12  C   UNL     1      10.071  -2.175  23.366  0.00  0.00    +0.009 C 
ENDBRANCH   7  11
TORSDOF 1
ENDMDL
MODEL 5
REMARK VINA RESULT:      -4.2      1.983      4.096
REMARK  Name = 
REMARK  1 active torsions:
REMARK  status: ('A' for Active; 'I' for Inactive)
REMARK    1  A    between atoms: C_5  and  C_6
REMARK                            x       y       z     vdW  Elec       q    Type
REMARK                         _______ _______ _______ _____ _____    ______ ____
ROOT
ATOM      1  O   UNL     1      10.297  -4.808  24.859  0.00  0.00    -0.247 OA
ATOM      2  C   UNL     1       9.132  -5.023  25.173  0.00  0.00    +0.327 A 
ATOM      3  N   UNL     1       8.769  -5.382  26.440  0.00  0.00    -0.274 N 
ATOM      4  H   UNL     1       9.504  -5.465  27.125  0.00  0.00    +0.173 HD
ATOM      5  C   UNL     1       7.485  -5.589  26.872  0.00  0.00    +0.269 A 
ATOM      6  O   UNL     1       7.245  -5.867  28.044  0.00  0.00    -0.266 OA
ATOM      7  C   UNL     1       6.413  -5.448  25.842  0.00  0.00    +0.105 A 
ATOM      8  C   UNL     1       6.791  -5.120  24.599  0.00  0.00    +0.109 A 
ATOM      9  N   UNL     1       8.105  -4.912  24.277  0.00  0.00    -0.313 N 
ATOM     10  H   UNL     1       8.371  -4.648  23.335  0.00  0.00    +0.170 HD
ENDROOT
BRANCH   7  11
ATOM     11  C   UNL     1       5.042  -5.634  26.173  0.00  0.00    -0.063 C 
ATOM     12  C   UNL     1       3.882  -5.795  26.439  0.00  0.00    +0.009 C 
ENDBRANCH   7  11
TORSDOF 1
ENDMDL
MODEL 6
REMARK VINA RESULT:      -4.2      4.172      5.010
REMARK  Name = 
REMARK  1 active torsions:
REMARK  status: ('A' for Active; 'I' for Inactive)
REMARK    1  A    between atoms: C_5  and  C_6
REMARK                            x       y       z     vdW  Elec       q    Type
REMARK                         _______ _______ _______ _____ _____    ______ ____
ROOT
ATOM      1  O   UNL     1       5.980  -5.659  20.121  0.00  0.00    -0.247 OA
ATOM      2  C   UNL     1       6.121  -5.624  21.338  0.00  0.00    +0.327 A 
ATOM      3  N   UNL     1       7.270  -5.185  21.931  0.00  0.00    -0.274 N 
ATOM      4  H   UNL     1       8.017  -4.882  21.324  0.00  0.00    +0.173 HD
ATOM      5  C   UNL     1       7.478  -5.073  23.281  0.00  0.00    +0.269 A 
ATOM      6  O   UNL     1       8.530  -4.624  23.729  0.00  0.00    -0.266 OA
ATOM      7  C   UNL     1       6.353  -5.516  24.159  0.00  0.00    +0.105 A 
ATOM      8  C   UNL     1       5.243  -5.968  23.558  0.00  0.00    +0.109 A 
ATOM      9  N   UNL     1       5.131  -6.017  22.195  0.00  0.00    -0.313 N 
ATOM     10  H   UNL     1       4.277  -6.346  21.759  0.00  0.00    +0.170 HD
ENDROOT
BRANCH   7  11
ATOM     11  C   UNL     1       6.450  -5.442  25.576  0.00  0.00    -0.063 C 
ATOM     12  C   UNL     1       6.546  -5.383  26.772  0.00  0.00    +0.009 C 
ENDBRANCH   7  11
TORSDOF 1
ENDMDL
MODEL 7
REMARK VINA RESULT:      -4.2      4.372      5.985
REMARK  Name = 
REMARK  1 active torsions:
REMARK  status: ('A' for Active; 'I' for Inactive)
REMARK    1  A    between atoms: C_5  and  C_6
REMARK                            x       y       z     vdW  Elec       q    Type
REMARK                         _______ _______ _______ _____ _____    ______ ____
ROOT
ATOM      1  O   UNL     1      10.184   1.865  21.760  0.00  0.00    -0.247 OA
ATOM      2  C   UNL     1      10.058   0.793  22.340  0.00  0.00    +0.327 A 
ATOM      3  N   UNL     1       9.956   0.702  23.698  0.00  0.00    -0.274 N 
ATOM      4  H   UNL     1       9.986   1.563  24.223  0.00  0.00    +0.173 HD
ATOM      5  C   UNL     1       9.764  -0.455  24.407  0.00  0.00    +0.269 A 
ATOM      6  O   UNL     1       9.637  -0.441  25.628  0.00  0.00    -0.266 OA
ATOM      7  C   UNL     1       9.709  -1.716  23.607  0.00  0.00    +0.105 A 
ATOM      8  C   UNL     1       9.837  -1.608  22.277  0.00  0.00    +0.109 A 
ATOM      9  N   UNL     1      10.003  -0.395  21.665  0.00  0.00    -0.313 N 
ATOM     10  H   UNL     1      10.081  -0.332  20.656  0.00  0.00    +0.170 HD
ENDROOT
BRANCH   7  11
ATOM     11  C   UNL     1       9.508  -2.978  24.231  0.00  0.00    -0.063 C 
ATOM     12  C   UNL     1       9.327  -4.039  24.764  0.00  0.00    +0.009 C 
ENDBRANCH   7  11
TORSDOF 1
ENDMDL
MODEL 8
REMARK VINA RESULT:      -4.1      4.266      5.599
REMARK  Name = 
REMARK  1 active torsions:
REMARK  status: ('A' for Active; 'I' for Inactive)
REMARK    1  A    between atoms: C_5  and  C_6
REMARK                            x       y       z     vdW  Elec       q    Type
REMARK                         _______ _______ _______ _____ _____    ______ ____
ROOT
ATOM      1  O   UNL     1      10.641   2.447  23.969  0.00  0.00    -0.247 OA
ATOM      2  C   UNL     1      10.327   1.266  24.054  0.00  0.00    +0.327 A 
ATOM      3  N   UNL     1      10.480   0.390  23.017  0.00  0.00    -0.274 N 
ATOM      4  H   UNL     1      10.870   0.752  22.160  0.00  0.00    +0.173 HD
ATOM      5  C   UNL     1      10.198  -0.950  23.058  0.00  0.00    +0.269 A 
ATOM      6  O   UNL     1      10.409  -1.676  22.090  0.00  0.00    -0.266 OA
ATOM      7  C   UNL     1       9.635  -1.466  24.342  0.00  0.00    +0.105 A 
ATOM      8  C   UNL     1       9.467  -0.586  25.339  0.00  0.00    +0.109 A 
ATOM      9  N   UNL     1       9.805   0.733  25.200  0.00  0.00    -0.313 N 
ATOM     10  H   UNL     1       9.688   1.381  25.972  0.00  0.00    +0.170 HD
ENDROOT
BRANCH   7  11
ATOM     11  C   UNL     1       9.307  -2.840  24.506  0.00  0.00    -0.063 C 
ATOM     12  C   UNL     1       9.018  -3.997  24.651  0.00  0.00    +0.009 C 
ENDBRANCH   7  11
TORSDOF 1
ENDMDL
MODEL 9
REMARK VINA RESULT:      -4.1      4.985      6.359
REMARK  Name = 
REMARK  1 active torsions:
REMARK  status: ('A' for Active; 'I' for Inactive)
REMARK    1  A    between atoms: C_5  and  C_6
REMARK                            x       y       z     vdW  Elec       q    Type
REMARK                         _______ _______ _______ _____ _____    ______ ____
ROOT
ATOM      1  O   UNL     1      10.768  -2.268  22.679  0.00  0.00    -0.247 OA
ATOM      2  C   UNL     1      10.153  -1.209  22.621  0.00  0.00    +0.327 A 
ATOM      3  N   UNL     1       9.819  -0.494  23.735  0.00  0.00    -0.274 N 
ATOM      4  H   UNL     1      10.101  -0.870  24.628  0.00  0.00    +0.173 HD
ATOM      5  C   UNL     1       9.179   0.718  23.742  0.00  0.00    +0.269 A 
ATOM      6  O   UNL     1       8.957   1.316  24.792  0.00  0.00    -0.266 OA
ATOM      7  C   UNL     1       8.784   1.261  22.408  0.00  0.00    +0.105 A 
ATOM      8  C   UNL     1       9.097   0.532  21.328  0.00  0.00    +0.109 A 
ATOM      9  N   UNL     1       9.762  -0.660  21.432  0.00  0.00    -0.313 N 
ATOM     10  H   UNL     1      10.006  -1.189  20.602  0.00  0.00    +0.170 HD
ENDROOT
BRANCH   7  11
ATOM     11  C   UNL     1       8.118   2.512  22.288  0.00  0.00    -0.063 C 
ATOM     12  C   UNL     1       7.546   3.564  22.195  0.00  0.00    +0.009 C 
ENDBRANCH   7  11
TORSDOF 1
ENDMDL
