MODEL 1
REMARK VINA RESULT:      -6.6      0.000      0.000
REMARK  Name = 
REMARK  8 active torsions:
REMARK  status: ('A' for Active; 'I' for Inactive)
REMARK    1  A    between atoms: C_2  and  C_3
REMARK    2  A    between atoms: C_2  and  N_10
REMARK    3  A    between atoms: C_2  and  C_19
REMARK    4  A    between atoms: C_3  and  C_4
REMARK    5  A    between atoms: C_4  and  C_5
REMARK    6  A    between atoms: C_5  and  N_6
REMARK    7  A    between atoms: C_7  and  C_8
REMARK    8  A    between atoms: C_11  and  C_13
REMARK                            x       y       z     vdW  Elec       q    Type
REMARK                         _______ _______ _______ _____ _____    ______ ____
ROOT
ATOM      1  C   UNL     1       7.595  -3.930  23.054  0.00  0.00    +0.159 C 
ENDROOT
BRANCH   1   2
ATOM      2  C   UNL     1       6.498  -4.087  21.992  0.00  0.00    +0.231 C 
ATOM      3  O   UNL     1       5.662  -3.220  21.755  0.00  0.00    -0.274 OA
ATOM      4  N   UNL     1       6.515  -5.259  21.291  0.00  0.00    -0.328 N 
ATOM      5  H   UNL     1       5.855  -5.336  20.526  0.00  0.00    +0.145 HD
ATOM      6  H   UNL     1       7.349  -5.830  21.235  0.00  0.00    +0.145 HD
ENDBRANCH   1   2
BRANCH   1   7
ATOM      7  N   UNL     1       8.031  -2.541  23.027  0.00  0.00    -0.300 N 
ATOM      8  H   UNL     1       7.393  -1.865  22.624  0.00  0.00    +0.150 HD
ATOM      9  C   UNL     1       9.321  -2.195  23.365  0.00  0.00    +0.245 C 
ATOM     10  O   UNL     1      10.153  -3.013  23.748  0.00  0.00    -0.270 OA
BRANCH   9  11
ATOM     11  C   UNL     1       9.691  -0.767  23.185  0.00  0.00    +0.037 A 
ATOM     12  C   UNL     1       9.427  -0.168  21.948  0.00  0.00    +0.013 A 
ATOM     13  C   UNL     1       9.710   1.184  21.750  0.00  0.00    +0.001 A 
ATOM     14  C   UNL     1      10.267   1.937  22.783  0.00  0.00    +0.000 A 
ATOM     15  C   UNL     1      10.559   1.337  24.008  0.00  0.00    +0.001 A 
ATOM     16  C   UNL     1      10.278  -0.015  24.212  0.00  0.00    +0.013 A 
ENDBRANCH   9  11
ENDBRANCH   1   7
BRANCH   1  17
ATOM     17  C   UNL     1       7.072  -4.300  24.448  0.00  0.00    +0.035 C 
BRANCH  17  18
ATOM     18  C   UNL     1       7.967  -5.280  25.216  0.00  0.00    +0.046 C 
BRANCH  18  19
ATOM     19  C   UNL     1       8.035  -4.948  26.704  0.00  0.00    +0.223 C 
BRANCH  19  20
ATOM     20  N   UNL     1       7.576  -6.056  27.511  0.00  0.00    -0.238 N 
ATOM     21  H   UNL     1       8.130  -6.903  27.488  0.00  0.00    +0.291 HD
ATOM     22  C   UNL     1       6.449  -6.040  28.283  0.00  0.00    +0.275 C 
ATOM     23  N   UNL     1       6.126  -7.060  29.007  0.00  0.00    -0.104 NA
ATOM     24  H   UNL     1       6.818  -7.801  28.888  0.00  0.00    +0.363 HD
ATOM     25  C   UNL     1       5.533  -4.839  28.335  0.00  0.00    +0.144 C 
ENDBRANCH  19  20
ENDBRANCH  18  19
ENDBRANCH  17  18
ENDBRANCH   1  17
TORSDOF 7
ENDMDL
MODEL 2
REMARK VINA RESULT:      -6.6      3.048      7.277
REMARK  Name = 
REMARK  8 active torsions:
REMARK  status: ('A' for Active; 'I' for Inactive)
REMARK    1  A    between atoms: C_2  and  C_3
REMARK    2  A    between atoms: C_2  and  N_10
REMARK    3  A    between atoms: C_2  and  C_19
REMARK    4  A    between atoms: C_3  and  C_4
REMARK    5  A    between atoms: C_4  and  C_5
REMARK    6  A    between atoms: C_5  and  N_6
REMARK    7  A    between atoms: C_7  and  C_8
REMARK    8  A    between atoms: C_11  and  C_13
REMARK                            x       y       z     vdW  Elec       q    Type
REMARK                         _______ _______ _______ _____ _____    ______ ____
ROOT
ATOM      1  C   UNL     1       9.831  -1.420  23.854  0.00  0.00    +0.159 C 
ENDROOT
BRANCH   1   2
ATOM      2  C   UNL     1       9.285  -0.362  24.823  0.00  0.00    +0.231 C 
ATOM      3  O   UNL     1       8.087  -0.172  25.006  0.00  0.00    -0.274 OA
ATOM      4  N   UNL     1      10.224   0.360  25.503  0.00  0.00    -0.328 N 
ATOM      5  H   UNL     1       9.878   0.996  26.211  0.00  0.00    +0.145 HD
ATOM      6  H   UNL     1      11.171   0.022  25.617  0.00  0.00    +0.145 HD
ENDBRANCH   1   2
BRANCH   1   7
ATOM      7  N   UNL     1       8.736  -2.324  23.535  0.00  0.00    -0.300 N 
ATOM      8  H   UNL     1       7.896  -1.912  23.144  0.00  0.00    +0.150 HD
ATOM      9  C   UNL     1       8.772  -3.647  23.917  0.00  0.00    +0.245 C 
ATOM     10  O   UNL     1       9.731  -4.148  24.496  0.00  0.00    -0.270 OA
BRANCH   9  11
ATOM     11  C   UNL     1       7.549  -4.448  23.646  0.00  0.00    +0.037 A 
ATOM     12  C   UNL     1       7.293  -4.833  22.325  0.00  0.00    +0.013 A 
ATOM     13  C   UNL     1       6.185  -5.629  22.030  0.00  0.00    +0.001 A 
ATOM     14  C   UNL     1       5.326  -6.031  23.052  0.00  0.00    +0.000 A 
ATOM     15  C   UNL     1       5.561  -5.625  24.366  0.00  0.00    +0.001 A 
ATOM     16  C   UNL     1       6.668  -4.829  24.666  0.00  0.00    +0.013 A 
ENDBRANCH   9  11
ENDBRANCH   1   7
BRANCH   1  17
ATOM     17  C   UNL     1      10.380  -0.771  22.578  0.00  0.00    +0.035 C 
BRANCH  17  18
ATOM     18  C   UNL     1       9.313  -0.455  21.522  0.00  0.00    +0.046 C 
BRANCH  18  19
ATOM     19  C   UNL     1       8.926   1.021  21.523  0.00  0.00    +0.223 C 
BRANCH  19  20
ATOM     20  N   UNL     1      10.056   1.859  21.858  0.00  0.00    -0.238 N 
ATOM     21  H   UNL     1      10.919   1.690  21.357  0.00  0.00    +0.291 HD
ATOM     22  C   UNL     1      10.038   2.845  22.803  0.00  0.00    +0.275 C 
ATOM     23  N   UNL     1      11.080   3.578  23.018  0.00  0.00    -0.104 NA
ATOM     24  H   UNL     1      11.838   3.290  22.398  0.00  0.00    +0.363 HD
ATOM     25  C   UNL     1       8.810   3.131  23.637  0.00  0.00    +0.144 C 
ENDBRANCH  19  20
ENDBRANCH  18  19
ENDBRANCH  17  18
ENDBRANCH   1  17
TORSDOF 7
ENDMDL
MODEL 3
REMARK VINA RESULT:      -6.5      2.630      3.971
REMARK  Name = 
REMARK  8 active torsions:
REMARK  status: ('A' for Active; 'I' for Inactive)
REMARK    1  A    between atoms: C_2  and  C_3
REMARK    2  A    between atoms: C_2  and  N_10
REMARK    3  A    between atoms: C_2  and  C_19
REMARK    4  A    between atoms: C_3  and  C_4
REMARK    5  A    between atoms: C_4  and  C_5
REMARK    6  A    between atoms: C_5  and  N_6
REMARK    7  A    between atoms: C_7  and  C_8
REMARK    8  A    between atoms: C_11  and  C_13
REMARK                            x       y       z     vdW  Elec       q    Type
REMARK                         _______ _______ _______ _____ _____    ______ ____
ROOT
ATOM      1  C   UNL     1       8.774  -1.043  23.543  0.00  0.00    +0.159 C 
ENDROOT
BRANCH   1   2
ATOM      2  C   UNL     1       9.829  -1.584  22.569  0.00  0.00    +0.231 C 
ATOM      3  O   UNL     1      10.627  -2.469  22.865  0.00  0.00    -0.274 OA
ATOM      4  N   UNL     1       9.822  -1.034  21.319  0.00  0.00    -0.328 N 
ATOM      5  H   UNL     1      10.450  -1.447  20.641  0.00  0.00    +0.145 HD
ATOM      6  H   UNL     1       9.004  -0.560  20.956  0.00  0.00    +0.145 HD
ENDBRANCH   1   2
BRANCH   1   7
ATOM      7  N   UNL     1       8.878   0.409  23.534  0.00  0.00    -0.300 N 
ATOM      8  H   UNL     1       8.337   0.906  22.835  0.00  0.00    +0.150 HD
ATOM      9  C   UNL     1       9.806   1.060  24.316  0.00  0.00    +0.245 C 
ATOM     10  O   UNL     1      10.556   0.473  25.090  0.00  0.00    -0.270 OA
BRANCH   9  11
ATOM     11  C   UNL     1       9.905   2.532  24.137  0.00  0.00    +0.037 A 
ATOM     12  C   UNL     1       8.851   3.327  24.603  0.00  0.00    +0.013 A 
ATOM     13  C   UNL     1       8.924   4.716  24.503  0.00  0.00    +0.001 A 
ATOM     14  C   UNL     1      10.044   5.315  23.929  0.00  0.00    +0.000 A 
ATOM     15  C   UNL     1      11.085   4.526  23.436  0.00  0.00    +0.001 A 
ATOM     16  C   UNL     1      11.017   3.135  23.533  0.00  0.00    +0.013 A 
ENDBRANCH   9  11
ENDBRANCH   1   7
BRANCH   1  17
ATOM     17  C   UNL     1       7.364  -1.483  23.131  0.00  0.00    +0.035 C 
BRANCH  17  18
ATOM     18  C   UNL     1       7.247  -2.968  22.770  0.00  0.00    +0.046 C 
BRANCH  18  19
ATOM     19  C   UNL     1       7.267  -3.862  24.007  0.00  0.00    +0.223 C 
BRANCH  19  20
ATOM     20  N   UNL     1       8.507  -4.599  24.101  0.00  0.00    -0.238 N 
ATOM     21  H   UNL     1       8.889  -4.970  23.241  0.00  0.00    +0.291 HD
ATOM     22  C   UNL     1       9.184  -4.834  25.264  0.00  0.00    +0.275 C 
ATOM     23  N   UNL     1      10.309  -5.470  25.261  0.00  0.00    -0.104 NA
ATOM     24  H   UNL     1      10.554  -5.733  24.306  0.00  0.00    +0.363 HD
ATOM     25  C   UNL     1       8.661  -4.364  26.602  0.00  0.00    +0.144 C 
ENDBRANCH  19  20
ENDBRANCH  18  19
ENDBRANCH  17  18
ENDBRANCH   1  17
TORSDOF 7
ENDMDL
MODEL 4
REMARK VINA RESULT:      -6.4      2.143      3.559
REMARK  Name = 
REMARK  8 active torsions:
REMARK  status: ('A' for Active; 'I' for Inactive)
REMARK    1  A    between atoms: C_2  and  C_3
REMARK    2  A    between atoms: C_2  and  N_10
REMARK    3  A    between atoms: C_2  and  C_19
REMARK    4  A    between atoms: C_3  and  C_4
REMARK    5  A    between atoms: C_4  and  C_5
REMARK    6  A    between atoms: C_5  and  N_6
REMARK    7  A    between atoms: C_7  and  C_8
REMARK    8  A    between atoms: C_11  and  C_13
REMARK                            x       y       z     vdW  Elec       q    Type
REMARK                         _______ _______ _______ _____ _____    ______ ____
ROOT
ATOM      1  C   UNL     1       7.988  -4.518  24.092  0.00  0.00    +0.159 C 
ENDROOT
BRANCH   1   2
ATOM      2  C   UNL     1       8.991  -5.073  25.113  0.00  0.00    +0.231 C 
ATOM      3  O   UNL     1      10.206  -4.936  25.004  0.00  0.00    -0.274 OA
ATOM      4  N   UNL     1       8.450  -5.722  26.185  0.00  0.00    -0.328 N 
ATOM      5  H   UNL     1       9.095  -6.011  26.910  0.00  0.00    +0.145 HD
ATOM      6  H   UNL     1       7.487  -5.573  26.462  0.00  0.00    +0.145 HD
ENDBRANCH   1   2
BRANCH   1   7
ATOM      7  N   UNL     1       8.548  -3.287  23.556  0.00  0.00    -0.300 N 
ATOM      8  H   UNL     1       9.401  -3.365  23.014  0.00  0.00    +0.150 HD
ATOM      9  C   UNL     1       8.044  -2.058  23.922  0.00  0.00    +0.245 C 
ATOM     10  O   UNL     1       7.080  -1.928  24.671  0.00  0.00    -0.270 OA
BRANCH   9  11
ATOM     11  C   UNL     1       8.769  -0.866  23.409  0.00  0.00    +0.037 A 
ATOM     12  C   UNL     1       9.565  -0.142  24.305  0.00  0.00    +0.013 A 
ATOM     13  C   UNL     1      10.304   0.953  23.857  0.00  0.00    +0.001 A 
ATOM     14  C   UNL     1      10.242   1.333  22.517  0.00  0.00    +0.000 A 
ATOM     15  C   UNL     1       9.428   0.633  21.626  0.00  0.00    +0.001 A 
ATOM     16  C   UNL     1       8.686  -0.464  22.069  0.00  0.00    +0.013 A 
ENDBRANCH   9  11
ENDBRANCH   1   7
BRANCH   1  17
ATOM     17  C   UNL     1       7.731  -5.526  22.965  0.00  0.00    +0.035 C 
BRANCH  17  18
ATOM     18  C   UNL     1       6.505  -5.206  22.101  0.00  0.00    +0.046 C 
BRANCH  18  19
ATOM     19  C   UNL     1       5.265  -4.930  22.946  0.00  0.00    +0.223 C 
BRANCH  19  20
ATOM     20  N   UNL     1       4.428  -6.105  23.048  0.00  0.00    -0.238 N 
ATOM     21  H   UNL     1       3.920  -6.382  22.217  0.00  0.00    +0.291 HD
ATOM     22  C   UNL     1       4.270  -6.850  24.182  0.00  0.00    +0.275 C 
ATOM     23  N   UNL     1       3.532  -7.910  24.182  0.00  0.00    -0.104 NA
ATOM     24  H   UNL     1       3.134  -8.054  23.254  0.00  0.00    +0.363 HD
ATOM     25  C   UNL     1       4.945  -6.478  25.482  0.00  0.00    +0.144 C 
ENDBRANCH  19  20
ENDBRANCH  18  19
ENDBRANCH  17  18
ENDBRANCH   1  17
TORSDOF 7
ENDMDL
MODEL 5
REMARK VINA RESULT:      -6.4      1.785      2.370
REMARK  Name = 
REMARK  8 active torsions:
REMARK  status: ('A' for Active; 'I' for Inactive)
REMARK    1  A    between atoms: C_2  and  C_3
REMARK    2  A    between atoms: C_2  and  N_10
REMARK    3  A    between atoms: C_2  and  C_19
REMARK    4  A    between atoms: C_3  and  C_4
REMARK    5  A    between atoms: C_4  and  C_5
REMARK    6  A    between atoms: C_5  and  N_6
REMARK    7  A    between atoms: C_7  and  C_8
REMARK    8  A    between atoms: C_11  and  C_13
REMARK                            x       y       z     vdW  Elec       q    Type
REMARK                         _______ _______ _______ _____ _____    ______ ____
ROOT
ATOM      1  C   UNL     1       6.503  -4.628  23.341  0.00  0.00    +0.159 C 
ENDROOT
BRANCH   1   2
ATOM      2  C   UNL     1       6.083  -5.278  22.016  0.00  0.00    +0.231 C 
ATOM      3  O   UNL     1       5.716  -4.634  21.038  0.00  0.00    -0.274 OA
ATOM      4  N   UNL     1       6.160  -6.641  21.973  0.00  0.00    -0.328 N 
ATOM      5  H   UNL     1       5.974  -7.075  21.077  0.00  0.00    +0.145 HD
ATOM      6  H   UNL     1       6.743  -7.158  22.619  0.00  0.00    +0.145 HD
ENDBRANCH   1   2
BRANCH   1   7
ATOM      7  N   UNL     1       6.775  -3.224  23.070  0.00  0.00    -0.300 N 
ATOM      8  H   UNL     1       5.991  -2.650  22.780  0.00  0.00    +0.150 HD
ATOM      9  C   UNL     1       8.065  -2.743  23.034  0.00  0.00    +0.245 C 
ATOM     10  O   UNL     1       9.045  -3.444  23.270  0.00  0.00    -0.270 OA
BRANCH   9  11
ATOM     11  C   UNL     1       8.230  -1.322  22.629  0.00  0.00    +0.037 A 
ATOM     12  C   UNL     1       9.350  -0.981  21.861  0.00  0.00    +0.013 A 
ATOM     13  C   UNL     1       9.519   0.330  21.415  0.00  0.00    +0.001 A 
ATOM     14  C   UNL     1       8.578   1.304  21.744  0.00  0.00    +0.000 A 
ATOM     15  C   UNL     1       7.476   0.976  22.534  0.00  0.00    +0.001 A 
ATOM     16  C   UNL     1       7.302  -0.334  22.983  0.00  0.00    +0.013 A 
ENDBRANCH   9  11
ENDBRANCH   1   7
BRANCH   1  17
ATOM     17  C   UNL     1       5.402  -4.767  24.400  0.00  0.00    +0.035 C 
BRANCH  17  18
ATOM     18  C   UNL     1       5.599  -5.944  25.363  0.00  0.00    +0.046 C 
BRANCH  18  19
ATOM     19  C   UNL     1       6.481  -5.572  26.551  0.00  0.00    +0.223 C 
BRANCH  19  20
ATOM     20  N   UNL     1       7.873  -5.857  26.281  0.00  0.00    -0.238 N 
ATOM     21  H   UNL     1       8.119  -6.822  26.107  0.00  0.00    +0.291 HD
ATOM     22  C   UNL     1       8.866  -4.920  26.258  0.00  0.00    +0.275 C 
ATOM     23  N   UNL     1      10.082  -5.249  25.971  0.00  0.00    -0.104 NA
ATOM     24  H   UNL     1      10.134  -6.252  25.788  0.00  0.00    +0.363 HD
ATOM     25  C   UNL     1       8.599  -3.463  26.561  0.00  0.00    +0.144 C 
ENDBRANCH  19  20
ENDBRANCH  18  19
ENDBRANCH  17  18
ENDBRANCH   1  17
TORSDOF 7
ENDMDL
MODEL 6
REMARK VINA RESULT:      -6.4      2.078      2.794
REMARK  Name = 
REMARK  8 active torsions:
REMARK  status: ('A' for Active; 'I' for Inactive)
REMARK    1  A    between atoms: C_2  and  C_3
REMARK    2  A    between atoms: C_2  and  N_10
REMARK    3  A    between atoms: C_2  and  C_19
REMARK    4  A    between atoms: C_3  and  C_4
REMARK    5  A    between atoms: C_4  and  C_5
REMARK    6  A    between atoms: C_5  and  N_6
REMARK    7  A    between atoms: C_7  and  C_8
REMARK    8  A    between atoms: C_11  and  C_13
REMARK                            x       y       z     vdW  Elec       q    Type
REMARK                         _______ _______ _______ _____ _____    ______ ____
ROOT
ATOM      1  C   UNL     1       7.278  -4.519  23.022  0.00  0.00    +0.159 C 
ENDROOT
BRANCH   1   2
ATOM      2  C   UNL     1       6.397  -5.127  21.923  0.00  0.00    +0.231 C 
ATOM      3  O   UNL     1       5.852  -4.458  21.050  0.00  0.00    -0.274 OA
ATOM      4  N   UNL     1       6.263  -6.487  21.953  0.00  0.00    -0.328 N 
ATOM      5  H   UNL     1       5.761  -6.907  21.181  0.00  0.00    +0.145 HD
ATOM      6  H   UNL     1       6.932  -7.072  22.437  0.00  0.00    +0.145 HD
ENDBRANCH   1   2
BRANCH   1   7
ATOM      7  N   UNL     1       7.360  -3.087  22.771  0.00  0.00    -0.300 N 
ATOM      8  H   UNL     1       6.565  -2.652  22.318  0.00  0.00    +0.150 HD
ATOM      9  C   UNL     1       8.534  -2.396  22.975  0.00  0.00    +0.245 C 
ATOM     10  O   UNL     1       9.551  -2.923  23.416  0.00  0.00    -0.270 OA
BRANCH   9  11
ATOM     11  C   UNL     1       8.537  -0.965  22.572  0.00  0.00    +0.037 A 
ATOM     12  C   UNL     1       7.401  -0.198  22.854  0.00  0.00    +0.013 A 
ATOM     13  C   UNL     1       7.379   1.161  22.541  0.00  0.00    +0.001 A 
ATOM     14  C   UNL     1       8.486   1.755  21.937  0.00  0.00    +0.000 A 
ATOM     15  C   UNL     1       9.610   0.988  21.627  0.00  0.00    +0.001 A 
ATOM     16  C   UNL     1       9.637  -0.373  21.938  0.00  0.00    +0.013 A 
ENDBRANCH   9  11
ENDBRANCH   1   7
BRANCH   1  17
ATOM     17  C   UNL     1       6.692  -4.788  24.413  0.00  0.00    +0.035 C 
BRANCH  17  18
ATOM     18  C   UNL     1       7.742  -4.942  25.520  0.00  0.00    +0.046 C 
BRANCH  18  19
ATOM     19  C   UNL     1       7.582  -3.889  26.613  0.00  0.00    +0.223 C 
BRANCH  19  20
ATOM     20  N   UNL     1       8.535  -2.814  26.449  0.00  0.00    -0.238 N 
ATOM     21  H   UNL     1       9.507  -3.074  26.340  0.00  0.00    +0.291 HD
ATOM     22  C   UNL     1       8.215  -1.486  26.443  0.00  0.00    +0.275 C 
ATOM     23  N   UNL     1       9.122  -0.586  26.253  0.00  0.00    -0.104 NA
ATOM     24  H   UNL     1      10.030  -1.032  26.124  0.00  0.00    +0.363 HD
ATOM     25  C   UNL     1       6.798  -1.005  26.654  0.00  0.00    +0.144 C 
ENDBRANCH  19  20
ENDBRANCH  18  19
ENDBRANCH  17  18
ENDBRANCH   1  17
TORSDOF 7
ENDMDL
MODEL 7
REMARK VINA RESULT:      -6.4      2.277      3.157
REMARK  Name = 
REMARK  8 active torsions:
REMARK  status: ('A' for Active; 'I' for Inactive)
REMARK    1  A    between atoms: C_2  and  C_3
REMARK    2  A    between atoms: C_2  and  N_10
REMARK    3  A    between atoms: C_2  and  C_19
REMARK    4  A    between atoms: C_3  and  C_4
REMARK    5  A    between atoms: C_4  and  C_5
REMARK    6  A    between atoms: C_5  and  N_6
REMARK    7  A    between atoms: C_7  and  C_8
REMARK    8  A    between atoms: C_11  and  C_13
REMARK                            x       y       z     vdW  Elec       q    Type
REMARK                         _______ _______ _______ _____ _____    ______ ____
ROOT
ATOM      1  C   UNL     1       8.653  -3.569  25.668  0.00  0.00    +0.159 C 
ENDROOT
BRANCH   1   2
ATOM      2  C   UNL     1       9.194  -4.865  25.050  0.00  0.00    +0.231 C 
ATOM      3  O   UNL     1       8.725  -5.374  24.037  0.00  0.00    -0.274 OA
ATOM      4  N   UNL     1      10.264  -5.425  25.688  0.00  0.00    -0.328 N 
ATOM      5  H   UNL     1      10.687  -6.228  25.239  0.00  0.00    +0.145 HD
ATOM      6  H   UNL     1      10.855  -4.882  26.305  0.00  0.00    +0.145 HD
ENDBRANCH   1   2
BRANCH   1   7
ATOM      7  N   UNL     1       8.899  -2.497  24.715  0.00  0.00    -0.300 N 
ATOM      8  H   UNL     1       9.021  -2.761  23.744  0.00  0.00    +0.150 HD
ATOM      9  C   UNL     1       9.135  -1.208  25.140  0.00  0.00    +0.245 C 
ATOM     10  O   UNL     1       9.106  -0.879  26.322  0.00  0.00    -0.270 OA
BRANCH   9  11
ATOM     11  C   UNL     1       9.493  -0.220  24.089  0.00  0.00    +0.037 A 
ATOM     12  C   UNL     1       9.313  -0.586  22.750  0.00  0.00    +0.013 A 
ATOM     13  C   UNL     1       9.586   0.327  21.731  0.00  0.00    +0.001 A 
ATOM     14  C   UNL     1      10.051   1.603  22.047  0.00  0.00    +0.000 A 
ATOM     15  C   UNL     1      10.261   1.963  23.378  0.00  0.00    +0.001 A 
ATOM     16  C   UNL     1       9.989   1.053  24.401  0.00  0.00    +0.013 A 
ENDBRANCH   9  11
ENDBRANCH   1   7
BRANCH   1  17
ATOM     17  C   UNL     1       7.154  -3.684  25.971  0.00  0.00    +0.035 C 
BRANCH  17  18
ATOM     18  C   UNL     1       6.810  -4.686  27.079  0.00  0.00    +0.046 C 
BRANCH  18  19
ATOM     19  C   UNL     1       5.863  -5.778  26.591  0.00  0.00    +0.223 C 
BRANCH  19  20
ATOM     20  N   UNL     1       5.787  -5.799  25.147  0.00  0.00    -0.238 N 
ATOM     21  H   UNL     1       6.470  -5.249  24.642  0.00  0.00    +0.291 HD
ATOM     22  C   UNL     1       4.858  -6.496  24.428  0.00  0.00    +0.275 C 
ATOM     23  N   UNL     1       4.880  -6.494  23.136  0.00  0.00    -0.104 NA
ATOM     24  H   UNL     1       5.655  -5.920  22.805  0.00  0.00    +0.363 HD
ATOM     25  C   UNL     1       3.768  -7.301  25.099  0.00  0.00    +0.144 C 
ENDBRANCH  19  20
ENDBRANCH  18  19
ENDBRANCH  17  18
ENDBRANCH   1  17
TORSDOF 7
ENDMDL
MODEL 8
REMARK VINA RESULT:      -6.4      2.882      7.403
REMARK  Name = 
REMARK  8 active torsions:
REMARK  status: ('A' for Active; 'I' for Inactive)
REMARK    1  A    between atoms: C_2  and  C_3
REMARK    2  A    between atoms: C_2  and  N_10
REMARK    3  A    between atoms: C_2  and  C_19
REMARK    4  A    between atoms: C_3  and  C_4
REMARK    5  A    between atoms: C_4  and  C_5
REMARK    6  A    between atoms: C_5  and  N_6
REMARK    7  A    between atoms: C_7  and  C_8
REMARK    8  A    between atoms: C_11  and  C_13
REMARK                            x       y       z     vdW  Elec       q    Type
REMARK                         _______ _______ _______ _____ _____    ______ ____
ROOT
ATOM      1  C   UNL     1      10.085  -1.290  23.812  0.00  0.00    +0.159 C 
ENDROOT
BRANCH   1   2
ATOM      2  C   UNL     1      10.288  -0.108  24.769  0.00  0.00    +0.231 C 
ATOM      3  O   UNL     1      11.172   0.732  24.623  0.00  0.00    -0.274 OA
ATOM      4  N   UNL     1       9.402  -0.023  25.805  0.00  0.00    -0.328 N 
ATOM      5  H   UNL     1       9.469   0.801  26.389  0.00  0.00    +0.145 HD
ATOM      6  H   UNL     1       8.503  -0.488  25.771  0.00  0.00    +0.145 HD
ENDBRANCH   1   2
BRANCH   1   7
ATOM      7  N   UNL     1       9.015  -2.112  24.357  0.00  0.00    -0.300 N 
ATOM      8  H   UNL     1       8.175  -1.634  24.664  0.00  0.00    +0.150 HD
ATOM      9  C   UNL     1       9.207  -3.452  24.612  0.00  0.00    +0.245 C 
ATOM     10  O   UNL     1      10.256  -4.036  24.356  0.00  0.00    -0.270 OA
BRANCH   9  11
ATOM     11  C   UNL     1       8.088  -4.166  25.280  0.00  0.00    +0.037 A 
ATOM     12  C   UNL     1       6.930  -4.421  24.535  0.00  0.00    +0.013 A 
ATOM     13  C   UNL     1       5.874  -5.134  25.104  0.00  0.00    +0.001 A 
ATOM     14  C   UNL     1       5.968  -5.583  26.421  0.00  0.00    +0.000 A 
ATOM     15  C   UNL     1       7.107  -5.305  27.177  0.00  0.00    +0.001 A 
ATOM     16  C   UNL     1       8.167  -4.592  26.612  0.00  0.00    +0.013 A 
ENDBRANCH   9  11
ENDBRANCH   1   7
BRANCH   1  17
ATOM     17  C   UNL     1       9.723  -0.804  22.402  0.00  0.00    +0.035 C 
BRANCH  17  18
ATOM     18  C   UNL     1       8.463   0.067  22.340  0.00  0.00    +0.046 C 
BRANCH  18  19
ATOM     19  C   UNL     1       8.675   1.322  21.498  0.00  0.00    +0.223 C 
BRANCH  19  20
ATOM     20  N   UNL     1       9.891   2.007  21.876  0.00  0.00    -0.238 N 
ATOM     21  H   UNL     1      10.740   1.738  21.396  0.00  0.00    +0.291 HD
ATOM     22  C   UNL     1       9.970   2.975  22.837  0.00  0.00    +0.275 C 
ATOM     23  N   UNL     1      11.089   3.569  23.091  0.00  0.00    -0.104 NA
ATOM     24  H   UNL     1      11.822   3.197  22.486  0.00  0.00    +0.363 HD
ATOM     25  C   UNL     1       8.764   3.402  23.643  0.00  0.00    +0.144 C 
ENDBRANCH  19  20
ENDBRANCH  18  19
ENDBRANCH  17  18
ENDBRANCH   1  17
TORSDOF 7
ENDMDL
MODEL 9
REMARK VINA RESULT:      -6.2      3.690      7.878
REMARK  Name = 
REMARK  8 active torsions:
REMARK  status: ('A' for Active; 'I' for Inactive)
REMARK    1  A    between atoms: C_2  and  C_3
REMARK    2  A    between atoms: C_2  and  N_10
REMARK    3  A    between atoms: C_2  and  C_19
REMARK    4  A    between atoms: C_3  and  C_4
REMARK    5  A    between atoms: C_4  and  C_5
REMARK    6  A    between atoms: C_5  and  N_6
REMARK    7  A    between atoms: C_7  and  C_8
REMARK    8  A    between atoms: C_11  and  C_13
REMARK                            x       y       z     vdW  Elec       q    Type
REMARK                         _______ _______ _______ _____ _____    ______ ____
ROOT
ATOM      1  C   UNL     1       9.805   0.917  22.665  0.00  0.00    +0.159 C 
ENDROOT
BRANCH   1   2
ATOM      2  C   UNL     1      10.184   1.696  23.932  0.00  0.00    +0.231 C 
ATOM      3  O   UNL     1      10.626   2.841  23.910  0.00  0.00    -0.274 OA
ATOM      4  N   UNL     1       9.979   1.043  25.114  0.00  0.00    -0.328 N 
ATOM      5  H   UNL     1      10.138   1.579  25.958  0.00  0.00    +0.145 HD
ATOM      6  H   UNL     1       9.339   0.262  25.182  0.00  0.00    +0.145 HD
ENDBRANCH   1   2
BRANCH   1   7
ATOM      7  N   UNL     1       9.128  -0.300  23.089  0.00  0.00    -0.300 N 
ATOM      8  H   UNL     1       8.369  -0.199  23.753  0.00  0.00    +0.150 HD
ATOM      9  C   UNL     1       9.616  -1.541  22.745  0.00  0.00    +0.245 C 
ATOM     10  O   UNL     1      10.605  -1.696  22.034  0.00  0.00    -0.270 OA
BRANCH   9  11
ATOM     11  C   UNL     1       8.916  -2.714  23.332  0.00  0.00    +0.037 A 
ATOM     12  C   UNL     1       7.789  -3.211  22.667  0.00  0.00    +0.013 A 
ATOM     13  C   UNL     1       7.131  -4.340  23.153  0.00  0.00    +0.001 A 
ATOM     14  C   UNL     1       7.590  -4.970  24.309  0.00  0.00    +0.000 A 
ATOM     15  C   UNL     1       8.695  -4.461  24.992  0.00  0.00    +0.001 A 
ATOM     16  C   UNL     1       9.357  -3.330  24.510  0.00  0.00    +0.013 A 
ENDBRANCH   9  11
ENDBRANCH   1   7
BRANCH   1  17
ATOM     17  C   UNL     1       8.892   1.749  21.756  0.00  0.00    +0.035 C 
BRANCH  17  18
ATOM     18  C   UNL     1       7.400   1.646  22.096  0.00  0.00    +0.046 C 
BRANCH  18  19
ATOM     19  C   UNL     1       6.889   2.890  22.815  0.00  0.00    +0.223 C 
BRANCH  19  20
ATOM     20  N   UNL     1       6.883   4.039  21.937  0.00  0.00    -0.238 N 
ATOM     21  H   UNL     1       6.423   3.931  21.042  0.00  0.00    +0.291 HD
ATOM     22  C   UNL     1       7.460   5.242  22.228  0.00  0.00    +0.275 C 
ATOM     23  N   UNL     1       7.378   6.234  21.404  0.00  0.00    -0.104 NA
ATOM     24  H   UNL     1       6.849   5.954  20.578  0.00  0.00    +0.363 HD
ATOM     25  C   UNL     1       8.214   5.476  23.517  0.00  0.00    +0.144 C 
ENDBRANCH  19  20
ENDBRANCH  18  19
ENDBRANCH  17  18
ENDBRANCH   1  17
TORSDOF 7
ENDMDL
