MODEL 1
REMARK VINA RESULT:      -7.5      0.000      0.000
REMARK  Name = 
REMARK  4 active torsions:
REMARK  status: ('A' for Active; 'I' for Inactive)
REMARK    1  A    between atoms: C_1  and  N_2
REMARK    2  A    between atoms: C_4  and  C_5
REMARK    3  A    between atoms: C_5  and  O_6
REMARK    4  A    between atoms: N_13  and  C_14
REMARK                            x       y       z     vdW  Elec       q    Type
REMARK                         _______ _______ _______ _____ _____    ______ ____
ROOT
ATOM      1  C   UNL     1       5.793  -0.184  25.168  0.00  0.00    +0.173 C 
ATOM      2  N   UNL     1       6.315   0.666  24.122  0.00  0.00    -0.264 N 
ATOM      3  C   UNL     1       7.410   0.452  23.335  0.00  0.00    +0.091 A 
ATOM      4  C   UNL     1       8.367  -0.642  23.286  0.00  0.00    +0.097 A 
ATOM      5  C   UNL     1       9.541  -0.421  22.579  0.00  0.00    -0.001 A 
ATOM      6  C   UNL     1       9.858   0.925  21.975  0.00  0.00    +0.043 C 
ATOM      7  C   UNL     1       8.598   1.693  21.510  0.00  0.00    +0.044 C 
ATOM      8  C   UNL     1      10.404  -1.488  22.547  0.00  0.00    +0.120 A 
ATOM      9  N   UNL     1      10.118  -2.681  23.105  0.00  0.00    -0.222 NA
ATOM     10  C   UNL     1       8.924  -2.814  23.710  0.00  0.00    +0.220 A 
ATOM     11  N   UNL     1       8.645  -4.093  24.193  0.00  0.00    -0.284 N 
ATOM     12  H   UNL     1       9.442  -4.693  24.040  0.00  0.00    +0.155 HD
ATOM     13  N   UNL     1       8.038  -1.807  23.851  0.00  0.00    -0.212 NA
ATOM     14  C   UNL     1       7.515   1.565  22.524  0.00  0.00    +0.014 A 
ATOM     15  C   UNL     1       6.448   2.411  22.883  0.00  0.00    +0.173 A 
ATOM     16  N   UNL     1       5.709   1.861  23.875  0.00  0.00    -0.164 NA
ENDROOT
BRANCH  11  17
ATOM     17  C   UNL     1       7.421  -4.737  24.417  0.00  0.00    +0.034 A 
ATOM     18  C   UNL     1       6.660  -5.169  23.319  0.00  0.00    +0.023 A 
ATOM     19  C   UNL     1       5.485  -5.906  23.501  0.00  0.00    +0.002 A 
ATOM     20  C   UNL     1       5.057  -6.232  24.785  0.00  0.00    +0.000 A 
ATOM     21  C   UNL     1       5.788  -5.798  25.884  0.00  0.00    +0.002 A 
ATOM     22  C   UNL     1       6.957  -5.060  25.695  0.00  0.00    +0.023 A 
ENDBRANCH  11  17
BRANCH  15  23
ATOM     23  C   UNL     1       6.104   3.727  22.336  0.00  0.00    +0.357 C 
ATOM     24  O   UNL     1       6.872   4.676  22.272  0.00  0.00    -0.243 OA
BRANCH  23  25
ATOM     25  O   UNL     1       4.815   3.790  21.904  0.00  0.00    -0.476 OA
ATOM     26  H   UNL     1       4.843   4.264  21.040  0.00  0.00    +0.295 HD
ENDBRANCH  23  25
ENDBRANCH  15  23
TORSDOF 3
ENDMDL
MODEL 2
REMARK VINA RESULT:      -7.4      3.967      7.379
REMARK  Name = 
REMARK  4 active torsions:
REMARK  status: ('A' for Active; 'I' for Inactive)
REMARK    1  A    between atoms: C_1  and  N_2
REMARK    2  A    between atoms: C_4  and  C_5
REMARK    3  A    between atoms: C_5  and  O_6
REMARK    4  A    between atoms: N_13  and  C_14
REMARK                            x       y       z     vdW  Elec       q    Type
REMARK                         _______ _______ _______ _____ _____    ______ ____
ROOT
ATOM      1  C   UNL     1       6.433  -4.447  21.536  0.00  0.00    +0.173 C 
ATOM      2  N   UNL     1       5.599  -5.004  22.577  0.00  0.00    -0.264 N 
ATOM      3  C   UNL     1       5.842  -5.033  23.920  0.00  0.00    +0.091 A 
ATOM      4  C   UNL     1       6.958  -4.540  24.712  0.00  0.00    +0.097 A 
ATOM      5  C   UNL     1       7.048  -4.992  26.022  0.00  0.00    -0.001 A 
ATOM      6  C   UNL     1       6.092  -6.022  26.570  0.00  0.00    +0.043 C 
ATOM      7  C   UNL     1       4.677  -5.929  25.951  0.00  0.00    +0.044 C 
ATOM      8  C   UNL     1       8.107  -4.486  26.734  0.00  0.00    +0.120 A 
ATOM      9  N   UNL     1       8.964  -3.577  26.229  0.00  0.00    -0.222 NA
ATOM     10  C   UNL     1       8.751  -3.154  24.970  0.00  0.00    +0.220 A 
ATOM     11  N   UNL     1       9.616  -2.151  24.529  0.00  0.00    -0.284 N 
ATOM     12  H   UNL     1      10.301  -1.957  25.245  0.00  0.00    +0.155 HD
ATOM     13  N   UNL     1       7.781  -3.639  24.170  0.00  0.00    -0.212 NA
ATOM     14  C   UNL     1       4.773  -5.705  24.482  0.00  0.00    +0.014 A 
ATOM     15  C   UNL     1       3.927  -6.055  23.412  0.00  0.00    +0.173 A 
ATOM     16  N   UNL     1       4.438  -5.629  22.234  0.00  0.00    -0.164 NA
ENDROOT
BRANCH  11  17
ATOM     17  C   UNL     1       9.440  -1.159  23.556  0.00  0.00    +0.034 A 
ATOM     18  C   UNL     1       9.281   0.177  23.956  0.00  0.00    +0.023 A 
ATOM     19  C   UNL     1       9.208   1.208  23.014  0.00  0.00    +0.002 A 
ATOM     20  C   UNL     1       9.302   0.921  21.655  0.00  0.00    +0.000 A 
ATOM     21  C   UNL     1       9.443  -0.396  21.240  0.00  0.00    +0.002 A 
ATOM     22  C   UNL     1       9.512  -1.421  22.184  0.00  0.00    +0.023 A 
ENDBRANCH  11  17
BRANCH  15  23
ATOM     23  C   UNL     1       2.659  -6.788  23.457  0.00  0.00    +0.357 C 
ATOM     24  O   UNL     1       1.559  -6.287  23.274  0.00  0.00    -0.243 OA
BRANCH  23  25
ATOM     25  O   UNL     1       2.832  -8.109  23.736  0.00  0.00    -0.476 OA
ATOM     26  H   UNL     1       1.930  -8.466  23.920  0.00  0.00    +0.295 HD
ENDBRANCH  23  25
ENDBRANCH  15  23
TORSDOF 3
ENDMDL
MODEL 3
REMARK VINA RESULT:      -7.0      1.478      1.754
REMARK  Name = 
REMARK  4 active torsions:
REMARK  status: ('A' for Active; 'I' for Inactive)
REMARK    1  A    between atoms: C_1  and  N_2
REMARK    2  A    between atoms: C_4  and  C_5
REMARK    3  A    between atoms: C_5  and  O_6
REMARK    4  A    between atoms: N_13  and  C_14
REMARK                            x       y       z     vdW  Elec       q    Type
REMARK                         _______ _______ _______ _____ _____    ______ ____
ROOT
ATOM      1  C   UNL     1       7.633   0.203  26.753  0.00  0.00    +0.173 C 
ATOM      2  N   UNL     1       7.737   1.085  25.613  0.00  0.00    -0.264 N 
ATOM      3  C   UNL     1       8.353   0.843  24.418  0.00  0.00    +0.091 A 
ATOM      4  C   UNL     1       9.070  -0.319  23.918  0.00  0.00    +0.097 A 
ATOM      5  C   UNL     1       9.839  -0.141  22.776  0.00  0.00    -0.001 A 
ATOM      6  C   UNL     1      10.003   1.216  22.138  0.00  0.00    +0.043 C 
ATOM      7  C   UNL     1       8.757   2.119  22.299  0.00  0.00    +0.044 C 
ATOM      8  C   UNL     1      10.482  -1.270  22.333  0.00  0.00    +0.120 A 
ATOM      9  N   UNL     1      10.340  -2.474  22.920  0.00  0.00    -0.222 NA
ATOM     10  C   UNL     1       9.520  -2.555  23.984  0.00  0.00    +0.220 A 
ATOM     11  N   UNL     1       9.343  -3.840  24.498  0.00  0.00    -0.284 N 
ATOM     12  H   UNL     1       9.926  -4.490  23.990  0.00  0.00    +0.155 HD
ATOM     13  N   UNL     1       8.896  -1.493  24.532  0.00  0.00    -0.212 NA
ATOM     14  C   UNL     1       8.213   2.003  23.681  0.00  0.00    +0.014 A 
ATOM     15  C   UNL     1       7.505   2.903  24.499  0.00  0.00    +0.173 A 
ATOM     16  N   UNL     1       7.215   2.341  25.696  0.00  0.00    -0.164 NA
ENDROOT
BRANCH  11  17
ATOM     17  C   UNL     1       8.276  -4.397  25.215  0.00  0.00    +0.034 A 
ATOM     18  C   UNL     1       7.104  -4.759  24.533  0.00  0.00    +0.023 A 
ATOM     19  C   UNL     1       6.058  -5.412  25.194  0.00  0.00    +0.002 A 
ATOM     20  C   UNL     1       6.171  -5.722  26.547  0.00  0.00    +0.000 A 
ATOM     21  C   UNL     1       7.317  -5.355  27.241  0.00  0.00    +0.002 A 
ATOM     22  C   UNL     1       8.355  -4.701  26.577  0.00  0.00    +0.023 A 
ENDBRANCH  11  17
BRANCH  15  23
ATOM     23  C   UNL     1       7.101   4.280  24.201  0.00  0.00    +0.357 C 
ATOM     24  O   UNL     1       6.383   4.608  23.268  0.00  0.00    -0.243 OA
BRANCH  23  25
ATOM     25  O   UNL     1       7.624   5.177  25.081  0.00  0.00    -0.476 OA
ATOM     26  H   UNL     1       7.734   4.688  25.931  0.00  0.00    +0.295 HD
ENDBRANCH  23  25
ENDBRANCH  15  23
TORSDOF 3
ENDMDL
MODEL 4
REMARK VINA RESULT:      -6.9      3.896      6.820
REMARK  Name = 
REMARK  4 active torsions:
REMARK  status: ('A' for Active; 'I' for Inactive)
REMARK    1  A    between atoms: C_1  and  N_2
REMARK    2  A    between atoms: C_4  and  C_5
REMARK    3  A    between atoms: C_5  and  O_6
REMARK    4  A    between atoms: N_13  and  C_14
REMARK                            x       y       z     vdW  Elec       q    Type
REMARK                         _______ _______ _______ _____ _____    ______ ____
ROOT
ATOM      1  C   UNL     1       5.511  -1.247  24.661  0.00  0.00    +0.173 C 
ATOM      2  N   UNL     1       5.467  -2.185  25.760  0.00  0.00    -0.264 N 
ATOM      3  C   UNL     1       6.392  -3.134  26.090  0.00  0.00    +0.091 A 
ATOM      4  C   UNL     1       7.661  -3.500  25.481  0.00  0.00    +0.097 A 
ATOM      5  C   UNL     1       8.222  -4.708  25.874  0.00  0.00    -0.001 A 
ATOM      6  C   UNL     1       7.504  -5.645  26.813  0.00  0.00    +0.043 C 
ATOM      7  C   UNL     1       6.617  -4.909  27.846  0.00  0.00    +0.044 C 
ATOM      8  C   UNL     1       9.427  -5.002  25.286  0.00  0.00    +0.120 A 
ATOM      9  N   UNL     1      10.053  -4.164  24.436  0.00  0.00    -0.222 NA
ATOM     10  C   UNL     1       9.456  -2.987  24.170  0.00  0.00    +0.220 A 
ATOM     11  N   UNL     1      10.188  -2.124  23.354  0.00  0.00    -0.284 N 
ATOM     12  H   UNL     1      11.040  -2.579  23.059  0.00  0.00    +0.155 HD
ATOM     13  N   UNL     1       8.245  -2.637  24.646  0.00  0.00    -0.212 NA
ATOM     14  C   UNL     1       5.876  -3.797  27.187  0.00  0.00    +0.014 A 
ATOM     15  C   UNL     1       4.634  -3.193  27.459  0.00  0.00    +0.173 A 
ATOM     16  N   UNL     1       4.375  -2.202  26.575  0.00  0.00    -0.164 NA
ENDROOT
BRANCH  11  17
ATOM     17  C   UNL     1      10.167  -0.727  23.253  0.00  0.00    +0.034 A 
ATOM     18  C   UNL     1      10.588   0.047  24.345  0.00  0.00    +0.023 A 
ATOM     19  C   UNL     1      10.680   1.440  24.249  0.00  0.00    +0.002 A 
ATOM     20  C   UNL     1      10.362   2.080  23.054  0.00  0.00    +0.000 A 
ATOM     21  C   UNL     1       9.928   1.331  21.968  0.00  0.00    +0.002 A 
ATOM     22  C   UNL     1       9.835  -0.057  22.073  0.00  0.00    +0.023 A 
ENDBRANCH  11  17
BRANCH  15  23
ATOM     23  C   UNL     1       3.672  -3.525  28.515  0.00  0.00    +0.357 C 
ATOM     24  O   UNL     1       3.897  -3.438  29.713  0.00  0.00    -0.243 OA
BRANCH  23  25
ATOM     25  O   UNL     1       2.481  -3.956  28.016  0.00  0.00    -0.476 OA
ATOM     26  H   UNL     1       2.416  -4.909  28.263  0.00  0.00    +0.295 HD
ENDBRANCH  23  25
ENDBRANCH  15  23
TORSDOF 3
ENDMDL
MODEL 5
REMARK VINA RESULT:      -6.7      3.305      5.690
REMARK  Name = 
REMARK  4 active torsions:
REMARK  status: ('A' for Active; 'I' for Inactive)
REMARK    1  A    between atoms: C_1  and  N_2
REMARK    2  A    between atoms: C_4  and  C_5
REMARK    3  A    between atoms: C_5  and  O_6
REMARK    4  A    between atoms: N_13  and  C_14
REMARK                            x       y       z     vdW  Elec       q    Type
REMARK                         _______ _______ _______ _____ _____    ______ ____
ROOT
ATOM      1  C   UNL     1       8.692  -4.125  26.570  0.00  0.00    +0.173 C 
ATOM      2  N   UNL     1       8.499  -3.602  25.236  0.00  0.00    -0.264 N 
ATOM      3  C   UNL     1       7.593  -4.010  24.299  0.00  0.00    +0.091 A 
ATOM      4  C   UNL     1       6.575  -5.048  24.325  0.00  0.00    +0.097 A 
ATOM      5  C   UNL     1       6.019  -5.415  23.107  0.00  0.00    -0.001 A 
ATOM      6  C   UNL     1       6.517  -4.838  21.805  0.00  0.00    +0.043 C 
ATOM      7  C   UNL     1       7.023  -3.382  21.940  0.00  0.00    +0.044 C 
ATOM      8  C   UNL     1       5.051  -6.386  23.185  0.00  0.00    +0.120 A 
ATOM      9  N   UNL     1       4.625  -6.906  24.352  0.00  0.00    -0.222 NA
ATOM     10  C   UNL     1       5.182  -6.434  25.483  0.00  0.00    +0.220 A 
ATOM     11  N   UNL     1       4.643  -6.945  26.665  0.00  0.00    -0.284 N 
ATOM     12  H   UNL     1       3.943  -7.639  26.445  0.00  0.00    +0.155 HD
ATOM     13  N   UNL     1       6.183  -5.532  25.506  0.00  0.00    -0.212 NA
ATOM     14  C   UNL     1       7.832  -3.233  23.182  0.00  0.00    +0.014 A 
ATOM     15  C   UNL     1       8.901  -2.381  23.521  0.00  0.00    +0.173 A 
ATOM     16  N   UNL     1       9.319  -2.612  24.786  0.00  0.00    -0.164 NA
ENDROOT
BRANCH  11  17
ATOM     17  C   UNL     1       4.585  -6.396  27.953  0.00  0.00    +0.034 A 
ATOM     18  C   UNL     1       5.623  -6.662  28.860  0.00  0.00    +0.023 A 
ATOM     19  C   UNL     1       5.655  -6.050  30.117  0.00  0.00    +0.002 A 
ATOM     20  C   UNL     1       4.654  -5.155  30.485  0.00  0.00    +0.000 A 
ATOM     21  C   UNL     1       3.611  -4.893  29.606  0.00  0.00    +0.002 A 
ATOM     22  C   UNL     1       3.583  -5.509  28.355  0.00  0.00    +0.023 A 
ENDBRANCH  11  17
BRANCH  15  23
ATOM     23  C   UNL     1       9.553  -1.364  22.690  0.00  0.00    +0.357 C 
ATOM     24  O   UNL     1       9.702  -0.194  23.012  0.00  0.00    -0.243 OA
BRANCH  23  25
ATOM     25  O   UNL     1       9.977  -1.862  21.497  0.00  0.00    -0.476 OA
ATOM     26  H   UNL     1       9.170  -1.942  20.936  0.00  0.00    +0.295 HD
ENDBRANCH  23  25
ENDBRANCH  15  23
TORSDOF 3
ENDMDL
MODEL 6
REMARK VINA RESULT:      -6.5      3.744      6.859
REMARK  Name = 
REMARK  4 active torsions:
REMARK  status: ('A' for Active; 'I' for Inactive)
REMARK    1  A    between atoms: C_1  and  N_2
REMARK    2  A    between atoms: C_4  and  C_5
REMARK    3  A    between atoms: C_5  and  O_6
REMARK    4  A    between atoms: N_13  and  C_14
REMARK                            x       y       z     vdW  Elec       q    Type
REMARK                         _______ _______ _______ _____ _____    ______ ____
ROOT
ATOM      1  C   UNL     1       5.550  -1.543  24.967  0.00  0.00    +0.173 C 
ATOM      2  N   UNL     1       6.893  -2.057  24.819  0.00  0.00    -0.264 N 
ATOM      3  C   UNL     1       7.899  -1.564  24.038  0.00  0.00    +0.091 A 
ATOM      4  C   UNL     1       7.955  -0.420  23.142  0.00  0.00    +0.097 A 
ATOM      5  C   UNL     1       9.027  -0.361  22.262  0.00  0.00    -0.001 A 
ATOM      6  C   UNL     1      10.034  -1.480  22.168  0.00  0.00    +0.043 C 
ATOM      7  C   UNL     1      10.265  -2.205  23.516  0.00  0.00    +0.044 C 
ATOM      8  C   UNL     1       9.046   0.746  21.450  0.00  0.00    +0.120 A 
ATOM      9  N   UNL     1       8.131   1.732  21.532  0.00  0.00    -0.222 NA
ATOM     10  C   UNL     1       7.168   1.612  22.464  0.00  0.00    +0.220 A 
ATOM     11  N   UNL     1       6.301   2.701  22.563  0.00  0.00    -0.284 N 
ATOM     12  H   UNL     1       6.533   3.382  21.854  0.00  0.00    +0.155 HD
ATOM     13  N   UNL     1       7.027   0.534  23.262  0.00  0.00    -0.212 NA
ATOM     14  C   UNL     1       8.965  -2.425  24.210  0.00  0.00    +0.014 A 
ATOM     15  C   UNL     1       8.526  -3.416  25.107  0.00  0.00    +0.173 A 
ATOM     16  N   UNL     1       7.244  -3.196  25.480  0.00  0.00    -0.164 NA
ENDROOT
BRANCH  11  17
ATOM     17  C   UNL     1       5.541   3.167  23.643  0.00  0.00    +0.034 A 
ATOM     18  C   UNL     1       6.151   3.974  24.615  0.00  0.00    +0.023 A 
ATOM     19  C   UNL     1       5.404   4.544  25.652  0.00  0.00    +0.002 A 
ATOM     20  C   UNL     1       4.031   4.322  25.727  0.00  0.00    +0.000 A 
ATOM     21  C   UNL     1       3.414   3.512  24.783  0.00  0.00    +0.002 A 
ATOM     22  C   UNL     1       4.166   2.944  23.754  0.00  0.00    +0.023 A 
ENDBRANCH  11  17
BRANCH  15  23
ATOM     23  C   UNL     1       9.265  -4.575  25.618  0.00  0.00    +0.357 C 
ATOM     24  O   UNL     1       9.838  -5.398  24.919  0.00  0.00    -0.243 OA
BRANCH  23  25
ATOM     25  O   UNL     1       9.243  -4.647  26.977  0.00  0.00    -0.476 OA
ATOM     26  H   UNL     1      10.179  -4.541  27.268  0.00  0.00    +0.295 HD
ENDBRANCH  23  25
ENDBRANCH  15  23
TORSDOF 3
ENDMDL
MODEL 7
REMARK VINA RESULT:      -6.4      4.336      7.554
REMARK  Name = 
REMARK  4 active torsions:
REMARK  status: ('A' for Active; 'I' for Inactive)
REMARK    1  A    between atoms: C_1  and  N_2
REMARK    2  A    between atoms: C_4  and  C_5
REMARK    3  A    between atoms: C_5  and  O_6
REMARK    4  A    between atoms: N_13  and  C_14
REMARK                            x       y       z     vdW  Elec       q    Type
REMARK                         _______ _______ _______ _____ _____    ______ ____
ROOT
ATOM      1  C   UNL     1       5.756  -2.154  27.140  0.00  0.00    +0.173 C 
ATOM      2  N   UNL     1       5.492  -3.559  26.924  0.00  0.00    -0.264 N 
ATOM      3  C   UNL     1       5.486  -4.238  25.739  0.00  0.00    +0.091 A 
ATOM      4  C   UNL     1       5.732  -3.803  24.374  0.00  0.00    +0.097 A 
ATOM      5  C   UNL     1       5.355  -4.672  23.358  0.00  0.00    -0.001 A 
ATOM      6  C   UNL     1       4.634  -5.964  23.651  0.00  0.00    +0.043 C 
ATOM      7  C   UNL     1       5.039  -6.593  25.005  0.00  0.00    +0.044 C 
ATOM      8  C   UNL     1       5.623  -4.225  22.089  0.00  0.00    +0.120 A 
ATOM      9  N   UNL     1       6.255  -3.061  21.838  0.00  0.00    -0.222 NA
ATOM     10  C   UNL     1       6.639  -2.322  22.894  0.00  0.00    +0.220 A 
ATOM     11  N   UNL     1       7.364  -1.172  22.579  0.00  0.00    -0.284 N 
ATOM     12  H   UNL     1       7.424  -1.075  21.575  0.00  0.00    +0.155 HD
ATOM     13  N   UNL     1       6.364  -2.643  24.174  0.00  0.00    -0.212 NA
ATOM     14  C   UNL     1       5.140  -5.538  26.052  0.00  0.00    +0.014 A 
ATOM     15  C   UNL     1       4.947  -5.565  27.447  0.00  0.00    +0.173 A 
ATOM     16  N   UNL     1       5.157  -4.342  27.987  0.00  0.00    -0.164 NA
ENDROOT
BRANCH  11  17
ATOM     17  C   UNL     1       8.306  -0.454  23.327  0.00  0.00    +0.034 A 
ATOM     18  C   UNL     1       9.624  -0.927  23.410  0.00  0.00    +0.023 A 
ATOM     19  C   UNL     1      10.617  -0.187  24.059  0.00  0.00    +0.002 A 
ATOM     20  C   UNL     1      10.310   1.046  24.628  0.00  0.00    +0.000 A 
ATOM     21  C   UNL     1       9.007   1.523  24.571  0.00  0.00    +0.002 A 
ATOM     22  C   UNL     1       8.020   0.777  23.925  0.00  0.00    +0.023 A 
ENDBRANCH  11  17
BRANCH  15  23
ATOM     23  C   UNL     1       4.558  -6.700  28.291  0.00  0.00    +0.357 C 
ATOM     24  O   UNL     1       3.456  -6.842  28.800  0.00  0.00    -0.243 OA
BRANCH  23  25
ATOM     25  O   UNL     1       5.572  -7.592  28.461  0.00  0.00    -0.476 OA
ATOM     26  H   UNL     1       6.352  -7.204  27.998  0.00  0.00    +0.295 HD
ENDBRANCH  23  25
ENDBRANCH  15  23
TORSDOF 3
ENDMDL
MODEL 8
REMARK VINA RESULT:      -6.4      2.716      4.255
REMARK  Name = 
REMARK  4 active torsions:
REMARK  status: ('A' for Active; 'I' for Inactive)
REMARK    1  A    between atoms: C_1  and  N_2
REMARK    2  A    between atoms: C_4  and  C_5
REMARK    3  A    between atoms: C_5  and  O_6
REMARK    4  A    between atoms: N_13  and  C_14
REMARK                            x       y       z     vdW  Elec       q    Type
REMARK                         _______ _______ _______ _____ _____    ______ ____
ROOT
ATOM      1  C   UNL     1      10.107   0.147  22.456  0.00  0.00    +0.173 C 
ATOM      2  N   UNL     1       9.946   1.471  23.014  0.00  0.00    -0.264 N 
ATOM      3  C   UNL     1       8.890   1.955  23.733  0.00  0.00    +0.091 A 
ATOM      4  C   UNL     1       7.643   1.338  24.155  0.00  0.00    +0.097 A 
ATOM      5  C   UNL     1       6.644   2.186  24.614  0.00  0.00    -0.001 A 
ATOM      6  C   UNL     1       6.806   3.685  24.584  0.00  0.00    +0.043 C 
ATOM      7  C   UNL     1       8.270   4.143  24.786  0.00  0.00    +0.044 C 
ATOM      8  C   UNL     1       5.493   1.556  25.016  0.00  0.00    +0.120 A 
ATOM      9  N   UNL     1       5.354   0.215  25.024  0.00  0.00    -0.222 NA
ATOM     10  C   UNL     1       6.406  -0.521  24.622  0.00  0.00    +0.220 A 
ATOM     11  N   UNL     1       6.237  -1.902  24.733  0.00  0.00    -0.284 N 
ATOM     12  H   UNL     1       5.302  -2.104  25.058  0.00  0.00    +0.155 HD
ATOM     13  N   UNL     1       7.552   0.005  24.147  0.00  0.00    -0.212 NA
ATOM     14  C   UNL     1       9.192   3.276  24.002  0.00  0.00    +0.014 A 
ATOM     15  C   UNL     1      10.446   3.517  23.409  0.00  0.00    +0.173 A 
ATOM     16  N   UNL     1      10.911   2.406  22.793  0.00  0.00    -0.164 NA
ENDROOT
BRANCH  11  17
ATOM     17  C   UNL     1       7.180  -2.927  24.890  0.00  0.00    +0.034 A 
ATOM     18  C   UNL     1       7.814  -3.094  26.130  0.00  0.00    +0.023 A 
ATOM     19  C   UNL     1       8.682  -4.167  26.358  0.00  0.00    +0.002 A 
ATOM     20  C   UNL     1       8.923  -5.096  25.350  0.00  0.00    +0.000 A 
ATOM     21  C   UNL     1       8.318  -4.937  24.110  0.00  0.00    +0.002 A 
ATOM     22  C   UNL     1       7.456  -3.863  23.889  0.00  0.00    +0.023 A 
ENDBRANCH  11  17
BRANCH  15  23
ATOM     23  C   UNL     1      11.220   4.763  23.390  0.00  0.00    +0.357 C 
ATOM     24  O   UNL     1      12.397   4.855  23.707  0.00  0.00    -0.243 OA
BRANCH  23  25
ATOM     25  O   UNL     1      10.478   5.829  22.985  0.00  0.00    -0.476 OA
ATOM     26  H   UNL     1      10.332   5.704  22.017  0.00  0.00    +0.295 HD
ENDBRANCH  23  25
ENDBRANCH  15  23
TORSDOF 3
ENDMDL
MODEL 9
REMARK VINA RESULT:      -6.3      2.188      3.186
REMARK  Name = 
REMARK  4 active torsions:
REMARK  status: ('A' for Active; 'I' for Inactive)
REMARK    1  A    between atoms: C_1  and  N_2
REMARK    2  A    between atoms: C_4  and  C_5
REMARK    3  A    between atoms: C_5  and  O_6
REMARK    4  A    between atoms: N_13  and  C_14
REMARK                            x       y       z     vdW  Elec       q    Type
REMARK                         _______ _______ _______ _____ _____    ______ ____
ROOT
ATOM      1  C   UNL     1       5.577  -0.207  24.943  0.00  0.00    +0.173 C 
ATOM      2  N   UNL     1       6.817  -0.106  24.207  0.00  0.00    -0.264 N 
ATOM      3  C   UNL     1       7.718  -1.097  23.941  0.00  0.00    +0.091 A 
ATOM      4  C   UNL     1       7.732  -2.509  24.288  0.00  0.00    +0.097 A 
ATOM      5  C   UNL     1       8.935  -3.185  24.130  0.00  0.00    -0.001 A 
ATOM      6  C   UNL     1      10.195  -2.467  23.712  0.00  0.00    +0.043 C 
ATOM      7  C   UNL     1       9.928  -1.268  22.771  0.00  0.00    +0.044 C 
ATOM      8  C   UNL     1       8.894  -4.518  24.454  0.00  0.00    +0.120 A 
ATOM      9  N   UNL     1       7.767  -5.145  24.840  0.00  0.00    -0.222 NA
ATOM     10  C   UNL     1       6.638  -4.416  24.899  0.00  0.00    +0.220 A 
ATOM     11  N   UNL     1       5.485  -5.134  25.221  0.00  0.00    -0.284 N 
ATOM     12  H   UNL     1       5.728  -6.096  25.409  0.00  0.00    +0.155 HD
ATOM     13  N   UNL     1       6.589  -3.089  24.665  0.00  0.00    -0.212 NA
ATOM     14  C   UNL     1       8.749  -0.493  23.248  0.00  0.00    +0.014 A 
ATOM     15  C   UNL     1       8.400   0.866  23.137  0.00  0.00    +0.173 A 
ATOM     16  N   UNL     1       7.211   1.110  23.735  0.00  0.00    -0.164 NA
ENDROOT
BRANCH  11  17
ATOM     17  C   UNL     1       4.140  -4.884  24.918  0.00  0.00    +0.034 A 
ATOM     18  C   UNL     1       3.617  -5.329  23.695  0.00  0.00    +0.023 A 
ATOM     19  C   UNL     1       2.256  -5.192  23.400  0.00  0.00    +0.002 A 
ATOM     20  C   UNL     1       1.395  -4.615  24.330  0.00  0.00    +0.000 A 
ATOM     21  C   UNL     1       1.899  -4.153  25.539  0.00  0.00    +0.002 A 
ATOM     22  C   UNL     1       3.257  -4.291  25.825  0.00  0.00    +0.023 A 
ENDBRANCH  11  17
BRANCH  15  23
ATOM     23  C   UNL     1       9.153   1.951  22.500  0.00  0.00    +0.357 C 
ATOM     24  O   UNL     1       9.838   2.767  23.099  0.00  0.00    -0.243 OA
BRANCH  23  25
ATOM     25  O   UNL     1       9.003   1.963  21.147  0.00  0.00    -0.476 OA
ATOM     26  H   UNL     1       8.034   2.051  20.985  0.00  0.00    +0.295 HD
ENDBRANCH  23  25
ENDBRANCH  15  23
TORSDOF 3
ENDMDL
