MODEL 1
REMARK VINA RESULT:      -7.0      0.000      0.000
REMARK  Name = 
REMARK  7 active torsions:
REMARK  status: ('A' for Active; 'I' for Inactive)
REMARK    1  A    between atoms: O_1  and  N_2
REMARK    2  A    between atoms: C_3  and  C_5
REMARK    3  A    between atoms: C_5  and  C_6
REMARK    4  A    between atoms: C_6  and  O_7
REMARK    5  A    between atoms: O_7  and  C_8
REMARK    6  A    between atoms: C_11  and  C_14
REMARK    7  A    between atoms: C_17  and  C_20
REMARK                            x       y       z     vdW  Elec       q    Type
REMARK                         _______ _______ _______ _____ _____    ______ ____
ROOT
ATOM      1  C   UNL     1      10.603   2.029  23.420  0.00  0.00    +0.121 A 
ATOM      2  C   UNL     1      10.637   1.154  24.506  0.00  0.00    +0.046 A 
ATOM      3  C   UNL     1      10.056  -0.123  24.414  0.00  0.00    +0.012 A 
ATOM      4  C   UNL     1       9.412  -0.551  23.238  0.00  0.00    -0.018 A 
ATOM      5  C   UNL     1       9.443   0.328  22.146  0.00  0.00    +0.012 A 
ATOM      6  C   UNL     1      10.039   1.589  22.227  0.00  0.00    +0.046 A 
ENDROOT
BRANCH   4   7
ATOM      7  C   UNL     1       8.659  -1.831  23.147  0.00  0.00    -0.018 A 
ATOM      8  C   UNL     1       9.031  -2.959  23.900  0.00  0.00    +0.010 A 
ATOM      9  C   UNL     1       8.251  -4.124  23.911  0.00  0.00    +0.019 A 
ATOM     10  C   UNL     1       7.069  -4.186  23.170  0.00  0.00    +0.052 A 
ATOM     11  C   UNL     1       6.689  -3.092  22.396  0.00  0.00    +0.019 A 
ATOM     12  C   UNL     1       7.484  -1.939  22.375  0.00  0.00    +0.010 A 
BRANCH  10  13
ATOM     13  C   UNL     1       6.248  -5.359  23.216  0.00  0.00    +0.099 C 
ATOM     14  N   UNL     1       5.575  -6.303  23.250  0.00  0.00    -0.191 NA
ENDBRANCH  10  13
ENDBRANCH   4   7
BRANCH   1  15
ATOM     15  O   UNL     1      11.115   3.286  23.624  0.00  0.00    -0.491 OA
BRANCH  15  16
ATOM     16  C   UNL     1      10.134   4.329  23.753  0.00  0.00    +0.238 C 
BRANCH  16  17
ATOM     17  C   UNL     1      10.744   5.688  23.460  0.00  0.00    +0.139 C 
BRANCH  17  20
ATOM     18  N   UNL     1      12.991   5.155  22.808  0.00  0.00    -0.197 N 
ATOM     19  H   UNL     1      12.641   5.138  21.851  0.00  0.00    +0.182 HD
ATOM     20  C   UNL     1      12.212   5.707  23.802  0.00  0.00    +0.239 C 
ATOM     21  O   UNL     1      12.617   6.146  24.874  0.00  0.00    -0.274 OA
BRANCH  18  22
ATOM     22  O   UNL     1      14.385   5.206  23.010  0.00  0.00    -0.295 OA
ATOM     23  H   UNL     1      14.682   5.884  22.379  0.00  0.00    +0.241 HD
ENDBRANCH  18  22
ENDBRANCH  17  20
ENDBRANCH  16  17
ENDBRANCH  15  16
ENDBRANCH   1  15
TORSDOF 7
ENDMDL
MODEL 2
REMARK VINA RESULT:      -6.7      4.718      9.002
REMARK  Name = 
REMARK  7 active torsions:
REMARK  status: ('A' for Active; 'I' for Inactive)
REMARK    1  A    between atoms: O_1  and  N_2
REMARK    2  A    between atoms: C_3  and  C_5
REMARK    3  A    between atoms: C_5  and  C_6
REMARK    4  A    between atoms: C_6  and  O_7
REMARK    5  A    between atoms: O_7  and  C_8
REMARK    6  A    between atoms: C_11  and  C_14
REMARK    7  A    between atoms: C_17  and  C_20
REMARK                            x       y       z     vdW  Elec       q    Type
REMARK                         _______ _______ _______ _____ _____    ______ ____
ROOT
ATOM      1  C   UNL     1       7.850  -4.363  23.446  0.00  0.00    +0.121 A 
ATOM      2  C   UNL     1       7.509  -3.489  22.413  0.00  0.00    +0.046 A 
ATOM      3  C   UNL     1       8.156  -2.247  22.285  0.00  0.00    +0.012 A 
ATOM      4  C   UNL     1       9.148  -1.841  23.197  0.00  0.00    -0.018 A 
ATOM      5  C   UNL     1       9.507  -2.763  24.190  0.00  0.00    +0.012 A 
ATOM      6  C   UNL     1       8.882  -4.007  24.307  0.00  0.00    +0.046 A 
ENDROOT
BRANCH   4   7
ATOM      7  C   UNL     1       9.750  -0.480  23.185  0.00  0.00    -0.018 A 
ATOM      8  C   UNL     1       9.591   0.386  22.089  0.00  0.00    +0.010 A 
ATOM      9  C   UNL     1      10.051   1.710  22.128  0.00  0.00    +0.019 A 
ATOM     10  C   UNL     1      10.676   2.205  23.274  0.00  0.00    +0.052 A 
ATOM     11  C   UNL     1      10.868   1.362  24.365  0.00  0.00    +0.019 A 
ATOM     12  C   UNL     1      10.425   0.034  24.312  0.00  0.00    +0.010 A 
BRANCH  10  13
ATOM     13  C   UNL     1      11.105   3.571  23.331  0.00  0.00    +0.099 C 
ATOM     14  N   UNL     1      11.449   4.677  23.387  0.00  0.00    -0.191 NA
ENDBRANCH  10  13
ENDBRANCH   4   7
BRANCH   1  15
ATOM     15  O   UNL     1       7.109  -5.514  23.549  0.00  0.00    -0.491 OA
BRANCH  15  16
ATOM     16  C   UNL     1       5.742  -5.324  23.951  0.00  0.00    +0.238 C 
BRANCH  16  17
ATOM     17  C   UNL     1       5.664  -4.768  25.362  0.00  0.00    +0.139 C 
BRANCH  17  20
ATOM     18  N   UNL     1       7.100  -5.500  27.139  0.00  0.00    -0.197 N 
ATOM     19  H   UNL     1       7.356  -4.519  27.250  0.00  0.00    +0.182 HD
ATOM     20  C   UNL     1       5.997  -5.828  26.381  0.00  0.00    +0.239 C 
ATOM     21  O   UNL     1       5.349  -6.866  26.464  0.00  0.00    -0.274 OA
BRANCH  18  22
ATOM     22  O   UNL     1       7.434  -6.398  28.172  0.00  0.00    -0.295 OA
ATOM     23  H   UNL     1       7.804  -5.823  28.864  0.00  0.00    +0.241 HD
ENDBRANCH  18  22
ENDBRANCH  17  20
ENDBRANCH  16  17
ENDBRANCH  15  16
ENDBRANCH   1  15
TORSDOF 7
ENDMDL
MODEL 3
REMARK VINA RESULT:      -6.5      4.417      8.990
REMARK  Name = 
REMARK  7 active torsions:
REMARK  status: ('A' for Active; 'I' for Inactive)
REMARK    1  A    between atoms: O_1  and  N_2
REMARK    2  A    between atoms: C_3  and  C_5
REMARK    3  A    between atoms: C_5  and  C_6
REMARK    4  A    between atoms: C_6  and  O_7
REMARK    5  A    between atoms: O_7  and  C_8
REMARK    6  A    between atoms: C_11  and  C_14
REMARK    7  A    between atoms: C_17  and  C_20
REMARK                            x       y       z     vdW  Elec       q    Type
REMARK                         _______ _______ _______ _____ _____    ______ ____
ROOT
ATOM      1  C   UNL     1       9.079  -3.151  25.003  0.00  0.00    +0.121 A 
ATOM      2  C   UNL     1       9.718  -2.637  23.874  0.00  0.00    +0.046 A 
ATOM      3  C   UNL     1       9.926  -1.253  23.738  0.00  0.00    +0.012 A 
ATOM      4  C   UNL     1       9.486  -0.347  24.721  0.00  0.00    -0.018 A 
ATOM      5  C   UNL     1       8.898  -0.897  25.868  0.00  0.00    +0.012 A 
ATOM      6  C   UNL     1       8.709  -2.274  26.017  0.00  0.00    +0.046 A 
ENDROOT
BRANCH   4   7
ATOM      7  C   UNL     1       9.554   1.129  24.548  0.00  0.00    -0.018 A 
ATOM      8  C   UNL     1      10.597   1.740  23.829  0.00  0.00    +0.010 A 
ATOM      9  C   UNL     1      10.595   3.115  23.561  0.00  0.00    +0.019 A 
ATOM     10  C   UNL     1       9.540   3.917  24.000  0.00  0.00    +0.052 A 
ATOM     11  C   UNL     1       8.506   3.343  24.736  0.00  0.00    +0.019 A 
ATOM     12  C   UNL     1       8.524   1.971  25.017  0.00  0.00    +0.010 A 
BRANCH  10  13
ATOM     13  C   UNL     1       9.515   5.315  23.686  0.00  0.00    +0.099 C 
ATOM     14  N   UNL     1       9.492   6.445  23.423  0.00  0.00    -0.191 NA
ENDBRANCH  10  13
ENDBRANCH   4   7
BRANCH   1  15
ATOM     15  O   UNL     1       8.838  -4.503  25.014  0.00  0.00    -0.491 OA
BRANCH  15  16
ATOM     16  C   UNL     1       7.676  -4.919  24.278  0.00  0.00    +0.238 C 
BRANCH  16  17
ATOM     17  C   UNL     1       6.418  -4.753  25.110  0.00  0.00    +0.139 C 
BRANCH  17  20
ATOM     18  N   UNL     1       7.366  -5.580  27.153  0.00  0.00    -0.197 N 
ATOM     19  H   UNL     1       7.780  -4.655  27.260  0.00  0.00    +0.182 HD
ATOM     20  C   UNL     1       6.367  -5.769  26.223  0.00  0.00    +0.239 C 
ATOM     21  O   UNL     1       5.529  -6.665  26.237  0.00  0.00    -0.274 OA
BRANCH  18  22
ATOM     22  O   UNL     1       7.343  -6.436  28.272  0.00  0.00    -0.295 OA
ATOM     23  H   UNL     1       6.483  -6.249  28.685  0.00  0.00    +0.241 HD
ENDBRANCH  18  22
ENDBRANCH  17  20
ENDBRANCH  16  17
ENDBRANCH  15  16
ENDBRANCH   1  15
TORSDOF 7
ENDMDL
MODEL 4
REMARK VINA RESULT:      -6.4      2.854      4.128
REMARK  Name = 
REMARK  7 active torsions:
REMARK  status: ('A' for Active; 'I' for Inactive)
REMARK    1  A    between atoms: O_1  and  N_2
REMARK    2  A    between atoms: C_3  and  C_5
REMARK    3  A    between atoms: C_5  and  C_6
REMARK    4  A    between atoms: C_6  and  O_7
REMARK    5  A    between atoms: O_7  and  C_8
REMARK    6  A    between atoms: C_11  and  C_14
REMARK    7  A    between atoms: C_17  and  C_20
REMARK                            x       y       z     vdW  Elec       q    Type
REMARK                         _______ _______ _______ _____ _____    ______ ____
ROOT
ATOM      1  C   UNL     1       9.700  -1.600  23.031  0.00  0.00    +0.121 A 
ATOM      2  C   UNL     1       9.938  -2.508  24.063  0.00  0.00    +0.046 A 
ATOM      3  C   UNL     1       9.062  -3.586  24.284  0.00  0.00    +0.012 A 
ATOM      4  C   UNL     1       7.916  -3.772  23.488  0.00  0.00    -0.018 A 
ATOM      5  C   UNL     1       7.734  -2.877  22.425  0.00  0.00    +0.012 A 
ATOM      6  C   UNL     1       8.615  -1.818  22.189  0.00  0.00    +0.046 A 
ENDROOT
BRANCH   4   7
ATOM      7  C   UNL     1       6.889  -4.809  23.779  0.00  0.00    -0.018 A 
ATOM      8  C   UNL     1       6.576  -5.186  25.096  0.00  0.00    +0.010 A 
ATOM      9  C   UNL     1       5.523  -6.069  25.376  0.00  0.00    +0.019 A 
ATOM     10  C   UNL     1       4.749  -6.593  24.339  0.00  0.00    +0.052 A 
ATOM     11  C   UNL     1       5.053  -6.255  23.022  0.00  0.00    +0.019 A 
ATOM     12  C   UNL     1       6.118  -5.388  22.749  0.00  0.00    +0.010 A 
BRANCH  10  13
ATOM     13  C   UNL     1       3.645  -7.459  24.627  0.00  0.00    +0.099 C 
ATOM     14  N   UNL     1       2.749  -8.161  24.851  0.00  0.00    -0.191 NA
ENDBRANCH  10  13
ENDBRANCH   4   7
BRANCH   1  15
ATOM     15  O   UNL     1      10.555  -0.530  22.941  0.00  0.00    -0.491 OA
BRANCH  15  16
ATOM     16  C   UNL     1      10.746   0.199  24.165  0.00  0.00    +0.238 C 
BRANCH  16  17
ATOM     17  C   UNL     1      10.716   1.696  23.916  0.00  0.00    +0.139 C 
BRANCH  17  20
ATOM     18  N   UNL     1       9.602   1.982  21.809  0.00  0.00    -0.197 N 
ATOM     19  H   UNL     1      10.293   1.335  21.430  0.00  0.00    +0.182 HD
ATOM     20  C   UNL     1       9.464   2.096  23.176  0.00  0.00    +0.239 C 
ATOM     21  O   UNL     1       8.470   2.503  23.768  0.00  0.00    -0.274 OA
BRANCH  18  22
ATOM     22  O   UNL     1       8.452   2.257  21.043  0.00  0.00    -0.295 OA
ATOM     23  H   UNL     1       8.805   2.705  20.255  0.00  0.00    +0.241 HD
ENDBRANCH  18  22
ENDBRANCH  17  20
ENDBRANCH  16  17
ENDBRANCH  15  16
ENDBRANCH   1  15
TORSDOF 7
ENDMDL
MODEL 5
REMARK VINA RESULT:      -6.4      4.455      8.574
REMARK  Name = 
REMARK  7 active torsions:
REMARK  status: ('A' for Active; 'I' for Inactive)
REMARK    1  A    between atoms: O_1  and  N_2
REMARK    2  A    between atoms: C_3  and  C_5
REMARK    3  A    between atoms: C_5  and  C_6
REMARK    4  A    between atoms: C_6  and  O_7
REMARK    5  A    between atoms: O_7  and  C_8
REMARK    6  A    between atoms: C_11  and  C_14
REMARK    7  A    between atoms: C_17  and  C_20
REMARK                            x       y       z     vdW  Elec       q    Type
REMARK                         _______ _______ _______ _____ _____    ______ ____
ROOT
ATOM      1  C   UNL     1       6.781  -3.728  23.613  0.00  0.00    +0.121 A 
ATOM      2  C   UNL     1       6.229  -2.622  24.259  0.00  0.00    +0.046 A 
ATOM      3  C   UNL     1       6.815  -1.351  24.128  0.00  0.00    +0.012 A 
ATOM      4  C   UNL     1       7.979  -1.157  23.360  0.00  0.00    -0.018 A 
ATOM      5  C   UNL     1       8.478  -2.276  22.679  0.00  0.00    +0.012 A 
ATOM      6  C   UNL     1       7.885  -3.536  22.789  0.00  0.00    +0.046 A 
ENDROOT
BRANCH   4   7
ATOM      7  C   UNL     1       8.713   0.137  23.315  0.00  0.00    -0.018 A 
ATOM      8  C   UNL     1       8.822   0.961  24.449  0.00  0.00    +0.010 A 
ATOM      9  C   UNL     1       9.616   2.117  24.441  0.00  0.00    +0.019 A 
ATOM     10  C   UNL     1      10.330   2.473  23.296  0.00  0.00    +0.052 A 
ATOM     11  C   UNL     1      10.221   1.687  22.151  0.00  0.00    +0.019 A 
ATOM     12  C   UNL     1       9.410   0.545  22.159  0.00  0.00    +0.010 A 
BRANCH  10  13
ATOM     13  C   UNL     1      11.178   3.627  23.301  0.00  0.00    +0.099 C 
ATOM     14  N   UNL     1      11.869   4.559  23.314  0.00  0.00    -0.191 NA
ENDBRANCH  10  13
ENDBRANCH   4   7
BRANCH   1  15
ATOM     15  O   UNL     1       6.198  -4.945  23.865  0.00  0.00    -0.491 OA
BRANCH  15  16
ATOM     16  C   UNL     1       5.369  -4.990  25.039  0.00  0.00    +0.238 C 
BRANCH  16  17
ATOM     17  C   UNL     1       5.922  -5.971  26.057  0.00  0.00    +0.139 C 
BRANCH  17  20
ATOM     18  N   UNL     1       8.274  -5.617  26.379  0.00  0.00    -0.197 N 
ATOM     19  H   UNL     1       8.379  -5.853  25.393  0.00  0.00    +0.182 HD
ATOM     20  C   UNL     1       7.019  -5.339  26.876  0.00  0.00    +0.239 C 
ATOM     21  O   UNL     1       6.773  -4.685  27.885  0.00  0.00    -0.274 OA
BRANCH  18  22
ATOM     22  O   UNL     1       9.355  -4.997  27.037  0.00  0.00    -0.295 OA
ATOM     23  H   UNL     1       9.576  -5.621  27.749  0.00  0.00    +0.241 HD
ENDBRANCH  18  22
ENDBRANCH  17  20
ENDBRANCH  16  17
ENDBRANCH  15  16
ENDBRANCH   1  15
TORSDOF 7
ENDMDL
MODEL 6
REMARK VINA RESULT:      -6.3      1.706      2.329
REMARK  Name = 
REMARK  7 active torsions:
REMARK  status: ('A' for Active; 'I' for Inactive)
REMARK    1  A    between atoms: O_1  and  N_2
REMARK    2  A    between atoms: C_3  and  C_5
REMARK    3  A    between atoms: C_5  and  C_6
REMARK    4  A    between atoms: C_6  and  O_7
REMARK    5  A    between atoms: O_7  and  C_8
REMARK    6  A    between atoms: C_11  and  C_14
REMARK    7  A    between atoms: C_17  and  C_20
REMARK                            x       y       z     vdW  Elec       q    Type
REMARK                         _______ _______ _______ _____ _____    ______ ____
ROOT
ATOM      1  C   UNL     1       8.280   3.657  23.595  0.00  0.00    +0.121 A 
ATOM      2  C   UNL     1       7.671   3.167  22.440  0.00  0.00    +0.046 A 
ATOM      3  C   UNL     1       7.401   1.794  22.301  0.00  0.00    +0.012 A 
ATOM      4  C   UNL     1       7.749   0.874  23.308  0.00  0.00    -0.018 A 
ATOM      5  C   UNL     1       8.309   1.403  24.479  0.00  0.00    +0.012 A 
ATOM      6  C   UNL     1       8.558   2.770  24.629  0.00  0.00    +0.046 A 
ENDROOT
BRANCH   4   7
ATOM      7  C   UNL     1       7.617  -0.599  23.140  0.00  0.00    -0.018 A 
ATOM      8  C   UNL     1       6.424  -1.272  23.459  0.00  0.00    +0.010 A 
ATOM      9  C   UNL     1       6.257  -2.636  23.185  0.00  0.00    +0.019 A 
ATOM     10  C   UNL     1       7.280  -3.363  22.574  0.00  0.00    +0.052 A 
ATOM     11  C   UNL     1       8.481  -2.727  22.268  0.00  0.00    +0.019 A 
ATOM     12  C   UNL     1       8.649  -1.368  22.564  0.00  0.00    +0.010 A 
BRANCH  10  13
ATOM     13  C   UNL     1       7.093  -4.746  22.251  0.00  0.00    +0.099 C 
ATOM     14  N   UNL     1       6.948  -5.866  21.983  0.00  0.00    -0.191 NA
ENDBRANCH  10  13
ENDBRANCH   4   7
BRANCH   1  15
ATOM     15  O   UNL     1       8.587   4.995  23.610  0.00  0.00    -0.491 OA
BRANCH  15  16
ATOM     16  C   UNL     1       9.689   5.356  24.459  0.00  0.00    +0.238 C 
BRANCH  16  17
ATOM     17  C   UNL     1      10.780   6.052  23.665  0.00  0.00    +0.139 C 
BRANCH  17  20
ATOM     18  N   UNL     1      13.143   5.819  23.320  0.00  0.00    -0.197 N 
ATOM     19  H   UNL     1      13.231   6.742  23.742  0.00  0.00    +0.182 HD
ATOM     20  C   UNL     1      11.954   5.133  23.438  0.00  0.00    +0.239 C 
ATOM     21  O   UNL     1      11.810   3.918  23.343  0.00  0.00    -0.274 OA
BRANCH  18  22
ATOM     22  O   UNL     1      14.304   5.031  23.187  0.00  0.00    -0.295 OA
ATOM     23  H   UNL     1      14.902   5.391  23.864  0.00  0.00    +0.241 HD
ENDBRANCH  18  22
ENDBRANCH  17  20
ENDBRANCH  16  17
ENDBRANCH  15  16
ENDBRANCH   1  15
TORSDOF 7
ENDMDL
MODEL 7
REMARK VINA RESULT:      -6.1      4.419      8.975
REMARK  Name = 
REMARK  7 active torsions:
REMARK  status: ('A' for Active; 'I' for Inactive)
REMARK    1  A    between atoms: O_1  and  N_2
REMARK    2  A    between atoms: C_3  and  C_5
REMARK    3  A    between atoms: C_5  and  C_6
REMARK    4  A    between atoms: C_6  and  O_7
REMARK    5  A    between atoms: O_7  and  C_8
REMARK    6  A    between atoms: C_11  and  C_14
REMARK    7  A    between atoms: C_17  and  C_20
REMARK                            x       y       z     vdW  Elec       q    Type
REMARK                         _______ _______ _______ _____ _____    ______ ____
ROOT
ATOM      1  C   UNL     1       8.030  -3.512  24.157  0.00  0.00    +0.121 A 
ATOM      2  C   UNL     1       7.058  -2.531  23.954  0.00  0.00    +0.046 A 
ATOM      3  C   UNL     1       7.421  -1.177  23.841  0.00  0.00    +0.012 A 
ATOM      4  C   UNL     1       8.764  -0.768  23.944  0.00  0.00    -0.018 A 
ATOM      5  C   UNL     1       9.721  -1.781  24.093  0.00  0.00    +0.012 A 
ATOM      6  C   UNL     1       9.367  -3.130  24.183  0.00  0.00    +0.046 A 
ENDROOT
BRANCH   4   7
ATOM      7  C   UNL     1       9.173   0.662  23.978  0.00  0.00    -0.018 A 
ATOM      8  C   UNL     1      10.164   1.164  23.116  0.00  0.00    +0.010 A 
ATOM      9  C   UNL     1      10.462   2.533  23.060  0.00  0.00    +0.019 A 
ATOM     10  C   UNL     1       9.767   3.438  23.864  0.00  0.00    +0.052 A 
ATOM     11  C   UNL     1       8.797   2.965  24.744  0.00  0.00    +0.019 A 
ATOM     12  C   UNL     1       8.519   1.594  24.809  0.00  0.00    +0.010 A 
BRANCH  10  13
ATOM     13  C   UNL     1      10.038   4.842  23.774  0.00  0.00    +0.099 C 
ATOM     14  N   UNL     1      10.250   5.981  23.707  0.00  0.00    -0.191 NA
ENDBRANCH  10  13
ENDBRANCH   4   7
BRANCH   1  15
ATOM     15  O   UNL     1       7.581  -4.795  24.344  0.00  0.00    -0.491 OA
BRANCH  15  16
ATOM     16  C   UNL     1       6.260  -4.903  24.902  0.00  0.00    +0.238 C 
BRANCH  16  17
ATOM     17  C   UNL     1       5.423  -5.902  24.124  0.00  0.00    +0.139 C 
BRANCH  17  20
ATOM     18  N   UNL     1       6.039  -6.157  21.819  0.00  0.00    -0.197 N 
ATOM     19  H   UNL     1       6.366  -7.087  22.076  0.00  0.00    +0.182 HD
ATOM     20  C   UNL     1       5.237  -5.457  22.696  0.00  0.00    +0.239 C 
ATOM     21  O   UNL     1       4.470  -4.546  22.400  0.00  0.00    -0.274 OA
BRANCH  18  22
ATOM     22  O   UNL     1       5.870  -5.862  20.451  0.00  0.00    -0.295 OA
ATOM     23  H   UNL     1       6.290  -6.615  20.002  0.00  0.00    +0.241 HD
ENDBRANCH  18  22
ENDBRANCH  17  20
ENDBRANCH  16  17
ENDBRANCH  15  16
ENDBRANCH   1  15
TORSDOF 7
ENDMDL
MODEL 8
REMARK VINA RESULT:      -6.0      3.044      5.583
REMARK  Name = 
REMARK  7 active torsions:
REMARK  status: ('A' for Active; 'I' for Inactive)
REMARK    1  A    between atoms: O_1  and  N_2
REMARK    2  A    between atoms: C_3  and  C_5
REMARK    3  A    between atoms: C_5  and  C_6
REMARK    4  A    between atoms: C_6  and  O_7
REMARK    5  A    between atoms: O_7  and  C_8
REMARK    6  A    between atoms: C_11  and  C_14
REMARK    7  A    between atoms: C_17  and  C_20
REMARK                            x       y       z     vdW  Elec       q    Type
REMARK                         _______ _______ _______ _____ _____    ______ ____
ROOT
ATOM      1  C   UNL     1       8.956  -3.392  23.943  0.00  0.00    +0.121 A 
ATOM      2  C   UNL     1       8.031  -3.266  22.907  0.00  0.00    +0.046 A 
ATOM      3  C   UNL     1       6.778  -3.900  22.986  0.00  0.00    +0.012 A 
ATOM      4  C   UNL     1       6.426  -4.690  24.096  0.00  0.00    -0.018 A 
ATOM      5  C   UNL     1       7.354  -4.752  25.145  0.00  0.00    +0.012 A 
ATOM      6  C   UNL     1       8.591  -4.105  25.080  0.00  0.00    +0.046 A 
ENDROOT
BRANCH   4   7
ATOM      7  C   UNL     1       5.176  -5.494  24.154  0.00  0.00    -0.018 A 
ATOM      8  C   UNL     1       4.197  -5.407  23.148  0.00  0.00    +0.010 A 
ATOM      9  C   UNL     1       3.080  -6.253  23.136  0.00  0.00    +0.019 A 
ATOM     10  C   UNL     1       2.918  -7.219  24.131  0.00  0.00    +0.052 A 
ATOM     11  C   UNL     1       3.859  -7.311  25.154  0.00  0.00    +0.019 A 
ATOM     12  C   UNL     1       4.963  -6.448  25.170  0.00  0.00    +0.010 A 
BRANCH  10  13
ATOM     13  C   UNL     1       1.800  -8.115  24.095  0.00  0.00    +0.099 C 
ATOM     14  N   UNL     1       0.893  -8.837  24.074  0.00  0.00    -0.191 NA
ENDBRANCH  10  13
ENDBRANCH   4   7
BRANCH   1  15
ATOM     15  O   UNL     1      10.186  -2.814  23.746  0.00  0.00    -0.491 OA
BRANCH  15  16
ATOM     16  C   UNL     1      10.156  -1.519  23.124  0.00  0.00    +0.238 C 
BRANCH  16  17
ATOM     17  C   UNL     1      10.196  -0.415  24.166  0.00  0.00    +0.139 C 
BRANCH  17  20
ATOM     18  N   UNL     1      10.050   0.898  22.163  0.00  0.00    -0.197 N 
ATOM     19  H   UNL     1       9.467   0.149  21.791  0.00  0.00    +0.182 HD
ATOM     20  C   UNL     1      10.314   0.940  23.515  0.00  0.00    +0.239 C 
ATOM     21  O   UNL     1      10.645   1.933  24.154  0.00  0.00    -0.274 OA
BRANCH  18  22
ATOM     22  O   UNL     1      10.057   2.136  21.490  0.00  0.00    -0.295 OA
ATOM     23  H   UNL     1       9.154   2.472  21.621  0.00  0.00    +0.241 HD
ENDBRANCH  18  22
ENDBRANCH  17  20
ENDBRANCH  16  17
ENDBRANCH  15  16
ENDBRANCH   1  15
TORSDOF 7
ENDMDL
MODEL 9
REMARK VINA RESULT:      -6.0      4.887      9.716
REMARK  Name = 
REMARK  7 active torsions:
REMARK  status: ('A' for Active; 'I' for Inactive)
REMARK    1  A    between atoms: O_1  and  N_2
REMARK    2  A    between atoms: C_3  and  C_5
REMARK    3  A    between atoms: C_5  and  C_6
REMARK    4  A    between atoms: C_6  and  O_7
REMARK    5  A    between atoms: O_7  and  C_8
REMARK    6  A    between atoms: C_11  and  C_14
REMARK    7  A    between atoms: C_17  and  C_20
REMARK                            x       y       z     vdW  Elec       q    Type
REMARK                         _______ _______ _______ _____ _____    ______ ____
ROOT
ATOM      1  C   UNL     1       7.380  -4.433  23.387  0.00  0.00    +0.121 A 
ATOM      2  C   UNL     1       7.304  -3.620  22.256  0.00  0.00    +0.046 A 
ATOM      3  C   UNL     1       7.951  -2.371  22.228  0.00  0.00    +0.012 A 
ATOM      4  C   UNL     1       8.676  -1.898  23.338  0.00  0.00    -0.018 A 
ATOM      5  C   UNL     1       8.780  -2.761  24.437  0.00  0.00    +0.012 A 
ATOM      6  C   UNL     1       8.158  -4.012  24.460  0.00  0.00    +0.046 A 
ENDROOT
BRANCH   4   7
ATOM      7  C   UNL     1       9.249  -0.526  23.404  0.00  0.00    -0.018 A 
ATOM      8  C   UNL     1      10.148  -0.152  24.419  0.00  0.00    +0.010 A 
ATOM      9  C   UNL     1      10.783   1.098  24.412  0.00  0.00    +0.019 A 
ATOM     10  C   UNL     1      10.540   2.005  23.379  0.00  0.00    +0.052 A 
ATOM     11  C   UNL     1       9.635   1.670  22.374  0.00  0.00    +0.019 A 
ATOM     12  C   UNL     1       8.989   0.427  22.399  0.00  0.00    +0.010 A 
BRANCH  10  13
ATOM     13  C   UNL     1      11.223   3.264  23.346  0.00  0.00    +0.099 C 
ATOM     14  N   UNL     1      11.768   4.287  23.317  0.00  0.00    -0.191 NA
ENDBRANCH  10  13
ENDBRANCH   4   7
BRANCH   1  15
ATOM     15  O   UNL     1       6.648  -5.594  23.362  0.00  0.00    -0.491 OA
BRANCH  15  16
ATOM     16  C   UNL     1       5.409  -5.516  22.637  0.00  0.00    +0.238 C 
BRANCH  16  17
ATOM     17  C   UNL     1       4.259  -5.167  23.564  0.00  0.00    +0.139 C 
BRANCH  17  20
ATOM     18  N   UNL     1       3.227  -7.334  23.560  0.00  0.00    -0.197 N 
ATOM     19  H   UNL     1       3.918  -7.594  24.263  0.00  0.00    +0.182 HD
ATOM     20  C   UNL     1       3.042  -6.003  23.254  0.00  0.00    +0.239 C 
ATOM     21  O   UNL     1       2.035  -5.511  22.755  0.00  0.00    -0.274 OA
BRANCH  18  22
ATOM     22  O   UNL     1       2.110  -8.174  23.378  0.00  0.00    -0.295 OA
ATOM     23  H   UNL     1       2.061  -8.672  24.212  0.00  0.00    +0.241 HD
ENDBRANCH  18  22
ENDBRANCH  17  20
ENDBRANCH  16  17
ENDBRANCH  15  16
ENDBRANCH   1  15
TORSDOF 7
ENDMDL
