MODEL 1
REMARK VINA RESULT:      -5.3      0.000      0.000
REMARK  Name = 
REMARK  6 active torsions:
REMARK  status: ('A' for Active; 'I' for Inactive)
REMARK    1  A    between atoms: N_1  and  CA_2
REMARK    2  A    between atoms: CA_2  and  CB_4
REMARK    3  A    between atoms: CA_2  and  C_12
REMARK    4  A    between atoms: CB_4  and  CG_5
REMARK    5  A    between atoms: CZ_8  and  OH_9
REMARK    6  A    between atoms: C_12  and  O_13
REMARK                            x       y       z     vdW  Elec       q    Type
REMARK                         _______ _______ _______ _____ _____    ______ ____
ROOT
ATOM      1  CB  TYR A   1       9.931  -2.830  24.080  0.00  0.00    +0.065 C 
ENDROOT
BRANCH   1   2
ATOM      2  CG  TYR A   1       9.887  -1.482  23.395  0.00  0.00    -0.045 A 
ATOM      3  CD2 TYR A   1      10.289  -0.326  24.078  0.00  0.00    +0.007 A 
ATOM      4  CE2 TYR A   1      10.296   0.910  23.431  0.00  0.00    +0.045 A 
ATOM      5  CZ  TYR A   1       9.911   0.993  22.098  0.00  0.00    +0.117 A 
ATOM      6  CE1 TYR A   1       9.493  -0.139  21.407  0.00  0.00    +0.045 A 
ATOM      7  CD1 TYR A   1       9.478  -1.375  22.056  0.00  0.00    +0.007 A 
BRANCH   5   8
ATOM      8  OH  TYR A   1       9.961   2.214  21.497  0.00  0.00    -0.507 OA
ATOM      9  HH  TYR A   1      10.884   2.413  21.271  0.00  0.00    +0.292 HD
ENDBRANCH   5   8
ENDBRANCH   1   2
BRANCH   1  10
ATOM     10  CA  TYR A   1       8.561  -3.530  24.107  0.00  0.00    +0.165 C 
BRANCH  10  11
ATOM     11  N   TYR A   1       7.479  -2.714  24.750  0.00  0.00    -0.318 NA
ATOM     12  H1  TYR A   1       7.922  -2.098  25.440  0.00  0.00    +0.119 HD
ATOM     13  H2  TYR A   1       7.132  -2.065  24.034  0.00  0.00    +0.119 HD
ENDBRANCH  10  11
BRANCH  10  14
ATOM     14  C   TYR A   1       8.657  -4.861  24.870  0.00  0.00    +0.322 C 
ATOM     15  OXT TYR A   1       7.765  -5.380  25.517  0.00  0.00    -0.249 OA
BRANCH  14  16
ATOM     16  O   TYR A   1       9.906  -5.393  24.759  0.00  0.00    -0.480 OA
ATOM     17  H   TYR A   1       9.797  -6.366  24.907  0.00  0.00    +0.295 HD
ENDBRANCH  14  16
ENDBRANCH  10  14
ENDBRANCH   1  10
TORSDOF 6
ENDMDL
MODEL 2
REMARK VINA RESULT:      -5.3      0.099      1.345
REMARK  Name = 
REMARK  6 active torsions:
REMARK  status: ('A' for Active; 'I' for Inactive)
REMARK    1  A    between atoms: N_1  and  CA_2
REMARK    2  A    between atoms: CA_2  and  CB_4
REMARK    3  A    between atoms: CA_2  and  C_12
REMARK    4  A    between atoms: CB_4  and  CG_5
REMARK    5  A    between atoms: CZ_8  and  OH_9
REMARK    6  A    between atoms: C_12  and  O_13
REMARK                            x       y       z     vdW  Elec       q    Type
REMARK                         _______ _______ _______ _____ _____    ______ ____
ROOT
ATOM      1  CB  TYR A   1       9.901  -2.829  24.082  0.00  0.00    +0.065 C 
ENDROOT
BRANCH   1   2
ATOM      2  CG  TYR A   1       9.929  -1.493  23.373  0.00  0.00    -0.045 A 
ATOM      3  CD2 TYR A   1       9.526  -1.393  22.035  0.00  0.00    +0.007 A 
ATOM      4  CE2 TYR A   1       9.505  -0.152  21.396  0.00  0.00    +0.045 A 
ATOM      5  CZ  TYR A   1       9.878   0.990  22.094  0.00  0.00    +0.117 A 
ATOM      6  CE1 TYR A   1      10.296   0.910  23.418  0.00  0.00    +0.045 A 
ATOM      7  CD1 TYR A   1      10.326  -0.332  24.055  0.00  0.00    +0.007 A 
BRANCH   5   8
ATOM      8  OH  TYR A   1       9.814   2.184  21.440  0.00  0.00    -0.507 OA
ATOM      9  HH  TYR A   1       9.879   2.900  22.092  0.00  0.00    +0.292 HD
ENDBRANCH   5   8
ENDBRANCH   1   2
BRANCH   1  10
ATOM     10  CA  TYR A   1       8.511  -3.489  24.058  0.00  0.00    +0.165 C 
BRANCH  10  11
ATOM     11  N   TYR A   1       7.441  -2.664  24.709  0.00  0.00    -0.318 NA
ATOM     12  H1  TYR A   1       7.044  -3.218  25.476  0.00  0.00    +0.119 HD
ATOM     13  H2  TYR A   1       7.914  -1.890  25.189  0.00  0.00    +0.119 HD
ENDBRANCH  10  11
BRANCH  10  14
ATOM     14  C   TYR A   1       8.553  -4.848  24.774  0.00  0.00    +0.322 C 
ATOM     15  OXT TYR A   1       7.625  -5.376  25.360  0.00  0.00    -0.249 OA
BRANCH  14  16
ATOM     16  O   TYR A   1       9.798  -5.396  24.699  0.00  0.00    -0.480 OA
ATOM     17  H   TYR A   1       9.679  -6.271  24.250  0.00  0.00    +0.295 HD
ENDBRANCH  14  16
ENDBRANCH  10  14
ENDBRANCH   1  10
TORSDOF 6
ENDMDL
MODEL 3
REMARK VINA RESULT:      -5.1      2.089      2.495
REMARK  Name = 
REMARK  6 active torsions:
REMARK  status: ('A' for Active; 'I' for Inactive)
REMARK    1  A    between atoms: N_1  and  CA_2
REMARK    2  A    between atoms: CA_2  and  CB_4
REMARK    3  A    between atoms: CA_2  and  C_12
REMARK    4  A    between atoms: CB_4  and  CG_5
REMARK    5  A    between atoms: CZ_8  and  OH_9
REMARK    6  A    between atoms: C_12  and  O_13
REMARK                            x       y       z     vdW  Elec       q    Type
REMARK                         _______ _______ _______ _____ _____    ______ ____
ROOT
ATOM      1  CB  TYR A   1       8.678  -3.902  24.349  0.00  0.00    +0.065 C 
ENDROOT
BRANCH   1   2
ATOM      2  CG  TYR A   1       9.097  -2.451  24.431  0.00  0.00    -0.045 A 
ATOM      3  CD2 TYR A   1       8.726  -1.667  25.532  0.00  0.00    +0.007 A 
ATOM      4  CE2 TYR A   1       9.154  -0.342  25.631  0.00  0.00    +0.045 A 
ATOM      5  CZ  TYR A   1       9.958   0.200  24.635  0.00  0.00    +0.117 A 
ATOM      6  CE1 TYR A   1      10.324  -0.556  23.527  0.00  0.00    +0.045 A 
ATOM      7  CD1 TYR A   1       9.889  -1.879  23.423  0.00  0.00    +0.007 A 
BRANCH   5   8
ATOM      8  OH  TYR A   1      10.377   1.487  24.787  0.00  0.00    -0.507 OA
ATOM      9  HH  TYR A   1       9.706   2.080  24.412  0.00  0.00    +0.292 HD
ENDBRANCH   5   8
ENDBRANCH   1   2
BRANCH   1  10
ATOM     10  CA  TYR A   1       9.030  -4.697  25.618  0.00  0.00    +0.165 C 
BRANCH  10  11
ATOM     11  N   TYR A   1      10.072  -5.753  25.399  0.00  0.00    -0.318 NA
ATOM     12  H1  TYR A   1      10.909  -5.292  25.025  0.00  0.00    +0.119 HD
ATOM     13  H2  TYR A   1      10.369  -6.074  26.328  0.00  0.00    +0.119 HD
ENDBRANCH  10  11
BRANCH  10  14
ATOM     14  C   TYR A   1       7.777  -5.387  26.181  0.00  0.00    +0.322 C 
ATOM     15  OXT TYR A   1       6.707  -5.502  25.609  0.00  0.00    -0.249 OA
BRANCH  14  16
ATOM     16  O   TYR A   1       8.001  -5.840  27.445  0.00  0.00    -0.480 OA
ATOM     17  H   TYR A   1       8.518  -5.126  27.898  0.00  0.00    +0.295 HD
ENDBRANCH  14  16
ENDBRANCH  10  14
ENDBRANCH   1  10
TORSDOF 6
ENDMDL
MODEL 4
REMARK VINA RESULT:      -5.0      1.688      1.997
REMARK  Name = 
REMARK  6 active torsions:
REMARK  status: ('A' for Active; 'I' for Inactive)
REMARK    1  A    between atoms: N_1  and  CA_2
REMARK    2  A    between atoms: CA_2  and  CB_4
REMARK    3  A    between atoms: CA_2  and  C_12
REMARK    4  A    between atoms: CB_4  and  CG_5
REMARK    5  A    between atoms: CZ_8  and  OH_9
REMARK    6  A    between atoms: C_12  and  O_13
REMARK                            x       y       z     vdW  Elec       q    Type
REMARK                         _______ _______ _______ _____ _____    ______ ____
ROOT
ATOM      1  CB  TYR A   1       8.460  -4.000  24.152  0.00  0.00    +0.065 C 
ENDROOT
BRANCH   1   2
ATOM      2  CG  TYR A   1       8.886  -2.648  23.624  0.00  0.00    -0.045 A 
ATOM      3  CD2 TYR A   1       9.562  -1.744  24.454  0.00  0.00    +0.007 A 
ATOM      4  CE2 TYR A   1       9.999  -0.517  23.953  0.00  0.00    +0.045 A 
ATOM      5  CZ  TYR A   1       9.769  -0.194  22.621  0.00  0.00    +0.117 A 
ATOM      6  CE1 TYR A   1       9.086  -1.071  21.785  0.00  0.00    +0.045 A 
ATOM      7  CD1 TYR A   1       8.641  -2.295  22.287  0.00  0.00    +0.007 A 
BRANCH   5   8
ATOM      8  OH  TYR A   1      10.239   1.001  22.167  0.00  0.00    -0.507 OA
ATOM      9  HH  TYR A   1       9.487   1.541  21.875  0.00  0.00    +0.292 HD
ENDBRANCH   5   8
ENDBRANCH   1   2
BRANCH   1  10
ATOM     10  CA  TYR A   1       9.225  -4.414  25.420  0.00  0.00    +0.165 C 
BRANCH  10  11
ATOM     11  N   TYR A   1      10.064  -5.645  25.245  0.00  0.00    -0.318 NA
ATOM     12  H1  TYR A   1       9.615  -6.228  24.530  0.00  0.00    +0.119 HD
ATOM     13  H2  TYR A   1      10.939  -5.346  24.798  0.00  0.00    +0.119 HD
ENDBRANCH  10  11
BRANCH  10  14
ATOM     14  C   TYR A   1       8.244  -4.678  26.573  0.00  0.00    +0.322 C 
ATOM     15  OXT TYR A   1       7.554  -3.843  27.130  0.00  0.00    -0.249 OA
BRANCH  14  16
ATOM     16  O   TYR A   1       8.260  -5.992  26.930  0.00  0.00    -0.480 OA
ATOM     17  H   TYR A   1       7.751  -6.046  27.778  0.00  0.00    +0.295 HD
ENDBRANCH  14  16
ENDBRANCH  10  14
ENDBRANCH   1  10
TORSDOF 6
ENDMDL
MODEL 5
REMARK VINA RESULT:      -5.0      1.968      2.324
REMARK  Name = 
REMARK  6 active torsions:
REMARK  status: ('A' for Active; 'I' for Inactive)
REMARK    1  A    between atoms: N_1  and  CA_2
REMARK    2  A    between atoms: CA_2  and  CB_4
REMARK    3  A    between atoms: CA_2  and  C_12
REMARK    4  A    between atoms: CB_4  and  CG_5
REMARK    5  A    between atoms: CZ_8  and  OH_9
REMARK    6  A    between atoms: C_12  and  O_13
REMARK                            x       y       z     vdW  Elec       q    Type
REMARK                         _______ _______ _______ _____ _____    ______ ____
ROOT
ATOM      1  CB  TYR A   1      10.285  -1.923  22.946  0.00  0.00    +0.065 C 
ENDROOT
BRANCH   1   2
ATOM      2  CG  TYR A   1      10.226  -0.412  22.980  0.00  0.00    -0.045 A 
ATOM      3  CD2 TYR A   1      10.643   0.288  24.120  0.00  0.00    +0.007 A 
ATOM      4  CE2 TYR A   1      10.636   1.683  24.134  0.00  0.00    +0.045 A 
ATOM      5  CZ  TYR A   1      10.221   2.383  23.007  0.00  0.00    +0.117 A 
ATOM      6  CE1 TYR A   1       9.788   1.707  21.871  0.00  0.00    +0.045 A 
ATOM      7  CD1 TYR A   1       9.787   0.311  21.860  0.00  0.00    +0.007 A 
BRANCH   5   8
ATOM      8  OH  TYR A   1      10.258   3.743  23.053  0.00  0.00    -0.507 OA
ATOM      9  HH  TYR A   1       9.426   4.065  23.435  0.00  0.00    +0.292 HD
ENDBRANCH   5   8
ENDBRANCH   1   2
BRANCH   1  10
ATOM     10  CA  TYR A   1       9.277  -2.581  23.904  0.00  0.00    +0.165 C 
BRANCH  10  11
ATOM     11  N   TYR A   1       9.733  -3.905  24.443  0.00  0.00    -0.318 NA
ATOM     12  H1  TYR A   1      10.750  -3.958  24.317  0.00  0.00    +0.119 HD
ATOM     13  H2  TYR A   1       9.618  -3.865  25.462  0.00  0.00    +0.119 HD
ENDBRANCH  10  11
BRANCH  10  14
ATOM     14  C   TYR A   1       7.933  -2.804  23.194  0.00  0.00    +0.322 C 
ATOM     15  OXT TYR A   1       7.673  -3.712  22.425  0.00  0.00    -0.249 OA
BRANCH  14  16
ATOM     16  O   TYR A   1       7.048  -1.819  23.512  0.00  0.00    -0.480 OA
ATOM     17  H   TYR A   1       6.593  -2.124  24.338  0.00  0.00    +0.295 HD
ENDBRANCH  14  16
ENDBRANCH  10  14
ENDBRANCH   1  10
TORSDOF 6
ENDMDL
MODEL 6
REMARK VINA RESULT:      -4.8      2.265      2.625
REMARK  Name = 
REMARK  6 active torsions:
REMARK  status: ('A' for Active; 'I' for Inactive)
REMARK    1  A    between atoms: N_1  and  CA_2
REMARK    2  A    between atoms: CA_2  and  CB_4
REMARK    3  A    between atoms: CA_2  and  C_12
REMARK    4  A    between atoms: CB_4  and  CG_5
REMARK    5  A    between atoms: CZ_8  and  OH_9
REMARK    6  A    between atoms: C_12  and  O_13
REMARK                            x       y       z     vdW  Elec       q    Type
REMARK                         _______ _______ _______ _____ _____    ______ ____
ROOT
ATOM      1  CB  TYR A   1       6.971  -2.374  23.198  0.00  0.00    +0.065 C 
ENDROOT
BRANCH   1   2
ATOM      2  CG  TYR A   1       7.771  -1.166  22.765  0.00  0.00    -0.045 A 
ATOM      3  CD2 TYR A   1       8.979  -1.327  22.073  0.00  0.00    +0.007 A 
ATOM      4  CE2 TYR A   1       9.693  -0.212  21.630  0.00  0.00    +0.045 A 
ATOM      5  CZ  TYR A   1       9.198   1.064  21.871  0.00  0.00    +0.117 A 
ATOM      6  CE1 TYR A   1       8.010   1.246  22.571  0.00  0.00    +0.045 A 
ATOM      7  CD1 TYR A   1       7.300   0.131  23.021  0.00  0.00    +0.007 A 
BRANCH   5   8
ATOM      8  OH  TYR A   1       9.912   2.123  21.396  0.00  0.00    -0.507 OA
ATOM      9  HH  TYR A   1       9.344   2.641  20.803  0.00  0.00    +0.292 HD
ENDBRANCH   5   8
ENDBRANCH   1   2
BRANCH   1  10
ATOM     10  CA  TYR A   1       6.847  -3.436  22.091  0.00  0.00    +0.165 C 
BRANCH  10  11
ATOM     11  N   TYR A   1       5.443  -3.641  21.607  0.00  0.00    -0.318 NA
ATOM     12  H1  TYR A   1       4.861  -2.901  22.016  0.00  0.00    +0.119 HD
ATOM     13  H2  TYR A   1       5.440  -3.424  20.604  0.00  0.00    +0.119 HD
ENDBRANCH  10  11
BRANCH  10  14
ATOM     14  C   TYR A   1       7.372  -4.791  22.591  0.00  0.00    +0.322 C 
ATOM     15  OXT TYR A   1       7.862  -5.009  23.685  0.00  0.00    -0.249 OA
BRANCH  14  16
ATOM     16  O   TYR A   1       7.249  -5.743  21.625  0.00  0.00    -0.480 OA
ATOM     17  H   TYR A   1       6.649  -5.353  20.940  0.00  0.00    +0.295 HD
ENDBRANCH  14  16
ENDBRANCH  10  14
ENDBRANCH   1  10
TORSDOF 6
ENDMDL
MODEL 7
REMARK VINA RESULT:      -4.8      2.114      5.789
REMARK  Name = 
REMARK  6 active torsions:
REMARK  status: ('A' for Active; 'I' for Inactive)
REMARK    1  A    between atoms: N_1  and  CA_2
REMARK    2  A    between atoms: CA_2  and  CB_4
REMARK    3  A    between atoms: CA_2  and  C_12
REMARK    4  A    between atoms: CB_4  and  CG_5
REMARK    5  A    between atoms: CZ_8  and  OH_9
REMARK    6  A    between atoms: C_12  and  O_13
REMARK                            x       y       z     vdW  Elec       q    Type
REMARK                         _______ _______ _______ _____ _____    ______ ____
ROOT
ATOM      1  CB  TYR A   1       8.121  -3.087  22.890  0.00  0.00    +0.065 C 
ENDROOT
BRANCH   1   2
ATOM      2  CG  TYR A   1       8.010  -3.828  24.204  0.00  0.00    -0.045 A 
ATOM      3  CD2 TYR A   1       6.833  -4.513  24.534  0.00  0.00    +0.007 A 
ATOM      4  CE2 TYR A   1       6.748  -5.238  25.724  0.00  0.00    +0.045 A 
ATOM      5  CZ  TYR A   1       7.840  -5.285  26.582  0.00  0.00    +0.117 A 
ATOM      6  CE1 TYR A   1       9.012  -4.598  26.281  0.00  0.00    +0.045 A 
ATOM      7  CD1 TYR A   1       9.094  -3.867  25.095  0.00  0.00    +0.007 A 
BRANCH   5   8
ATOM      8  OH  TYR A   1       7.724  -6.028  27.718  0.00  0.00    -0.507 OA
ATOM      9  HH  TYR A   1       6.834  -5.902  28.083  0.00  0.00    +0.292 HD
ENDBRANCH   5   8
ENDBRANCH   1   2
BRANCH   1  10
ATOM     10  CA  TYR A   1       8.421  -1.590  23.072  0.00  0.00    +0.165 C 
BRANCH  10  11
ATOM     11  N   TYR A   1       7.228  -0.705  22.861  0.00  0.00    -0.318 NA
ATOM     12  H1  TYR A   1       7.320   0.098  23.493  0.00  0.00    +0.119 HD
ATOM     13  H2  TYR A   1       7.328  -0.290  21.927  0.00  0.00    +0.119 HD
ENDBRANCH  10  11
BRANCH  10  14
ATOM     14  C   TYR A   1       9.514  -1.141  22.089  0.00  0.00    +0.322 C 
ATOM     15  OXT TYR A   1       9.385  -0.311  21.207  0.00  0.00    -0.249 OA
BRANCH  14  16
ATOM     16  O   TYR A   1      10.672  -1.825  22.308  0.00  0.00    -0.480 OA
ATOM     17  H   TYR A   1      11.248  -1.214  22.833  0.00  0.00    +0.295 HD
ENDBRANCH  14  16
ENDBRANCH  10  14
ENDBRANCH   1  10
TORSDOF 6
ENDMDL
MODEL 8
REMARK VINA RESULT:      -4.8      2.287      5.490
REMARK  Name = 
REMARK  6 active torsions:
REMARK  status: ('A' for Active; 'I' for Inactive)
REMARK    1  A    between atoms: N_1  and  CA_2
REMARK    2  A    between atoms: CA_2  and  CB_4
REMARK    3  A    between atoms: CA_2  and  C_12
REMARK    4  A    between atoms: CB_4  and  CG_5
REMARK    5  A    between atoms: CZ_8  and  OH_9
REMARK    6  A    between atoms: C_12  and  O_13
REMARK                            x       y       z     vdW  Elec       q    Type
REMARK                         _______ _______ _______ _____ _____    ______ ____
ROOT
ATOM      1  CB  TYR A   1      10.260  -0.279  22.341  0.00  0.00    +0.065 C 
ENDROOT
BRANCH   1   2
ATOM      2  CG  TYR A   1       9.493  -1.494  22.812  0.00  0.00    -0.045 A 
ATOM      3  CD2 TYR A   1       8.341  -1.913  22.132  0.00  0.00    +0.007 A 
ATOM      4  CE2 TYR A   1       7.662  -3.063  22.537  0.00  0.00    +0.045 A 
ATOM      5  CZ  TYR A   1       8.135  -3.800  23.616  0.00  0.00    +0.117 A 
ATOM      6  CE1 TYR A   1       9.267  -3.393  24.314  0.00  0.00    +0.045 A 
ATOM      7  CD1 TYR A   1       9.942  -2.238  23.915  0.00  0.00    +0.007 A 
BRANCH   5   8
ATOM      8  OH  TYR A   1       7.458  -4.932  23.959  0.00  0.00    -0.507 OA
ATOM      9  HH  TYR A   1       6.701  -4.686  24.514  0.00  0.00    +0.292 HD
ENDBRANCH   5   8
ENDBRANCH   1   2
BRANCH   1  10
ATOM     10  CA  TYR A   1       9.540   1.042  22.660  0.00  0.00    +0.165 C 
BRANCH  10  11
ATOM     11  N   TYR A   1       9.423   1.965  21.483  0.00  0.00    -0.318 NA
ATOM     12  H1  TYR A   1       8.433   2.009  21.218  0.00  0.00    +0.119 HD
ATOM     13  H2  TYR A   1       9.622   2.912  21.828  0.00  0.00    +0.119 HD
ENDBRANCH  10  11
BRANCH  10  14
ATOM     14  C   TYR A   1      10.281   1.798  23.774  0.00  0.00    +0.322 C 
ATOM     15  OXT TYR A   1      10.997   2.772  23.623  0.00  0.00    -0.249 OA
BRANCH  14  16
ATOM     16  O   TYR A   1      10.060   1.214  24.984  0.00  0.00    -0.480 OA
ATOM     17  H   TYR A   1      10.693   0.453  25.034  0.00  0.00    +0.295 HD
ENDBRANCH  14  16
ENDBRANCH  10  14
ENDBRANCH   1  10
TORSDOF 6
ENDMDL
MODEL 9
REMARK VINA RESULT:      -4.8      2.177      5.611
REMARK  Name = 
REMARK  6 active torsions:
REMARK  status: ('A' for Active; 'I' for Inactive)
REMARK    1  A    between atoms: N_1  and  CA_2
REMARK    2  A    between atoms: CA_2  and  CB_4
REMARK    3  A    between atoms: CA_2  and  C_12
REMARK    4  A    between atoms: CB_4  and  CG_5
REMARK    5  A    between atoms: CZ_8  and  OH_9
REMARK    6  A    between atoms: C_12  and  O_13
REMARK                            x       y       z     vdW  Elec       q    Type
REMARK                         _______ _______ _______ _____ _____    ______ ____
ROOT
ATOM      1  CB  TYR A   1       8.753  -0.864  24.325  0.00  0.00    +0.065 C 
ENDROOT
BRANCH   1   2
ATOM      2  CG  TYR A   1       8.603  -2.231  24.956  0.00  0.00    -0.045 A 
ATOM      3  CD2 TYR A   1       9.393  -3.303  24.521  0.00  0.00    +0.007 A 
ATOM      4  CE2 TYR A   1       9.289  -4.551  25.137  0.00  0.00    +0.045 A 
ATOM      5  CZ  TYR A   1       8.403  -4.729  26.192  0.00  0.00    +0.117 A 
ATOM      6  CE1 TYR A   1       7.598  -3.681  26.629  0.00  0.00    +0.045 A 
ATOM      7  CD1 TYR A   1       7.695  -2.435  26.008  0.00  0.00    +0.007 A 
BRANCH   5   8
ATOM      8  OH  TYR A   1       8.355  -5.955  26.783  0.00  0.00    -0.507 OA
ATOM      9  HH  TYR A   1       8.759  -6.605  26.186  0.00  0.00    +0.292 HD
ENDBRANCH   5   8
ENDBRANCH   1   2
BRANCH   1  10
ATOM     10  CA  TYR A   1      10.145  -0.642  23.708  0.00  0.00    +0.165 C 
BRANCH  10  11
ATOM     11  N   TYR A   1      10.891   0.515  24.304  0.00  0.00    -0.318 NA
ATOM     12  H1  TYR A   1      10.850   0.419  25.325  0.00  0.00    +0.119 HD
ATOM     13  H2  TYR A   1      11.884   0.370  24.088  0.00  0.00    +0.119 HD
ENDBRANCH  10  11
BRANCH  10  14
ATOM     14  C   TYR A   1      10.025  -0.390  22.197  0.00  0.00    +0.322 C 
ATOM     15  OXT TYR A   1       9.790   0.682  21.667  0.00  0.00    -0.249 OA
BRANCH  14  16
ATOM     16  O   TYR A   1      10.186  -1.549  21.500  0.00  0.00    -0.480 OA
ATOM     17  H   TYR A   1      10.036  -2.278  22.153  0.00  0.00    +0.295 HD
ENDBRANCH  14  16
ENDBRANCH  10  14
ENDBRANCH   1  10
TORSDOF 6
ENDMDL
