MODEL 1
REMARK VINA RESULT:      -7.0      0.000      0.000
REMARK  Name = 
REMARK  9 active torsions:
REMARK  status: ('A' for Active; 'I' for Inactive)
REMARK    1  A    between atoms: O_1  and  C_2
REMARK    2  A    between atoms: C_2  and  C_4
REMARK    3  A    between atoms: C_4  and  O_5
REMARK    4  A    between atoms: O_5  and  C_6
REMARK    5  A    between atoms: C_7  and  C_25
REMARK    6  A    between atoms: C_9  and  C_12
REMARK    7  A    between atoms: C_16  and  N_17
REMARK    8  A    between atoms: N_17  and  C_18
REMARK    9  A    between atoms: C_25  and  O_26
REMARK                            x       y       z     vdW  Elec       q    Type
REMARK                         _______ _______ _______ _____ _____    ______ ____
ROOT
ATOM      1  C   UNL     1       7.316  -3.323  24.289  0.00  0.00    +0.157 A 
ATOM      2  C   UNL     1       7.894  -2.077  24.723  0.00  0.00    +0.075 A 
ATOM      3 BR   UNL     1       7.737  -1.403  26.503  0.00  0.00    -0.045 Br
ATOM      4  C   UNL     1       8.492  -1.364  23.700  0.00  0.00    +0.038 A 
ATOM      5  S   UNL     1       8.311  -2.212  22.216  0.00  0.00    -0.077 S 
ATOM      6  C   UNL     1       7.350  -3.449  22.911  0.00  0.00    +0.139 A 
ENDROOT
BRANCH   4   7
ATOM      7  C   UNL     1       9.186  -0.059  23.693  0.00  0.00    -0.008 A 
ATOM      8  C   UNL     1       8.544   1.089  23.192  0.00  0.00    +0.032 A 
ATOM      9  C   UNL     1       9.169   2.337  23.143  0.00  0.00    +0.028 A 
ATOM     10  C   UNL     1      10.450   2.445  23.696  0.00  0.00    +0.023 A 
ATOM     11  C   UNL     1      11.108   1.332  24.217  0.00  0.00    +0.002 A 
ATOM     12  C   UNL     1      10.493   0.080  24.181  0.00  0.00    +0.009 A 
BRANCH   9  13
ATOM     13  N   UNL     1       8.582   3.450  22.565  0.00  0.00    -0.341 N 
ATOM     14  H   UNL     1       9.199   4.027  22.008  0.00  0.00    +0.146 HD
BRANCH  13  15
ATOM     15  C   UNL     1       7.334   4.068  23.020  0.00  0.00    +0.070 C 
ATOM     16  C   UNL     1       7.108   5.382  22.256  0.00  0.00    +0.022 C 
ATOM     17  C   UNL     1       8.154   6.447  22.593  0.00  0.00    +0.002 C 
ATOM     18  C   UNL     1       8.258   6.689  24.096  0.00  0.00    +0.000 C 
ATOM     19  C   UNL     1       8.422   5.398  24.895  0.00  0.00    +0.002 C 
ATOM     20  C   UNL     1       7.366   4.356  24.527  0.00  0.00    +0.022 C 
ENDBRANCH  13  15
ENDBRANCH   9  13
ENDBRANCH   4   7
BRANCH   6  21
ATOM     21  C   UNL     1       6.751  -4.418  21.999  0.00  0.00    +0.347 C 
ATOM     22  O   UNL     1       7.177  -5.537  21.754  0.00  0.00    -0.244 OA
BRANCH  21  23
ATOM     23  O   UNL     1       5.631  -3.955  21.383  0.00  0.00    -0.477 OA
ATOM     24  H   UNL     1       5.339  -4.496  20.621  0.00  0.00    +0.295 HD
ENDBRANCH  21  23
ENDBRANCH   6  21
BRANCH   1  25
ATOM     25  O   UNL     1       6.683  -4.285  25.020  0.00  0.00    -0.478 OA
BRANCH  25  26
ATOM     26  C   UNL     1       7.531  -5.341  25.465  0.00  0.00    +0.349 C 
BRANCH  26  27
ATOM     27  C   UNL     1       7.948  -5.167  26.912  0.00  0.00    +0.343 C 
ATOM     28  O   UNL     1       7.218  -5.357  27.871  0.00  0.00    -0.247 OA
BRANCH  27  29
ATOM     29  O   UNL     1       9.237  -4.772  27.045  0.00  0.00    -0.478 OA
ATOM     30  H   UNL     1       9.904  -5.432  26.781  0.00  0.00    +0.295 HD
ENDBRANCH  27  29
ENDBRANCH  26  27
ENDBRANCH  25  26
ENDBRANCH   1  25
TORSDOF 9
ENDMDL
MODEL 2
REMARK VINA RESULT:      -7.0      1.821      2.250
REMARK  Name = 
REMARK  9 active torsions:
REMARK  status: ('A' for Active; 'I' for Inactive)
REMARK    1  A    between atoms: O_1  and  C_2
REMARK    2  A    between atoms: C_2  and  C_4
REMARK    3  A    between atoms: C_4  and  O_5
REMARK    4  A    between atoms: O_5  and  C_6
REMARK    5  A    between atoms: C_7  and  C_25
REMARK    6  A    between atoms: C_9  and  C_12
REMARK    7  A    between atoms: C_16  and  N_17
REMARK    8  A    between atoms: N_17  and  C_18
REMARK    9  A    between atoms: C_25  and  O_26
REMARK                            x       y       z     vdW  Elec       q    Type
REMARK                         _______ _______ _______ _____ _____    ______ ____
ROOT
ATOM      1  C   UNL     1       6.675  -4.665  24.358  0.00  0.00    +0.157 A 
ATOM      2  C   UNL     1       7.497  -3.485  24.271  0.00  0.00    +0.075 A 
ATOM      3 BR   UNL     1       8.659  -2.903  25.669  0.00  0.00    -0.045 Br
ATOM      4  C   UNL     1       7.289  -2.756  23.113  0.00  0.00    +0.038 A 
ATOM      5  S   UNL     1       6.070  -3.508  22.162  0.00  0.00    -0.077 S 
ATOM      6  C   UNL     1       5.745  -4.716  23.333  0.00  0.00    +0.139 A 
ENDROOT
BRANCH   4   7
ATOM      7  C   UNL     1       7.898  -1.500  22.627  0.00  0.00    -0.008 A 
ATOM      8  C   UNL     1       7.320  -0.257  22.944  0.00  0.00    +0.032 A 
ATOM      9  C   UNL     1       7.847   0.953  22.485  0.00  0.00    +0.028 A 
ATOM     10  C   UNL     1       9.040   0.909  21.756  0.00  0.00    +0.023 A 
ATOM     11  C   UNL     1       9.648  -0.305  21.439  0.00  0.00    +0.002 A 
ATOM     12  C   UNL     1       9.059  -1.504  21.840  0.00  0.00    +0.009 A 
BRANCH   9  13
ATOM     13  N   UNL     1       7.234   2.173  22.713  0.00  0.00    -0.341 N 
ATOM     14  H   UNL     1       7.120   2.762  21.897  0.00  0.00    +0.146 HD
BRANCH  13  15
ATOM     15  C   UNL     1       7.140   2.832  24.018  0.00  0.00    +0.070 C 
ATOM     16  C   UNL     1       6.482   4.211  23.847  0.00  0.00    +0.022 C 
ATOM     17  C   UNL     1       7.348   5.181  23.041  0.00  0.00    +0.002 C 
ATOM     18  C   UNL     1       8.755   5.305  23.619  0.00  0.00    +0.000 C 
ATOM     19  C   UNL     1       9.418   3.950  23.861  0.00  0.00    +0.002 C 
ATOM     20  C   UNL     1       8.522   3.006  24.661  0.00  0.00    +0.022 C 
ENDBRANCH  13  15
ENDBRANCH   9  13
ENDBRANCH   4   7
BRANCH   6  21
ATOM     21  C   UNL     1       4.604  -5.592  23.086  0.00  0.00    +0.347 C 
ATOM     22  O   UNL     1       3.507  -5.247  22.674  0.00  0.00    -0.244 OA
BRANCH  21  23
ATOM     23  O   UNL     1       4.851  -6.894  23.386  0.00  0.00    -0.477 OA
ATOM     24  H   UNL     1       4.351  -7.535  22.839  0.00  0.00    +0.295 HD
ENDBRANCH  21  23
ENDBRANCH   6  21
BRANCH   1  25
ATOM     25  O   UNL     1       6.635  -5.623  25.327  0.00  0.00    -0.478 OA
BRANCH  25  26
ATOM     26  C   UNL     1       5.907  -5.252  26.495  0.00  0.00    +0.349 C 
BRANCH  26  27
ATOM     27  C   UNL     1       6.703  -5.491  27.763  0.00  0.00    +0.343 C 
ATOM     28  O   UNL     1       6.279  -5.305  28.892  0.00  0.00    -0.247 OA
BRANCH  27  29
ATOM     29  O   UNL     1       7.957  -5.941  27.520  0.00  0.00    -0.478 OA
ATOM     30  H   UNL     1       8.025  -6.643  26.848  0.00  0.00    +0.295 HD
ENDBRANCH  27  29
ENDBRANCH  26  27
ENDBRANCH  25  26
ENDBRANCH   1  25
TORSDOF 9
ENDMDL
MODEL 3
REMARK VINA RESULT:      -6.8      2.184      3.317
REMARK  Name = 
REMARK  9 active torsions:
REMARK  status: ('A' for Active; 'I' for Inactive)
REMARK    1  A    between atoms: O_1  and  C_2
REMARK    2  A    between atoms: C_2  and  C_4
REMARK    3  A    between atoms: C_4  and  O_5
REMARK    4  A    between atoms: O_5  and  C_6
REMARK    5  A    between atoms: C_7  and  C_25
REMARK    6  A    between atoms: C_9  and  C_12
REMARK    7  A    between atoms: C_16  and  N_17
REMARK    8  A    between atoms: N_17  and  C_18
REMARK    9  A    between atoms: C_25  and  O_26
REMARK                            x       y       z     vdW  Elec       q    Type
REMARK                         _______ _______ _______ _____ _____    ______ ____
ROOT
ATOM      1  C   UNL     1       6.830  -4.552  24.556  0.00  0.00    +0.157 A 
ATOM      2  C   UNL     1       6.895  -3.566  23.509  0.00  0.00    +0.075 A 
ATOM      3 BR   UNL     1       6.021  -3.757  21.822  0.00  0.00    -0.045 Br
ATOM      4  C   UNL     1       7.736  -2.507  23.803  0.00  0.00    +0.038 A 
ATOM      5  S   UNL     1       8.459  -2.749  25.344  0.00  0.00    -0.077 S 
ATOM      6  C   UNL     1       7.751  -4.295  25.557  0.00  0.00    +0.139 A 
ENDROOT
BRANCH   4   7
ATOM      7  C   UNL     1       8.100  -1.302  23.028  0.00  0.00    -0.008 A 
ATOM      8  C   UNL     1       7.351  -0.118  23.156  0.00  0.00    +0.032 A 
ATOM      9  C   UNL     1       7.644   1.037  22.425  0.00  0.00    +0.028 A 
ATOM     10  C   UNL     1       8.777   1.018  21.604  0.00  0.00    +0.023 A 
ATOM     11  C   UNL     1       9.550  -0.134  21.468  0.00  0.00    +0.002 A 
ATOM     12  C   UNL     1       9.191  -1.298  22.147  0.00  0.00    +0.009 A 
BRANCH   9  13
ATOM     13  N   UNL     1       6.858   2.175  22.473  0.00  0.00    -0.341 N 
ATOM     14  H   UNL     1       6.701   2.633  21.583  0.00  0.00    +0.146 HD
BRANCH  13  15
ATOM     15  C   UNL     1       6.615   2.974  23.676  0.00  0.00    +0.070 C 
ATOM     16  C   UNL     1       5.943   4.299  23.282  0.00  0.00    +0.022 C 
ATOM     17  C   UNL     1       6.861   5.203  22.458  0.00  0.00    +0.002 C 
ATOM     18  C   UNL     1       8.199   5.444  23.153  0.00  0.00    +0.000 C 
ATOM     19  C   UNL     1       8.868   4.151  23.615  0.00  0.00    +0.002 C 
ATOM     20  C   UNL     1       7.919   3.271  24.428  0.00  0.00    +0.022 C 
ENDBRANCH  13  15
ENDBRANCH   9  13
ENDBRANCH   4   7
BRANCH   6  21
ATOM     21  C   UNL     1       8.186  -5.072  26.714  0.00  0.00    +0.347 C 
ATOM     22  O   UNL     1       7.491  -5.827  27.378  0.00  0.00    -0.244 OA
BRANCH  21  23
ATOM     23  O   UNL     1       9.489  -4.868  27.039  0.00  0.00    -0.477 OA
ATOM     24  H   UNL     1       9.955  -4.234  26.456  0.00  0.00    +0.295 HD
ENDBRANCH  21  23
ENDBRANCH   6  21
BRANCH   1  25
ATOM     25  O   UNL     1       6.089  -5.695  24.624  0.00  0.00    -0.478 OA
BRANCH  25  26
ATOM     26  C   UNL     1       4.812  -5.535  25.236  0.00  0.00    +0.349 C 
BRANCH  26  27
ATOM     27  C   UNL     1       4.317  -6.822  25.867  0.00  0.00    +0.343 C 
ATOM     28  O   UNL     1       3.356  -7.461  25.473  0.00  0.00    -0.247 OA
BRANCH  27  29
ATOM     29  O   UNL     1       5.061  -7.206  26.933  0.00  0.00    -0.478 OA
ATOM     30  H   UNL     1       4.556  -7.547  27.693  0.00  0.00    +0.295 HD
ENDBRANCH  27  29
ENDBRANCH  26  27
ENDBRANCH  25  26
ENDBRANCH   1  25
TORSDOF 9
ENDMDL
MODEL 4
REMARK VINA RESULT:      -6.5      1.825      3.667
REMARK  Name = 
REMARK  9 active torsions:
REMARK  status: ('A' for Active; 'I' for Inactive)
REMARK    1  A    between atoms: O_1  and  C_2
REMARK    2  A    between atoms: C_2  and  C_4
REMARK    3  A    between atoms: C_4  and  O_5
REMARK    4  A    between atoms: O_5  and  C_6
REMARK    5  A    between atoms: C_7  and  C_25
REMARK    6  A    between atoms: C_9  and  C_12
REMARK    7  A    between atoms: C_16  and  N_17
REMARK    8  A    between atoms: N_17  and  C_18
REMARK    9  A    between atoms: C_25  and  O_26
REMARK                            x       y       z     vdW  Elec       q    Type
REMARK                         _______ _______ _______ _____ _____    ______ ____
ROOT
ATOM      1  C   UNL     1       7.823  -3.797  24.334  0.00  0.00    +0.157 A 
ATOM      2  C   UNL     1       8.271  -2.552  23.763  0.00  0.00    +0.075 A 
ATOM      3 BR   UNL     1       8.578  -2.295  21.897  0.00  0.00    -0.045 Br
ATOM      4  C   UNL     1       8.553  -1.584  24.711  0.00  0.00    +0.038 A 
ATOM      5  S   UNL     1       8.298  -2.221  26.288  0.00  0.00    -0.077 S 
ATOM      6  C   UNL     1       7.931  -3.794  25.714  0.00  0.00    +0.139 A 
ENDROOT
BRANCH   4   7
ATOM      7  C   UNL     1       9.038  -0.194  24.575  0.00  0.00    -0.008 A 
ATOM      8  C   UNL     1       8.161   0.889  24.767  0.00  0.00    +0.032 A 
ATOM      9  C   UNL     1       8.569   2.218  24.624  0.00  0.00    +0.028 A 
ATOM     10  C   UNL     1       9.923   2.459  24.364  0.00  0.00    +0.023 A 
ATOM     11  C   UNL     1      10.821   1.408  24.186  0.00  0.00    +0.002 A 
ATOM     12  C   UNL     1      10.373   0.089  24.254  0.00  0.00    +0.009 A 
BRANCH   9  13
ATOM     13  N   UNL     1       7.694   3.287  24.717  0.00  0.00    -0.341 N 
ATOM     14  H   UNL     1       6.955   3.185  25.401  0.00  0.00    +0.146 HD
BRANCH  13  15
ATOM     15  C   UNL     1       7.492   4.296  23.674  0.00  0.00    +0.070 C 
ATOM     16  C   UNL     1       6.312   5.200  24.062  0.00  0.00    +0.022 C 
ATOM     17  C   UNL     1       4.976   4.454  24.072  0.00  0.00    +0.002 C 
ATOM     18  C   UNL     1       4.714   3.734  22.752  0.00  0.00    +0.000 C 
ATOM     19  C   UNL     1       5.892   2.872  22.303  0.00  0.00    +0.002 C 
ATOM     20  C   UNL     1       7.209   3.648  22.312  0.00  0.00    +0.022 C 
ENDBRANCH  13  15
ENDBRANCH   9  13
ENDBRANCH   4   7
BRANCH   6  21
ATOM     21  C   UNL     1       7.776  -4.847  26.713  0.00  0.00    +0.347 C 
ATOM     22  O   UNL     1       7.160  -4.758  27.764  0.00  0.00    -0.244 OA
BRANCH  21  23
ATOM     23  O   UNL     1       8.422  -5.996  26.387  0.00  0.00    -0.477 OA
ATOM     24  H   UNL     1       9.260  -6.140  26.874  0.00  0.00    +0.295 HD
ENDBRANCH  21  23
ENDBRANCH   6  21
BRANCH   1  25
ATOM     25  O   UNL     1       7.430  -4.943  23.709  0.00  0.00    -0.478 OA
BRANCH  25  26
ATOM     26  C   UNL     1       6.044  -4.991  23.379  0.00  0.00    +0.349 C 
BRANCH  26  27
ATOM     27  C   UNL     1       5.818  -5.125  21.886  0.00  0.00    +0.343 C 
ATOM     28  O   UNL     1       5.703  -4.186  21.116  0.00  0.00    -0.247 OA
BRANCH  27  29
ATOM     29  O   UNL     1       5.756  -6.415  21.477  0.00  0.00    -0.478 OA
ATOM     30  H   UNL     1       4.869  -6.732  21.229  0.00  0.00    +0.295 HD
ENDBRANCH  27  29
ENDBRANCH  26  27
ENDBRANCH  25  26
ENDBRANCH   1  25
TORSDOF 9
ENDMDL
MODEL 5
REMARK VINA RESULT:      -6.4      2.561      3.604
REMARK  Name = 
REMARK  9 active torsions:
REMARK  status: ('A' for Active; 'I' for Inactive)
REMARK    1  A    between atoms: O_1  and  C_2
REMARK    2  A    between atoms: C_2  and  C_4
REMARK    3  A    between atoms: C_4  and  O_5
REMARK    4  A    between atoms: O_5  and  C_6
REMARK    5  A    between atoms: C_7  and  C_25
REMARK    6  A    between atoms: C_9  and  C_12
REMARK    7  A    between atoms: C_16  and  N_17
REMARK    8  A    between atoms: N_17  and  C_18
REMARK    9  A    between atoms: C_25  and  O_26
REMARK                            x       y       z     vdW  Elec       q    Type
REMARK                         _______ _______ _______ _____ _____    ______ ____
ROOT
ATOM      1  C   UNL     1       5.614  -5.877  25.087  0.00  0.00    +0.157 A 
ATOM      2  C   UNL     1       6.708  -4.955  25.258  0.00  0.00    +0.075 A 
ATOM      3 BR   UNL     1       7.730  -4.814  26.864  0.00  0.00    -0.045 Br
ATOM      4  C   UNL     1       6.883  -4.107  24.179  0.00  0.00    +0.038 A 
ATOM      5  S   UNL     1       5.690  -4.429  22.984  0.00  0.00    -0.077 S 
ATOM      6  C   UNL     1       4.885  -5.598  23.945  0.00  0.00    +0.139 A 
ENDROOT
BRANCH   4   7
ATOM      7  C   UNL     1       7.858  -3.022  23.936  0.00  0.00    -0.008 A 
ATOM      8  C   UNL     1       7.426  -1.689  23.813  0.00  0.00    +0.032 A 
ATOM      9  C   UNL     1       8.309  -0.635  23.558  0.00  0.00    +0.028 A 
ATOM     10  C   UNL     1       9.676  -0.929  23.513  0.00  0.00    +0.023 A 
ATOM     11  C   UNL     1      10.139  -2.237  23.649  0.00  0.00    +0.002 A 
ATOM     12  C   UNL     1       9.231  -3.282  23.822  0.00  0.00    +0.009 A 
BRANCH   9  13
ATOM     13  N   UNL     1       7.885   0.664  23.341  0.00  0.00    -0.341 N 
ATOM     14  H   UNL     1       7.037   0.932  23.826  0.00  0.00    +0.146 HD
BRANCH  13  15
ATOM     15  C   UNL     1       8.280   1.493  22.200  0.00  0.00    +0.070 C 
ATOM     16  C   UNL     1       9.593   2.222  22.530  0.00  0.00    +0.022 C 
ATOM     17  C   UNL     1       9.430   3.249  23.653  0.00  0.00    +0.002 C 
ATOM     18  C   UNL     1       8.304   4.237  23.364  0.00  0.00    +0.000 C 
ATOM     19  C   UNL     1       6.998   3.550  22.971  0.00  0.00    +0.002 C 
ATOM     20  C   UNL     1       7.200   2.527  21.854  0.00  0.00    +0.022 C 
ENDBRANCH  13  15
ENDBRANCH   9  13
ENDBRANCH   4   7
BRANCH   6  21
ATOM     21  C   UNL     1       3.618  -6.117  23.438  0.00  0.00    +0.347 C 
ATOM     22  O   UNL     1       2.736  -5.466  22.899  0.00  0.00    -0.244 OA
BRANCH  21  23
ATOM     23  O   UNL     1       3.466  -7.453  23.639  0.00  0.00    -0.477 OA
ATOM     24  H   UNL     1       3.118  -7.689  24.523  0.00  0.00    +0.295 HD
ENDBRANCH  21  23
ENDBRANCH   6  21
BRANCH   1  25
ATOM     25  O   UNL     1       5.177  -6.865  25.920  0.00  0.00    -0.478 OA
BRANCH  25  26
ATOM     26  C   UNL     1       4.478  -6.400  27.072  0.00  0.00    +0.349 C 
BRANCH  26  27
ATOM     27  C   UNL     1       4.881  -7.153  28.325  0.00  0.00    +0.343 C 
ATOM     28  O   UNL     1       6.032  -7.395  28.648  0.00  0.00    -0.247 OA
BRANCH  27  29
ATOM     29  O   UNL     1       3.818  -7.538  29.071  0.00  0.00    -0.478 OA
ATOM     30  H   UNL     1       3.825  -7.234  29.997  0.00  0.00    +0.295 HD
ENDBRANCH  27  29
ENDBRANCH  26  27
ENDBRANCH  25  26
ENDBRANCH   1  25
TORSDOF 9
ENDMDL
MODEL 6
REMARK VINA RESULT:      -6.4      2.778      4.464
REMARK  Name = 
REMARK  9 active torsions:
REMARK  status: ('A' for Active; 'I' for Inactive)
REMARK    1  A    between atoms: O_1  and  C_2
REMARK    2  A    between atoms: C_2  and  C_4
REMARK    3  A    between atoms: C_4  and  O_5
REMARK    4  A    between atoms: O_5  and  C_6
REMARK    5  A    between atoms: C_7  and  C_25
REMARK    6  A    between atoms: C_9  and  C_12
REMARK    7  A    between atoms: C_16  and  N_17
REMARK    8  A    between atoms: N_17  and  C_18
REMARK    9  A    between atoms: C_25  and  O_26
REMARK                            x       y       z     vdW  Elec       q    Type
REMARK                         _______ _______ _______ _____ _____    ______ ____
ROOT
ATOM      1  C   UNL     1       5.845  -5.680  25.428  0.00  0.00    +0.157 A 
ATOM      2  C   UNL     1       6.484  -4.903  24.397  0.00  0.00    +0.075 A 
ATOM      3 BR   UNL     1       6.414  -5.351  22.542  0.00  0.00    -0.045 Br
ATOM      4  C   UNL     1       7.240  -3.854  24.889  0.00  0.00    +0.038 A 
ATOM      5  S   UNL     1       7.183  -3.851  26.607  0.00  0.00    -0.077 S 
ATOM      6  C   UNL     1       6.263  -5.294  26.690  0.00  0.00    +0.139 A 
ENDROOT
BRANCH   4   7
ATOM      7  C   UNL     1       8.054  -2.830  24.202  0.00  0.00    -0.008 A 
ATOM      8  C   UNL     1       7.481  -1.606  23.811  0.00  0.00    +0.032 A 
ATOM      9  C   UNL     1       8.206  -0.619  23.137  0.00  0.00    +0.028 A 
ATOM     10  C   UNL     1       9.571  -0.843  22.930  0.00  0.00    +0.023 A 
ATOM     11  C   UNL     1      10.175  -2.037  23.321  0.00  0.00    +0.002 A 
ATOM     12  C   UNL     1       9.411  -3.039  23.920  0.00  0.00    +0.009 A 
BRANCH   9  13
ATOM     13  N   UNL     1       7.629   0.547  22.665  0.00  0.00    -0.341 N 
ATOM     14  H   UNL     1       8.044   0.928  21.824  0.00  0.00    +0.146 HD
BRANCH  13  15
ATOM     15  C   UNL     1       6.810   1.459  23.467  0.00  0.00    +0.070 C 
ATOM     16  C   UNL     1       6.385   2.657  22.602  0.00  0.00    +0.022 C 
ATOM     17  C   UNL     1       7.568   3.537  22.193  0.00  0.00    +0.002 C 
ATOM     18  C   UNL     1       8.390   3.986  23.398  0.00  0.00    +0.000 C 
ATOM     19  C   UNL     1       8.778   2.828  24.315  0.00  0.00    +0.002 C 
ATOM     20  C   UNL     1       7.574   1.967  24.697  0.00  0.00    +0.022 C 
ENDBRANCH  13  15
ENDBRANCH   9  13
ENDBRANCH   4   7
BRANCH   6  21
ATOM     21  C   UNL     1       6.049  -5.871  28.014  0.00  0.00    +0.347 C 
ATOM     22  O   UNL     1       6.157  -5.286  29.081  0.00  0.00    -0.244 OA
BRANCH  21  23
ATOM     23  O   UNL     1       5.725  -7.190  27.980  0.00  0.00    -0.477 OA
ATOM     24  H   UNL     1       4.820  -7.374  27.653  0.00  0.00    +0.295 HD
ENDBRANCH  21  23
ENDBRANCH   6  21
BRANCH   1  25
ATOM     25  O   UNL     1       5.010  -6.752  25.313  0.00  0.00    -0.478 OA
BRANCH  25  26
ATOM     26  C   UNL     1       3.627  -6.417  25.227  0.00  0.00    +0.349 C 
BRANCH  26  27
ATOM     27  C   UNL     1       3.015  -6.854  23.911  0.00  0.00    +0.343 C 
ATOM     28  O   UNL     1       2.665  -6.094  23.024  0.00  0.00    -0.247 OA
BRANCH  27  29
ATOM     29  O   UNL     1       2.892  -8.200  23.810  0.00  0.00    -0.478 OA
ATOM     30  H   UNL     1       2.891  -8.552  22.901  0.00  0.00    +0.295 HD
ENDBRANCH  27  29
ENDBRANCH  26  27
ENDBRANCH  25  26
ENDBRANCH   1  25
TORSDOF 9
ENDMDL
MODEL 7
REMARK VINA RESULT:      -6.3      1.339      2.025
REMARK  Name = 
REMARK  9 active torsions:
REMARK  status: ('A' for Active; 'I' for Inactive)
REMARK    1  A    between atoms: O_1  and  C_2
REMARK    2  A    between atoms: C_2  and  C_4
REMARK    3  A    between atoms: C_4  and  O_5
REMARK    4  A    between atoms: O_5  and  C_6
REMARK    5  A    between atoms: C_7  and  C_25
REMARK    6  A    between atoms: C_9  and  C_12
REMARK    7  A    between atoms: C_16  and  N_17
REMARK    8  A    between atoms: N_17  and  C_18
REMARK    9  A    between atoms: C_25  and  O_26
REMARK                            x       y       z     vdW  Elec       q    Type
REMARK                         _______ _______ _______ _____ _____    ______ ____
ROOT
ATOM      1  C   UNL     1       6.884  -3.324  24.152  0.00  0.00    +0.157 A 
ATOM      2  C   UNL     1       7.426  -2.070  24.610  0.00  0.00    +0.075 A 
ATOM      3 BR   UNL     1       6.938  -1.251  26.265  0.00  0.00    -0.045 Br
ATOM      4  C   UNL     1       8.261  -1.463  23.689  0.00  0.00    +0.038 A 
ATOM      5  S   UNL     1       8.347  -2.419  22.263  0.00  0.00    -0.077 S 
ATOM      6  C   UNL     1       7.198  -3.560  22.824  0.00  0.00    +0.139 A 
ENDROOT
BRANCH   4   7
ATOM      7  C   UNL     1       9.009  -0.190  23.738  0.00  0.00    -0.008 A 
ATOM      8  C   UNL     1       8.441   0.993  23.228  0.00  0.00    +0.032 A 
ATOM      9  C   UNL     1       9.122   2.213  23.231  0.00  0.00    +0.028 A 
ATOM     10  C   UNL     1      10.379   2.256  23.844  0.00  0.00    +0.023 A 
ATOM     11  C   UNL     1      10.963   1.107  24.375  0.00  0.00    +0.002 A 
ATOM     12  C   UNL     1      10.297  -0.116  24.288  0.00  0.00    +0.009 A 
BRANCH   9  13
ATOM     13  N   UNL     1       8.611   3.360  22.647  0.00  0.00    -0.341 N 
ATOM     14  H   UNL     1       9.277   3.917  22.128  0.00  0.00    +0.146 HD
BRANCH  13  15
ATOM     15  C   UNL     1       7.372   4.025  23.057  0.00  0.00    +0.070 C 
ATOM     16  C   UNL     1       7.238   5.360  22.305  0.00  0.00    +0.022 C 
ATOM     17  C   UNL     1       8.313   6.372  22.706  0.00  0.00    +0.002 C 
ATOM     18  C   UNL     1       8.361   6.588  24.216  0.00  0.00    +0.000 C 
ATOM     19  C   UNL     1       8.431   5.279  24.999  0.00  0.00    +0.002 C 
ATOM     20  C   UNL     1       7.349   4.290  24.568  0.00  0.00    +0.022 C 
ENDBRANCH  13  15
ENDBRANCH   9  13
ENDBRANCH   4   7
BRANCH   6  21
ATOM     21  C   UNL     1       6.750  -4.575  21.876  0.00  0.00    +0.347 C 
ATOM     22  O   UNL     1       7.232  -5.688  21.731  0.00  0.00    -0.244 OA
BRANCH  21  23
ATOM     23  O   UNL     1       5.713  -4.165  21.099  0.00  0.00    -0.477 OA
ATOM     24  H   UNL     1       4.907  -3.922  21.600  0.00  0.00    +0.295 HD
ENDBRANCH  21  23
ENDBRANCH   6  21
BRANCH   1  25
ATOM     25  O   UNL     1       6.063  -4.200  24.798  0.00  0.00    -0.478 OA
BRANCH  25  26
ATOM     26  C   UNL     1       4.674  -3.896  24.691  0.00  0.00    +0.349 C 
BRANCH  26  27
ATOM     27  C   UNL     1       3.870  -5.077  24.183  0.00  0.00    +0.343 C 
ATOM     28  O   UNL     1       3.610  -6.071  24.840  0.00  0.00    -0.247 OA
BRANCH  27  29
ATOM     29  O   UNL     1       3.456  -4.920  22.903  0.00  0.00    -0.478 OA
ATOM     30  H   UNL     1       2.887  -5.631  22.558  0.00  0.00    +0.295 HD
ENDBRANCH  27  29
ENDBRANCH  26  27
ENDBRANCH  25  26
ENDBRANCH   1  25
TORSDOF 9
ENDMDL
MODEL 8
REMARK VINA RESULT:      -6.3      1.772      2.507
REMARK  Name = 
REMARK  9 active torsions:
REMARK  status: ('A' for Active; 'I' for Inactive)
REMARK    1  A    between atoms: O_1  and  C_2
REMARK    2  A    between atoms: C_2  and  C_4
REMARK    3  A    between atoms: C_4  and  O_5
REMARK    4  A    between atoms: O_5  and  C_6
REMARK    5  A    between atoms: C_7  and  C_25
REMARK    6  A    between atoms: C_9  and  C_12
REMARK    7  A    between atoms: C_16  and  N_17
REMARK    8  A    between atoms: N_17  and  C_18
REMARK    9  A    between atoms: C_25  and  O_26
REMARK                            x       y       z     vdW  Elec       q    Type
REMARK                         _______ _______ _______ _____ _____    ______ ____
ROOT
ATOM      1  C   UNL     1       7.143  -4.414  24.080  0.00  0.00    +0.157 A 
ATOM      2  C   UNL     1       7.877  -3.336  24.692  0.00  0.00    +0.075 A 
ATOM      3 BR   UNL     1       8.442  -3.345  26.516  0.00  0.00    -0.045 Br
ATOM      4  C   UNL     1       8.048  -2.245  23.858  0.00  0.00    +0.038 A 
ATOM      5  S   UNL     1       7.281  -2.540  22.348  0.00  0.00    -0.077 S 
ATOM      6  C   UNL     1       6.635  -4.048  22.845  0.00  0.00    +0.139 A 
ENDROOT
BRANCH   4   7
ATOM      7  C   UNL     1       8.718  -0.945  24.074  0.00  0.00    -0.008 A 
ATOM      8  C   UNL     1       7.962   0.213  24.334  0.00  0.00    +0.032 A 
ATOM      9  C   UNL     1       8.551   1.467  24.519  0.00  0.00    +0.028 A 
ATOM     10  C   UNL     1       9.949   1.534  24.526  0.00  0.00    +0.023 A 
ATOM     11  C   UNL     1      10.728   0.403  24.289  0.00  0.00    +0.002 A 
ATOM     12  C   UNL     1      10.113  -0.822  24.027  0.00  0.00    +0.009 A 
BRANCH   9  13
ATOM     13  N   UNL     1       7.814   2.627  24.680  0.00  0.00    -0.341 N 
ATOM     14  H   UNL     1       6.983   2.538  25.252  0.00  0.00    +0.146 HD
BRANCH  13  15
ATOM     15  C   UNL     1       7.882   3.792  23.795  0.00  0.00    +0.070 C 
ATOM     16  C   UNL     1       6.939   4.887  24.318  0.00  0.00    +0.022 C 
ATOM     17  C   UNL     1       5.465   4.485  24.233  0.00  0.00    +0.002 C 
ATOM     18  C   UNL     1       5.074   4.042  22.826  0.00  0.00    +0.000 C 
ATOM     19  C   UNL     1       6.027   2.998  22.248  0.00  0.00    +0.002 C 
ATOM     20  C   UNL     1       7.489   3.429  22.357  0.00  0.00    +0.022 C 
ENDBRANCH  13  15
ENDBRANCH   9  13
ENDBRANCH   4   7
BRANCH   6  21
ATOM     21  C   UNL     1       5.703  -4.705  21.934  0.00  0.00    +0.347 C 
ATOM     22  O   UNL     1       5.943  -5.061  20.790  0.00  0.00    -0.244 OA
BRANCH  21  23
ATOM     23  O   UNL     1       4.466  -4.883  22.467  0.00  0.00    -0.477 OA
ATOM     24  H   UNL     1       4.327  -4.429  23.323  0.00  0.00    +0.295 HD
ENDBRANCH  21  23
ENDBRANCH   6  21
BRANCH   1  25
ATOM     25  O   UNL     1       6.820  -5.638  24.585  0.00  0.00    -0.478 OA
BRANCH  25  26
ATOM     26  C   UNL     1       5.775  -5.619  25.555  0.00  0.00    +0.349 C 
BRANCH  26  27
ATOM     27  C   UNL     1       4.820  -6.785  25.386  0.00  0.00    +0.343 C 
ATOM     28  O   UNL     1       4.516  -7.281  24.314  0.00  0.00    -0.247 OA
BRANCH  27  29
ATOM     29  O   UNL     1       4.326  -7.236  26.565  0.00  0.00    -0.478 OA
ATOM     30  H   UNL     1       3.422  -7.595  26.528  0.00  0.00    +0.295 HD
ENDBRANCH  27  29
ENDBRANCH  26  27
ENDBRANCH  25  26
ENDBRANCH   1  25
TORSDOF 9
ENDMDL
MODEL 9
REMARK VINA RESULT:      -6.3      5.315      8.907
REMARK  Name = 
REMARK  9 active torsions:
REMARK  status: ('A' for Active; 'I' for Inactive)
REMARK    1  A    between atoms: O_1  and  C_2
REMARK    2  A    between atoms: C_2  and  C_4
REMARK    3  A    between atoms: C_4  and  O_5
REMARK    4  A    between atoms: O_5  and  C_6
REMARK    5  A    between atoms: C_7  and  C_25
REMARK    6  A    between atoms: C_9  and  C_12
REMARK    7  A    between atoms: C_16  and  N_17
REMARK    8  A    between atoms: N_17  and  C_18
REMARK    9  A    between atoms: C_25  and  O_26
REMARK                            x       y       z     vdW  Elec       q    Type
REMARK                         _______ _______ _______ _____ _____    ______ ____
ROOT
ATOM      1  C   UNL     1       9.295   4.925  24.039  0.00  0.00    +0.157 A 
ATOM      2  C   UNL     1       8.770   3.608  23.782  0.00  0.00    +0.075 A 
ATOM      3 BR   UNL     1       6.958   3.109  24.119  0.00  0.00    -0.045 Br
ATOM      4  C   UNL     1       9.731   2.707  23.360  0.00  0.00    +0.038 A 
ATOM      5  S   UNL     1      11.269   3.475  23.314  0.00  0.00    -0.077 S 
ATOM      6  C   UNL     1      10.676   4.948  23.959  0.00  0.00    +0.139 A 
ENDROOT
BRANCH   4   7
ATOM      7  C   UNL     1       9.640   1.276  23.000  0.00  0.00    -0.008 A 
ATOM      8  C   UNL     1       9.527   0.294  24.002  0.00  0.00    +0.032 A 
ATOM      9  C   UNL     1       9.463  -1.071  23.709  0.00  0.00    +0.028 A 
ATOM     10  C   UNL     1       9.426  -1.447  22.362  0.00  0.00    +0.023 A 
ATOM     11  C   UNL     1       9.518  -0.498  21.345  0.00  0.00    +0.002 A 
ATOM     12  C   UNL     1       9.662   0.853  21.664  0.00  0.00    +0.009 A 
BRANCH   9  13
ATOM     13  N   UNL     1       9.447  -2.050  24.688  0.00  0.00    -0.341 N 
ATOM     14  H   UNL     1      10.089  -2.819  24.544  0.00  0.00    +0.146 HD
BRANCH  13  15
ATOM     15  C   UNL     1       8.344  -2.279  25.624  0.00  0.00    +0.070 C 
ATOM     16  C   UNL     1       8.629  -3.545  26.448  0.00  0.00    +0.022 C 
ATOM     17  C   UNL     1       8.618  -4.816  25.596  0.00  0.00    +0.002 C 
ATOM     18  C   UNL     1       7.328  -4.955  24.793  0.00  0.00    +0.000 C 
ATOM     19  C   UNL     1       6.979  -3.691  24.009  0.00  0.00    +0.002 C 
ATOM     20  C   UNL     1       7.007  -2.442  24.889  0.00  0.00    +0.022 C 
ENDBRANCH  13  15
ENDBRANCH   9  13
ENDBRANCH   4   7
BRANCH   6  21
ATOM     21  C   UNL     1      11.662   5.970  24.297  0.00  0.00    +0.347 C 
ATOM     22  O   UNL     1      11.537   6.838  25.148  0.00  0.00    -0.244 OA
BRANCH  21  23
ATOM     23  O   UNL     1      12.788   5.903  23.539  0.00  0.00    -0.477 OA
ATOM     24  H   UNL     1      12.936   6.685  22.968  0.00  0.00    +0.295 HD
ENDBRANCH  21  23
ENDBRANCH   6  21
BRANCH   1  25
ATOM     25  O   UNL     1       8.641   6.055  24.431  0.00  0.00    -0.478 OA
BRANCH  25  26
ATOM     26  C   UNL     1       8.362   6.972  23.376  0.00  0.00    +0.349 C 
BRANCH  26  27
ATOM     27  C   UNL     1       7.162   6.546  22.553  0.00  0.00    +0.343 C 
ATOM     28  O   UNL     1       6.016   6.509  22.969  0.00  0.00    -0.247 OA
BRANCH  27  29
ATOM     29  O   UNL     1       7.489   6.203  21.284  0.00  0.00    -0.478 OA
ATOM     30  H   UNL     1       8.262   5.618  21.196  0.00  0.00    +0.295 HD
ENDBRANCH  27  29
ENDBRANCH  26  27
ENDBRANCH  25  26
ENDBRANCH   1  25
TORSDOF 9
ENDMDL
