MODEL 1
REMARK VINA RESULT:      -7.1      0.000      0.000
REMARK  Name = 
REMARK  7 active torsions:
REMARK  status: ('A' for Active; 'I' for Inactive)
REMARK    1  A    between atoms: C_1  and  N_2
REMARK    2  A    between atoms: N_5  and  C_6
REMARK    3  A    between atoms: C_6  and  C_7
REMARK    4  A    between atoms: C_7  and  N_8
REMARK    5  A    between atoms: C_12  and  N_13
REMARK    6  A    between atoms: N_13  and  C_14
REMARK    7  A    between atoms: C_21  and  C_24
REMARK                            x       y       z     vdW  Elec       q    Type
REMARK                         _______ _______ _______ _____ _____    ______ ____
ROOT
ATOM      1  N   UNL     1       8.047  -4.069  25.938  0.00  0.00    -0.314 N 
ATOM      2  C   UNL     1       7.700  -3.854  24.633  0.00  0.00    +0.167 A 
ATOM      3  C   UNL     1       8.012  -2.522  24.403  0.00  0.00    +0.148 A 
ATOM      4  C   UNL     1       7.772  -2.004  23.114  0.00  0.00    +0.151 A 
ATOM      5  N   UNL     1       7.236  -2.844  22.188  0.00  0.00    -0.201 NA
ATOM      6  C   UNL     1       6.979  -4.133  22.548  0.00  0.00    +0.236 A 
ATOM      7  N   UNL     1       8.530  -1.934  25.539  0.00  0.00    -0.231 NA
ATOM      8  N   UNL     1       7.186  -4.725  23.752  0.00  0.00    -0.199 NA
ATOM      9  C   UNL     1       8.535  -2.890  26.441  0.00  0.00    +0.201 A 
ENDROOT
BRANCH   6  10
ATOM     10  C   UNL     1       6.433  -4.988  21.518  0.00  0.00    +0.140 C 
ATOM     11  N   UNL     1       5.983  -5.676  20.691  0.00  0.00    -0.188 NA
ENDBRANCH   6  10
BRANCH   4  12
ATOM     12  N   UNL     1       8.110  -0.692  22.833  0.00  0.00    -0.324 N 
ATOM     13  H   UNL     1       7.309  -0.067  22.836  0.00  0.00    +0.148 HD
BRANCH  12  14
ATOM     14  C   UNL     1       9.289  -0.293  22.084  0.00  0.00    +0.072 C 
ATOM     15  C   UNL     1      10.496  -0.246  23.043  0.00  0.00    +0.022 C 
ATOM     16  C   UNL     1      10.518   0.968  23.982  0.00  0.00    +0.002 C 
ATOM     17  C   UNL     1      10.274   2.285  23.254  0.00  0.00    +0.000 C 
ATOM     18  C   UNL     1       9.019   2.223  22.394  0.00  0.00    +0.002 C 
ATOM     19  C   UNL     1       9.093   1.066  21.400  0.00  0.00    +0.022 C 
ENDBRANCH  12  14
ENDBRANCH   4  12
BRANCH   1  20
ATOM     20  C   UNL     1       7.900  -5.298  26.695  0.00  0.00    +0.140 C 
BRANCH  20  21
ATOM     21  C   UNL     1       6.567  -5.351  27.457  0.00  0.00    +0.106 C 
BRANCH  21  26
ATOM     22  C   UNL     1       2.028  -6.974  26.936  0.00  0.00    +0.105 C 
ATOM     23  N   UNL     1       2.863  -5.788  27.127  0.00  0.00    -0.303 NA
ATOM     24  C   UNL     1       3.795  -5.605  25.998  0.00  0.00    +0.099 C 
ATOM     25  C   UNL     1       4.992  -6.585  25.994  0.00  0.00    +0.100 C 
ATOM     26  N   UNL     1       5.784  -6.587  27.244  0.00  0.00    -0.298 NA
ATOM     27  C   UNL     1       4.848  -6.809  28.376  0.00  0.00    +0.100 C 
ATOM     28  C   UNL     1       3.617  -5.865  28.396  0.00  0.00    +0.099 C 
ENDBRANCH  21  26
ENDBRANCH  20  21
ENDBRANCH   1  20
TORSDOF 6
ENDMDL
MODEL 2
REMARK VINA RESULT:      -7.0      2.374      8.412
REMARK  Name = 
REMARK  7 active torsions:
REMARK  status: ('A' for Active; 'I' for Inactive)
REMARK    1  A    between atoms: C_1  and  N_2
REMARK    2  A    between atoms: N_5  and  C_6
REMARK    3  A    between atoms: C_6  and  C_7
REMARK    4  A    between atoms: C_7  and  N_8
REMARK    5  A    between atoms: C_12  and  N_13
REMARK    6  A    between atoms: N_13  and  C_14
REMARK    7  A    between atoms: C_21  and  C_24
REMARK                            x       y       z     vdW  Elec       q    Type
REMARK                         _______ _______ _______ _____ _____    ______ ____
ROOT
ATOM      1  N   UNL     1       6.812  -4.355  22.808  0.00  0.00    -0.314 N 
ATOM      2  C   UNL     1       6.330  -5.002  23.912  0.00  0.00    +0.167 A 
ATOM      3  C   UNL     1       5.308  -5.806  23.429  0.00  0.00    +0.148 A 
ATOM      4  C   UNL     1       4.618  -6.617  24.351  0.00  0.00    +0.151 A 
ATOM      5  N   UNL     1       4.993  -6.545  25.657  0.00  0.00    -0.201 NA
ATOM      6  C   UNL     1       6.018  -5.711  25.996  0.00  0.00    +0.236 A 
ATOM      7  N   UNL     1       5.163  -5.650  22.065  0.00  0.00    -0.231 NA
ATOM      8  N   UNL     1       6.747  -4.905  25.183  0.00  0.00    -0.199 NA
ATOM      9  C   UNL     1       6.080  -4.771  21.726  0.00  0.00    +0.201 A 
ENDROOT
BRANCH   6  10
ATOM     10  C   UNL     1       6.390  -5.692  27.392  0.00  0.00    +0.140 C 
ATOM     11  N   UNL     1       6.693  -5.686  28.519  0.00  0.00    -0.188 NA
ENDBRANCH   6  10
BRANCH   4  12
ATOM     12  N   UNL     1       3.622  -7.465  23.901  0.00  0.00    -0.324 N 
ATOM     13  H   UNL     1       3.789  -7.807  22.959  0.00  0.00    +0.148 HD
BRANCH  12  14
ATOM     14  C   UNL     1       2.257  -7.463  24.399  0.00  0.00    +0.072 C 
ATOM     15  C   UNL     1       1.425  -8.466  23.573  0.00  0.00    +0.022 C 
ATOM     16  C   UNL     1       1.053  -7.979  22.166  0.00  0.00    +0.002 C 
ATOM     17  C   UNL     1       0.478  -6.567  22.159  0.00  0.00    +0.000 C 
ATOM     18  C   UNL     1       1.382  -5.593  22.903  0.00  0.00    +0.002 C 
ATOM     19  C   UNL     1       1.632  -6.064  24.335  0.00  0.00    +0.022 C 
ENDBRANCH  12  14
ENDBRANCH   4  12
BRANCH   1  20
ATOM     20  C   UNL     1       7.876  -3.369  22.762  0.00  0.00    +0.140 C 
BRANCH  20  21
ATOM     21  C   UNL     1       7.348  -1.939  22.962  0.00  0.00    +0.106 C 
BRANCH  21  26
ATOM     22  C   UNL     1      10.080   1.989  22.177  0.00  0.00    +0.105 C 
ATOM     23  N   UNL     1       9.122   1.056  21.584  0.00  0.00    -0.303 NA
ATOM     24  C   UNL     1       7.831   1.094  22.295  0.00  0.00    +0.099 C 
ATOM     25  C   UNL     1       7.839   0.385  23.670  0.00  0.00    +0.100 C 
ATOM     26  N   UNL     1       8.296  -1.021  23.629  0.00  0.00    -0.298 NA
ATOM     27  C   UNL     1       9.615  -1.052  22.946  0.00  0.00    +0.100 C 
ATOM     28  C   UNL     1       9.655  -0.323  21.577  0.00  0.00    +0.099 C 
ENDBRANCH  21  26
ENDBRANCH  20  21
ENDBRANCH   1  20
TORSDOF 6
ENDMDL
MODEL 3
REMARK VINA RESULT:      -6.5      1.394      7.898
REMARK  Name = 
REMARK  7 active torsions:
REMARK  status: ('A' for Active; 'I' for Inactive)
REMARK    1  A    between atoms: C_1  and  N_2
REMARK    2  A    between atoms: N_5  and  C_6
REMARK    3  A    between atoms: C_6  and  C_7
REMARK    4  A    between atoms: C_7  and  N_8
REMARK    5  A    between atoms: C_12  and  N_13
REMARK    6  A    between atoms: N_13  and  C_14
REMARK    7  A    between atoms: C_21  and  C_24
REMARK                            x       y       z     vdW  Elec       q    Type
REMARK                         _______ _______ _______ _____ _____    ______ ____
ROOT
ATOM      1  N   UNL     1       8.833  -2.911  24.470  0.00  0.00    -0.314 N 
ATOM      2  C   UNL     1       7.858  -3.726  23.964  0.00  0.00    +0.167 A 
ATOM      3  C   UNL     1       7.108  -4.102  25.068  0.00  0.00    +0.148 A 
ATOM      4  C   UNL     1       6.003  -4.950  24.854  0.00  0.00    +0.151 A 
ATOM      5  N   UNL     1       5.756  -5.352  23.578  0.00  0.00    -0.201 NA
ATOM      6  C   UNL     1       6.574  -4.904  22.584  0.00  0.00    +0.236 A 
ATOM      7  N   UNL     1       7.614  -3.539  26.222  0.00  0.00    -0.231 NA
ATOM      8  N   UNL     1       7.649  -4.082  22.688  0.00  0.00    -0.199 NA
ATOM      9  C   UNL     1       8.650  -2.832  25.826  0.00  0.00    +0.201 A 
ENDROOT
BRANCH   6  10
ATOM     10  C   UNL     1       6.251  -5.343  21.245  0.00  0.00    +0.140 C 
ATOM     11  N   UNL     1       5.997  -5.706  20.166  0.00  0.00    -0.188 NA
ENDBRANCH   6  10
BRANCH   4  12
ATOM     12  N   UNL     1       5.205  -5.312  25.924  0.00  0.00    -0.324 N 
ATOM     13  H   UNL     1       5.101  -4.570  26.611  0.00  0.00    +0.148 HD
BRANCH  12  14
ATOM     14  C   UNL     1       4.987  -6.683  26.357  0.00  0.00    +0.072 C 
ATOM     15  C   UNL     1       3.634  -7.172  25.800  0.00  0.00    +0.022 C 
ATOM     16  C   UNL     1       2.405  -6.606  26.525  0.00  0.00    +0.002 C 
ATOM     17  C   UNL     1       2.508  -6.716  28.042  0.00  0.00    +0.000 C 
ATOM     18  C   UNL     1       3.818  -6.133  28.555  0.00  0.00    +0.002 C 
ATOM     19  C   UNL     1       5.015  -6.806  27.886  0.00  0.00    +0.022 C 
ENDBRANCH  12  14
ENDBRANCH   4  12
BRANCH   1  20
ATOM     20  C   UNL     1       9.906  -2.265  23.736  0.00  0.00    +0.140 C 
BRANCH  20  21
ATOM     21  C   UNL     1       9.419  -1.020  22.979  0.00  0.00    +0.106 C 
BRANCH  21  26
ATOM     22  C   UNL     1       9.623   3.758  23.779  0.00  0.00    +0.105 C 
ATOM     23  N   UNL     1       8.753   2.582  23.753  0.00  0.00    -0.303 NA
ATOM     24  C   UNL     1       9.190   1.575  24.738  0.00  0.00    +0.099 C 
ATOM     25  C   UNL     1      10.455   0.786  24.325  0.00  0.00    +0.100 C 
ATOM     26  N   UNL     1      10.358   0.123  23.006  0.00  0.00    -0.298 NA
ATOM     27  C   UNL     1       9.955   1.148  22.009  0.00  0.00    +0.100 C 
ATOM     28  C   UNL     1       8.707   1.982  22.403  0.00  0.00    +0.099 C 
ENDBRANCH  21  26
ENDBRANCH  20  21
ENDBRANCH   1  20
TORSDOF 6
ENDMDL
MODEL 4
REMARK VINA RESULT:      -6.5      1.390      7.659
REMARK  Name = 
REMARK  7 active torsions:
REMARK  status: ('A' for Active; 'I' for Inactive)
REMARK    1  A    between atoms: C_1  and  N_2
REMARK    2  A    between atoms: N_5  and  C_6
REMARK    3  A    between atoms: C_6  and  C_7
REMARK    4  A    between atoms: C_7  and  N_8
REMARK    5  A    between atoms: C_12  and  N_13
REMARK    6  A    between atoms: N_13  and  C_14
REMARK    7  A    between atoms: C_21  and  C_24
REMARK                            x       y       z     vdW  Elec       q    Type
REMARK                         _______ _______ _______ _____ _____    ______ ____
ROOT
ATOM      1  N   UNL     1       8.901  -3.137  24.476  0.00  0.00    -0.314 N 
ATOM      2  C   UNL     1       7.892  -3.894  23.949  0.00  0.00    +0.167 A 
ATOM      3  C   UNL     1       7.108  -4.239  25.041  0.00  0.00    +0.148 A 
ATOM      4  C   UNL     1       5.962  -5.025  24.804  0.00  0.00    +0.151 A 
ATOM      5  N   UNL     1       5.712  -5.403  23.521  0.00  0.00    -0.201 NA
ATOM      6  C   UNL     1       6.566  -4.991  22.542  0.00  0.00    +0.236 A 
ATOM      7  N   UNL     1       7.627  -3.713  26.206  0.00  0.00    -0.231 NA
ATOM      8  N   UNL     1       7.681  -4.229  22.668  0.00  0.00    -0.199 NA
ATOM      9  C   UNL     1       8.704  -3.059  25.831  0.00  0.00    +0.201 A 
ENDROOT
BRANCH   6  10
ATOM     10  C   UNL     1       6.239  -5.402  21.196  0.00  0.00    +0.140 C 
ATOM     11  N   UNL     1       5.976  -5.744  20.112  0.00  0.00    -0.188 NA
ENDBRANCH   6  10
BRANCH   4  12
ATOM     12  N   UNL     1       5.131  -5.353  25.860  0.00  0.00    -0.324 N 
ATOM     13  H   UNL     1       4.984  -4.580  26.504  0.00  0.00    +0.148 HD
BRANCH  12  14
ATOM     14  C   UNL     1       4.928  -6.705  26.354  0.00  0.00    +0.072 C 
ATOM     15  C   UNL     1       3.567  -7.222  25.844  0.00  0.00    +0.022 C 
ATOM     16  C   UNL     1       2.349  -6.632  26.567  0.00  0.00    +0.002 C 
ATOM     17  C   UNL     1       2.481  -6.678  28.085  0.00  0.00    +0.000 C 
ATOM     18  C   UNL     1       3.798  -6.069  28.549  0.00  0.00    +0.002 C 
ATOM     19  C   UNL     1       4.985  -6.764  27.886  0.00  0.00    +0.022 C 
ENDBRANCH  12  14
ENDBRANCH   4  12
BRANCH   1  20
ATOM     20  C   UNL     1      10.018  -2.543  23.763  0.00  0.00    +0.140 C 
BRANCH  20  21
ATOM     21  C   UNL     1       9.867  -1.021  23.620  0.00  0.00    +0.106 C 
BRANCH  21  26
ATOM     22  C   UNL     1       7.591   2.915  21.936  0.00  0.00    +0.105 C 
ATOM     23  N   UNL     1       8.630   2.427  22.842  0.00  0.00    -0.303 NA
ATOM     24  C   UNL     1       9.696   1.726  22.101  0.00  0.00    +0.099 C 
ATOM     25  C   UNL     1       9.305   0.313  21.607  0.00  0.00    +0.100 C 
ATOM     26  N   UNL     1       8.817  -0.593  22.670  0.00  0.00    -0.298 NA
ATOM     27  C   UNL     1       7.718   0.100  23.390  0.00  0.00    +0.100 C 
ATOM     28  C   UNL     1       8.062   1.534  23.874  0.00  0.00    +0.099 C 
ENDBRANCH  21  26
ENDBRANCH  20  21
ENDBRANCH   1  20
TORSDOF 6
ENDMDL
MODEL 5
REMARK VINA RESULT:      -6.4      4.006      7.669
REMARK  Name = 
REMARK  7 active torsions:
REMARK  status: ('A' for Active; 'I' for Inactive)
REMARK    1  A    between atoms: C_1  and  N_2
REMARK    2  A    between atoms: N_5  and  C_6
REMARK    3  A    between atoms: C_6  and  C_7
REMARK    4  A    between atoms: C_7  and  N_8
REMARK    5  A    between atoms: C_12  and  N_13
REMARK    6  A    between atoms: N_13  and  C_14
REMARK    7  A    between atoms: C_21  and  C_24
REMARK                            x       y       z     vdW  Elec       q    Type
REMARK                         _______ _______ _______ _____ _____    ______ ____
ROOT
ATOM      1  N   UNL     1       9.966   1.667  24.051  0.00  0.00    -0.314 N 
ATOM      2  C   UNL     1      10.399   2.946  23.836  0.00  0.00    +0.167 A 
ATOM      3  C   UNL     1       9.367   3.748  24.304  0.00  0.00    +0.148 A 
ATOM      4  C   UNL     1       9.534   5.145  24.224  0.00  0.00    +0.151 A 
ATOM      5  N   UNL     1      10.691   5.611  23.680  0.00  0.00    -0.201 NA
ATOM      6  C   UNL     1      11.623   4.710  23.262  0.00  0.00    +0.236 A 
ATOM      7  N   UNL     1       8.327   2.980  24.786  0.00  0.00    -0.231 NA
ATOM      8  N   UNL     1      11.561   3.355  23.306  0.00  0.00    -0.199 NA
ATOM      9  C   UNL     1       8.719   1.736  24.617  0.00  0.00    +0.201 A 
ENDROOT
BRANCH   6  10
ATOM     10  C   UNL     1      12.843   5.261  22.715  0.00  0.00    +0.140 C 
ATOM     11  N   UNL     1      13.832   5.701  22.281  0.00  0.00    -0.188 NA
ENDBRANCH   6  10
BRANCH   4  12
ATOM     12  N   UNL     1       8.547   5.978  24.719  0.00  0.00    -0.324 N 
ATOM     13  H   UNL     1       8.119   5.624  25.570  0.00  0.00    +0.148 HD
BRANCH  12  14
ATOM     14  C   UNL     1       7.790   6.922  23.914  0.00  0.00    +0.072 C 
ATOM     15  C   UNL     1       6.392   7.103  24.541  0.00  0.00    +0.022 C 
ATOM     16  C   UNL     1       5.432   5.930  24.308  0.00  0.00    +0.002 C 
ATOM     17  C   UNL     1       5.385   5.481  22.851  0.00  0.00    +0.000 C 
ATOM     18  C   UNL     1       6.782   5.221  22.303  0.00  0.00    +0.002 C 
ATOM     19  C   UNL     1       7.669   6.456  22.457  0.00  0.00    +0.022 C 
ENDBRANCH  12  14
ENDBRANCH   4  12
BRANCH   1  20
ATOM     20  C   UNL     1      10.659   0.437  23.715  0.00  0.00    +0.140 C 
BRANCH  20  21
ATOM     21  C   UNL     1       9.997  -0.793  24.356  0.00  0.00    +0.106 C 
BRANCH  21  26
ATOM     22  C   UNL     1       7.155  -4.261  22.512  0.00  0.00    +0.105 C 
ATOM     23  N   UNL     1       7.187  -3.036  23.311  0.00  0.00    -0.303 NA
ATOM     24  C   UNL     1       7.697  -1.899  22.522  0.00  0.00    +0.099 C 
ATOM     25  C   UNL     1       9.226  -1.920  22.287  0.00  0.00    +0.100 C 
ATOM     26  N   UNL     1      10.032  -2.015  23.524  0.00  0.00    -0.298 NA
ATOM     27  C   UNL     1       9.543  -3.184  24.299  0.00  0.00    +0.100 C 
ATOM     28  C   UNL     1       8.008  -3.214  24.528  0.00  0.00    +0.099 C 
ENDBRANCH  21  26
ENDBRANCH  20  21
ENDBRANCH   1  20
TORSDOF 6
ENDMDL
MODEL 6
REMARK VINA RESULT:      -6.4      2.977      8.504
REMARK  Name = 
REMARK  7 active torsions:
REMARK  status: ('A' for Active; 'I' for Inactive)
REMARK    1  A    between atoms: C_1  and  N_2
REMARK    2  A    between atoms: N_5  and  C_6
REMARK    3  A    between atoms: C_6  and  C_7
REMARK    4  A    between atoms: C_7  and  N_8
REMARK    5  A    between atoms: C_12  and  N_13
REMARK    6  A    between atoms: N_13  and  C_14
REMARK    7  A    between atoms: C_21  and  C_24
REMARK                            x       y       z     vdW  Elec       q    Type
REMARK                         _______ _______ _______ _____ _____    ______ ____
ROOT
ATOM      1  N   UNL     1       9.614   0.502  23.542  0.00  0.00    -0.314 N 
ATOM      2  C   UNL     1       8.370   0.001  23.812  0.00  0.00    +0.167 A 
ATOM      3  C   UNL     1       8.272  -1.135  23.022  0.00  0.00    +0.148 A 
ATOM      4  C   UNL     1       7.082  -1.886  23.096  0.00  0.00    +0.151 A 
ATOM      5  N   UNL     1       6.104  -1.435  23.928  0.00  0.00    -0.201 NA
ATOM      6  C   UNL     1       6.334  -0.302  24.650  0.00  0.00    +0.236 A 
ATOM      7  N   UNL     1       9.423  -1.323  22.283  0.00  0.00    -0.231 NA
ATOM      8  N   UNL     1       7.444   0.479  24.656  0.00  0.00    -0.199 NA
ATOM      9  C   UNL     1      10.206  -0.321  22.619  0.00  0.00    +0.201 A 
ENDROOT
BRANCH   6  10
ATOM     10  C   UNL     1       5.271   0.118  25.534  0.00  0.00    +0.140 C 
ATOM     11  N   UNL     1       4.415   0.467  26.246  0.00  0.00    -0.188 NA
ENDBRANCH   6  10
BRANCH   4  12
ATOM     12  N   UNL     1       6.963  -3.049  22.358  0.00  0.00    -0.324 N 
ATOM     13  H   UNL     1       6.138  -3.059  21.764  0.00  0.00    +0.148 HD
BRANCH  12  14
ATOM     14  C   UNL     1       7.552  -4.323  22.734  0.00  0.00    +0.072 C 
ATOM     15  C   UNL     1       7.080  -5.404  21.740  0.00  0.00    +0.022 C 
ATOM     16  C   UNL     1       5.630  -5.864  21.939  0.00  0.00    +0.002 C 
ATOM     17  C   UNL     1       5.309  -6.200  23.392  0.00  0.00    +0.000 C 
ATOM     18  C   UNL     1       5.704  -5.064  24.327  0.00  0.00    +0.002 C 
ATOM     19  C   UNL     1       7.183  -4.717  24.170  0.00  0.00    +0.022 C 
ENDBRANCH  12  14
ENDBRANCH   4  12
BRANCH   1  20
ATOM     20  C   UNL     1      10.213   1.707  24.088  0.00  0.00    +0.140 C 
BRANCH  20  21
ATOM     21  C   UNL     1       9.674   2.976  23.411  0.00  0.00    +0.106 C 
BRANCH  21  26
ATOM     22  C   UNL     1       7.137   7.108  23.462  0.00  0.00    +0.105 C 
ATOM     23  N   UNL     1       8.060   6.277  22.689  0.00  0.00    -0.303 NA
ATOM     24  C   UNL     1       7.465   4.962  22.384  0.00  0.00    +0.099 C 
ATOM     25  C   UNL     1       7.417   3.989  23.585  0.00  0.00    +0.100 C 
ATOM     26  N   UNL     1       8.726   3.758  24.235  0.00  0.00    -0.298 NA
ATOM     27  C   UNL     1       9.306   5.082  24.576  0.00  0.00    +0.100 C 
ATOM     28  C   UNL     1       9.342   6.097  23.403  0.00  0.00    +0.099 C 
ENDBRANCH  21  26
ENDBRANCH  20  21
ENDBRANCH   1  20
TORSDOF 6
ENDMDL
MODEL 7
REMARK VINA RESULT:      -6.4      1.512      7.364
REMARK  Name = 
REMARK  7 active torsions:
REMARK  status: ('A' for Active; 'I' for Inactive)
REMARK    1  A    between atoms: C_1  and  N_2
REMARK    2  A    between atoms: N_5  and  C_6
REMARK    3  A    between atoms: C_6  and  C_7
REMARK    4  A    between atoms: C_7  and  N_8
REMARK    5  A    between atoms: C_12  and  N_13
REMARK    6  A    between atoms: N_13  and  C_14
REMARK    7  A    between atoms: C_21  and  C_24
REMARK                            x       y       z     vdW  Elec       q    Type
REMARK                         _______ _______ _______ _____ _____    ______ ____
ROOT
ATOM      1  N   UNL     1       9.003  -2.736  24.566  0.00  0.00    -0.314 N 
ATOM      2  C   UNL     1       8.124  -3.691  24.138  0.00  0.00    +0.167 A 
ATOM      3  C   UNL     1       7.704  -4.326  25.298  0.00  0.00    +0.148 A 
ATOM      4  C   UNL     1       6.765  -5.370  25.173  0.00  0.00    +0.151 A 
ATOM      5  N   UNL     1       6.346  -5.692  23.919  0.00  0.00    -0.201 NA
ATOM      6  C   UNL     1       6.840  -4.984  22.864  0.00  0.00    +0.236 A 
ATOM      7  N   UNL     1       8.315  -3.778  26.407  0.00  0.00    -0.231 NA
ATOM      8  N   UNL     1       7.731  -3.961  22.884  0.00  0.00    -0.199 NA
ATOM      9  C   UNL     1       9.090  -2.828  25.931  0.00  0.00    +0.201 A 
ENDROOT
BRANCH   6  10
ATOM     10  C   UNL     1       6.342  -5.354  21.559  0.00  0.00    +0.140 C 
ATOM     11  N   UNL     1       5.931  -5.653  20.509  0.00  0.00    -0.188 NA
ENDBRANCH   6  10
BRANCH   4  12
ATOM     12  N   UNL     1       6.289  -5.998  26.309  0.00  0.00    -0.324 N 
ATOM     13  H   UNL     1       6.893  -6.750  26.629  0.00  0.00    +0.148 HD
BRANCH  12  14
ATOM     14  C   UNL     1       4.891  -6.025  26.707  0.00  0.00    +0.072 C 
ATOM     15  C   UNL     1       4.382  -4.574  26.835  0.00  0.00    +0.022 C 
ATOM     16  C   UNL     1       4.863  -3.839  28.094  0.00  0.00    +0.002 C 
ATOM     17  C   UNL     1       4.679  -4.658  29.366  0.00  0.00    +0.000 C 
ATOM     18  C   UNL     1       5.283  -6.049  29.226  0.00  0.00    +0.002 C 
ATOM     19  C   UNL     1       4.690  -6.784  28.024  0.00  0.00    +0.022 C 
ENDBRANCH  12  14
ENDBRANCH   4  12
BRANCH   1  20
ATOM     20  C   UNL     1       9.757  -1.805  23.746  0.00  0.00    +0.140 C 
BRANCH  20  21
ATOM     21  C   UNL     1       9.711  -0.375  24.307  0.00  0.00    +0.106 C 
BRANCH  21  26
ATOM     22  C   UNL     1       7.340   3.284  22.186  0.00  0.00    +0.105 C 
ATOM     23  N   UNL     1       8.621   2.585  22.290  0.00  0.00    -0.303 NA
ATOM     24  C   UNL     1       8.497   1.180  21.860  0.00  0.00    +0.099 C 
ATOM     25  C   UNL     1       7.785   0.261  22.881  0.00  0.00    +0.100 C 
ATOM     26  N   UNL     1       8.384   0.273  24.234  0.00  0.00    -0.298 NA
ATOM     27  C   UNL     1       8.472   1.687  24.680  0.00  0.00    +0.100 C 
ATOM     28  C   UNL     1       9.152   2.647  23.668  0.00  0.00    +0.099 C 
ENDBRANCH  21  26
ENDBRANCH  20  21
ENDBRANCH   1  20
TORSDOF 6
ENDMDL
MODEL 8
REMARK VINA RESULT:      -6.3      1.587      7.608
REMARK  Name = 
REMARK  7 active torsions:
REMARK  status: ('A' for Active; 'I' for Inactive)
REMARK    1  A    between atoms: C_1  and  N_2
REMARK    2  A    between atoms: N_5  and  C_6
REMARK    3  A    between atoms: C_6  and  C_7
REMARK    4  A    between atoms: C_7  and  N_8
REMARK    5  A    between atoms: C_12  and  N_13
REMARK    6  A    between atoms: N_13  and  C_14
REMARK    7  A    between atoms: C_21  and  C_24
REMARK                            x       y       z     vdW  Elec       q    Type
REMARK                         _______ _______ _______ _____ _____    ______ ____
ROOT
ATOM      1  N   UNL     1       7.425  -4.837  26.349  0.00  0.00    -0.314 N 
ATOM      2  C   UNL     1       6.672  -5.343  25.326  0.00  0.00    +0.167 A 
ATOM      3  C   UNL     1       5.683  -6.086  25.954  0.00  0.00    +0.148 A 
ATOM      4  C   UNL     1       4.729  -6.731  25.141  0.00  0.00    +0.151 A 
ATOM      5  N   UNL     1       4.854  -6.591  23.793  0.00  0.00    -0.201 NA
ATOM      6  C   UNL     1       5.874  -5.829  23.309  0.00  0.00    +0.236 A 
ATOM      7  N   UNL     1       5.830  -6.042  27.326  0.00  0.00    -0.231 NA
ATOM      8  N   UNL     1       6.829  -5.163  24.006  0.00  0.00    -0.199 NA
ATOM      9  C   UNL     1       6.886  -5.285  27.528  0.00  0.00    +0.201 A 
ENDROOT
BRANCH   6  10
ATOM     10  C   UNL     1       5.944  -5.695  21.871  0.00  0.00    +0.140 C 
ATOM     11  N   UNL     1       5.991  -5.588  20.710  0.00  0.00    -0.188 NA
ENDBRANCH   6  10
BRANCH   4  12
ATOM     12  N   UNL     1       3.702  -7.446  25.731  0.00  0.00    -0.324 N 
ATOM     13  H   UNL     1       3.971  -8.393  25.981  0.00  0.00    +0.148 HD
BRANCH  12  14
ATOM     14  C   UNL     1       2.290  -7.162  25.537  0.00  0.00    +0.072 C 
ATOM     15  C   UNL     1       2.056  -5.649  25.723  0.00  0.00    +0.022 C 
ATOM     16  C   UNL     1       2.088  -5.173  27.182  0.00  0.00    +0.002 C 
ATOM     17  C   UNL     1       1.233  -6.033  28.105  0.00  0.00    +0.000 C 
ATOM     18  C   UNL     1       1.567  -7.512  27.957  0.00  0.00    +0.002 C 
ATOM     19  C   UNL     1       1.412  -7.964  26.506  0.00  0.00    +0.022 C 
ENDBRANCH  12  14
ENDBRANCH   4  12
BRANCH   1  20
ATOM     20  C   UNL     1       8.610  -4.006  26.240  0.00  0.00    +0.140 C 
BRANCH  20  21
ATOM     21  C   UNL     1       8.281  -2.598  25.720  0.00  0.00    +0.106 C 
BRANCH  21  26
ATOM     22  C   UNL     1       9.401  -0.107  21.714  0.00  0.00    +0.105 C 
ATOM     23  N   UNL     1       8.330  -0.783  22.446  0.00  0.00    -0.303 NA
ATOM     24  C   UNL     1       8.100  -0.149  23.758  0.00  0.00    +0.099 C 
ATOM     25  C   UNL     1       9.179  -0.470  24.819  0.00  0.00    +0.100 C 
ATOM     26  N   UNL     1       9.405  -1.914  25.043  0.00  0.00    -0.298 NA
ATOM     27  C   UNL     1       9.674  -2.544  23.724  0.00  0.00    +0.100 C 
ATOM     28  C   UNL     1       8.629  -2.219  22.624  0.00  0.00    +0.099 C 
ENDBRANCH  21  26
ENDBRANCH  20  21
ENDBRANCH   1  20
TORSDOF 6
ENDMDL
MODEL 9
REMARK VINA RESULT:      -6.1      1.807      2.700
REMARK  Name = 
REMARK  7 active torsions:
REMARK  status: ('A' for Active; 'I' for Inactive)
REMARK    1  A    between atoms: C_1  and  N_2
REMARK    2  A    between atoms: N_5  and  C_6
REMARK    3  A    between atoms: C_6  and  C_7
REMARK    4  A    between atoms: C_7  and  N_8
REMARK    5  A    between atoms: C_12  and  N_13
REMARK    6  A    between atoms: N_13  and  C_14
REMARK    7  A    between atoms: C_21  and  C_24
REMARK                            x       y       z     vdW  Elec       q    Type
REMARK                         _______ _______ _______ _____ _____    ______ ____
ROOT
ATOM      1  N   UNL     1       4.229  -2.863  25.253  0.00  0.00    -0.314 N 
ATOM      2  C   UNL     1       5.026  -3.039  24.156  0.00  0.00    +0.167 A 
ATOM      3  C   UNL     1       5.886  -1.951  24.171  0.00  0.00    +0.148 A 
ATOM      4  C   UNL     1       6.852  -1.862  23.148  0.00  0.00    +0.151 A 
ATOM      5  N   UNL     1       6.863  -2.845  22.207  0.00  0.00    -0.201 NA
ATOM      6  C   UNL     1       5.961  -3.860  22.314  0.00  0.00    +0.236 A 
ATOM      7  N   UNL     1       5.618  -1.126  25.245  0.00  0.00    -0.231 NA
ATOM      8  N   UNL     1       5.006  -4.039  23.262  0.00  0.00    -0.199 NA
ATOM      9  C   UNL     1       4.617  -1.703  25.872  0.00  0.00    +0.201 A 
ENDROOT
BRANCH   6  10
ATOM     10  C   UNL     1       6.034  -4.889  21.301  0.00  0.00    +0.140 C 
ATOM     11  N   UNL     1       6.083  -5.717  20.481  0.00  0.00    -0.188 NA
ENDBRANCH   6  10
BRANCH   4  12
ATOM     12  N   UNL     1       7.755  -0.815  23.153  0.00  0.00    -0.324 N 
ATOM     13  H   UNL     1       7.345   0.065  22.851  0.00  0.00    +0.148 HD
BRANCH  12  14
ATOM     14  C   UNL     1       9.195  -0.974  23.038  0.00  0.00    +0.072 C 
ATOM     15  C   UNL     1       9.860  -0.419  24.315  0.00  0.00    +0.022 C 
ATOM     16  C   UNL     1       9.903   1.113  24.397  0.00  0.00    +0.002 C 
ATOM     17  C   UNL     1      10.418   1.761  23.117  0.00  0.00    +0.000 C 
ATOM     18  C   UNL     1       9.667   1.254  21.893  0.00  0.00    +0.002 C 
ATOM     19  C   UNL     1       9.748  -0.268  21.794  0.00  0.00    +0.022 C 
ENDBRANCH  12  14
ENDBRANCH   4  12
BRANCH   1  20
ATOM     20  C   UNL     1       3.134  -3.712  25.688  0.00  0.00    +0.140 C 
BRANCH  20  21
ATOM     21  C   UNL     1       3.154  -3.947  27.207  0.00  0.00    +0.106 C 
BRANCH  21  26
ATOM     22  C   UNL     1       6.366  -6.718  29.554  0.00  0.00    +0.105 C 
ATOM     23  N   UNL     1       6.034  -5.354  29.142  0.00  0.00    -0.303 NA
ATOM     24  C   UNL     1       4.755  -4.917  29.731  0.00  0.00    +0.099 C 
ATOM     25  C   UNL     1       3.502  -5.541  29.073  0.00  0.00    +0.100 C 
ATOM     26  N   UNL     1       3.420  -5.345  27.609  0.00  0.00    -0.298 NA
ATOM     27  C   UNL     1       4.694  -5.822  27.013  0.00  0.00    +0.100 C 
ATOM     28  C   UNL     1       5.975  -5.242  27.669  0.00  0.00    +0.099 C 
ENDBRANCH  21  26
ENDBRANCH  20  21
ENDBRANCH   1  20
TORSDOF 6
ENDMDL
