MODEL 1
REMARK VINA RESULT:      -9.3      0.000      0.000
REMARK  Name = 
REMARK  7 active torsions:
REMARK  status: ('A' for Active; 'I' for Inactive)
REMARK    1  A    between atoms: C_1  and  C_2
REMARK    2  A    between atoms: C_5  and  N_6
REMARK    3  A    between atoms: C_7  and  C_9
REMARK    4  A    between atoms: C_9  and  C_12
REMARK    5  A    between atoms: C_24  and  C_25
REMARK    6  A    between atoms: C_27  and  C_31
REMARK    7  A    between atoms: C_31  and  O_32
REMARK                            x       y       z     vdW  Elec       q    Type
REMARK                         _______ _______ _______ _____ _____    ______ ____
ROOT
ATOM      1  N   UNL     1       7.285   1.007  24.328  0.00  0.00    -0.270 N 
ATOM      2  H   UNL     1       6.455   0.786  24.853  0.00  0.00    +0.156 HD
ATOM      3  C   UNL     1       8.261   0.043  24.252  0.00  0.00    +0.229 C 
ATOM      4  O   UNL     1       9.351   0.095  23.701  0.00  0.00    -0.274 OA
ENDROOT
BRANCH   1   9
ATOM      5  C   UNL     1       7.275   6.183  22.073  0.00  0.00    +0.046 C 
ATOM      6  C   UNL     1       7.379   4.794  22.630  0.00  0.00    -0.024 A 
ATOM      7  C   UNL     1       8.429   4.335  23.435  0.00  0.00    +0.076 A 
ATOM      8  N   UNL     1       8.387   3.089  23.986  0.00  0.00    -0.232 NA
ATOM      9  C   UNL     1       7.356   2.267  23.732  0.00  0.00    +0.126 A 
ATOM     10  C   UNL     1       6.327   2.626  22.885  0.00  0.00    +0.044 A 
ATOM     11  C   UNL     1       6.340   3.901  22.332  0.00  0.00    +0.009 A 
BRANCH   7  12
ATOM     12  C   UNL     1       9.665   5.084  23.809  0.00  0.00    +0.001 A 
ATOM     13  C   UNL     1       9.657   5.974  24.904  0.00  0.00    +0.010 A 
ATOM     14  C   UNL     1      10.797   6.684  25.304  0.00  0.00    +0.001 A 
ATOM     15  C   UNL     1      11.993   6.530  24.611  0.00  0.00    +0.015 A 
ATOM     16  C   UNL     1      12.047   5.633  23.541  0.00  0.00    +0.059 A 
ATOM     17  C   UNL     1      10.899   4.918  23.158  0.00  0.00    +0.025 A 
BRANCH  16  18
ATOM     18  C   UNL     1      13.281   5.435  22.740  0.00  0.00    +0.337 C 
ATOM     19  O   UNL     1      13.338   5.693  21.550  0.00  0.00    -0.245 OA
BRANCH  18  20
ATOM     20  O   UNL     1      14.312   4.906  23.429  0.00  0.00    -0.477 OA
ATOM     21  H   UNL     1      14.068   4.199  24.055  0.00  0.00    +0.295 HD
ENDBRANCH  18  20
ENDBRANCH  16  18
ENDBRANCH   7  12
ENDBRANCH   1   9
BRANCH   3  22
ATOM     22  C   UNL     1       7.857  -1.246  24.943  0.00  0.00    +0.072 C 
ATOM     23  C   UNL     1       7.584  -1.215  26.445  0.00  0.00    +0.022 C 
ATOM     24  C   UNL     1       8.858  -1.813  25.942  0.00  0.00    +0.022 C 
BRANCH  22  25
ATOM     25  C   UNL     1       7.070  -2.207  24.051  0.00  0.00    -0.029 A 
ATOM     26  C   UNL     1       7.704  -3.062  23.130  0.00  0.00    +0.054 A 
ATOM     27  C   UNL     1       6.959  -4.048  22.513  0.00  0.00    +0.173 A 
ATOM     28  C   UNL     1       5.615  -4.204  22.756  0.00  0.00    +0.173 A 
ATOM     29  O   UNL     1       5.086  -5.270  22.098  0.00  0.00    -0.395 OA
ATOM     30  C   UNL     1       6.263  -5.773  21.455  0.00  0.00    +0.589 C 
ATOM     31  F   UNL     1       6.501  -7.030  21.908  0.00  0.00    -0.125 F 
ATOM     32  F   UNL     1       6.026  -5.856  20.123  0.00  0.00    -0.125 F 
ATOM     33  C   UNL     1       4.936  -3.364  23.605  0.00  0.00    +0.050 A 
ATOM     34  O   UNL     1       7.447  -4.989  21.660  0.00  0.00    -0.395 OA
ATOM     35  C   UNL     1       5.672  -2.361  24.246  0.00  0.00    +0.008 A 
ENDBRANCH  22  25
ENDBRANCH   3  22
TORSDOF 6
ENDMDL
MODEL 2
REMARK VINA RESULT:      -8.6      1.495      1.871
REMARK  Name = 
REMARK  7 active torsions:
REMARK  status: ('A' for Active; 'I' for Inactive)
REMARK    1  A    between atoms: C_1  and  C_2
REMARK    2  A    between atoms: C_5  and  N_6
REMARK    3  A    between atoms: C_7  and  C_9
REMARK    4  A    between atoms: C_9  and  C_12
REMARK    5  A    between atoms: C_24  and  C_25
REMARK    6  A    between atoms: C_27  and  C_31
REMARK    7  A    between atoms: C_31  and  O_32
REMARK                            x       y       z     vdW  Elec       q    Type
REMARK                         _______ _______ _______ _____ _____    ______ ____
ROOT
ATOM      1  N   UNL     1       7.981   0.958  22.808  0.00  0.00    -0.270 N 
ATOM      2  H   UNL     1       7.793   0.556  21.904  0.00  0.00    +0.156 HD
ATOM      3  C   UNL     1       8.436   0.114  23.793  0.00  0.00    +0.229 C 
ATOM      4  O   UNL     1       8.701   0.369  24.958  0.00  0.00    -0.274 OA
ENDROOT
BRANCH   1   9
ATOM      5  C   UNL     1       6.862   6.421  23.689  0.00  0.00    +0.046 C 
ATOM      6  C   UNL     1       7.240   5.001  23.388  0.00  0.00    -0.024 A 
ATOM      7  C   UNL     1       8.531   4.475  23.522  0.00  0.00    +0.076 A 
ATOM      8  N   UNL     1       8.761   3.146  23.329  0.00  0.00    -0.232 NA
ATOM      9  C   UNL     1       7.761   2.328  22.965  0.00  0.00    +0.126 A 
ATOM     10  C   UNL     1       6.482   2.793  22.738  0.00  0.00    +0.044 A 
ATOM     11  C   UNL     1       6.221   4.141  22.954  0.00  0.00    +0.009 A 
BRANCH   7  12
ATOM     12  C   UNL     1       9.770   5.222  23.890  0.00  0.00    +0.001 A 
ATOM     13  C   UNL     1       9.774   6.098  24.996  0.00  0.00    +0.010 A 
ATOM     14  C   UNL     1      10.917   6.806  25.391  0.00  0.00    +0.001 A 
ATOM     15  C   UNL     1      12.105   6.663  24.681  0.00  0.00    +0.015 A 
ATOM     16  C   UNL     1      12.148   5.780  23.600  0.00  0.00    +0.059 A 
ATOM     17  C   UNL     1      10.996   5.067  23.222  0.00  0.00    +0.025 A 
BRANCH  16  18
ATOM     18  C   UNL     1      13.372   5.594  22.781  0.00  0.00    +0.337 C 
ATOM     19  O   UNL     1      13.466   6.014  21.640  0.00  0.00    -0.245 OA
BRANCH  18  20
ATOM     20  O   UNL     1      14.346   4.889  23.390  0.00  0.00    -0.477 OA
ATOM     21  H   UNL     1      14.037   4.275  24.081  0.00  0.00    +0.295 HD
ENDBRANCH  18  20
ENDBRANCH  16  18
ENDBRANCH   7  12
ENDBRANCH   1   9
BRANCH   3  22
ATOM     22  C   UNL     1       8.642  -1.302  23.292  0.00  0.00    +0.072 C 
ATOM     23  C   UNL     1      10.070  -1.821  23.136  0.00  0.00    +0.022 C 
ATOM     24  C   UNL     1       9.288  -1.441  21.919  0.00  0.00    +0.022 C 
BRANCH  22  25
ATOM     25  C   UNL     1       7.526  -2.269  23.691  0.00  0.00    -0.029 A 
ATOM     26  C   UNL     1       6.477  -2.603  22.814  0.00  0.00    +0.054 A 
ATOM     27  C   UNL     1       5.625  -3.636  23.155  0.00  0.00    +0.173 A 
ATOM     28  C   UNL     1       5.760  -4.332  24.332  0.00  0.00    +0.173 A 
ATOM     29  O   UNL     1       4.864  -5.347  24.444  0.00  0.00    -0.395 OA
ATOM     30  C   UNL     1       4.188  -5.221  23.187  0.00  0.00    +0.589 C 
ATOM     31  F   UNL     1       4.372  -6.364  22.479  0.00  0.00    -0.125 F 
ATOM     32  F   UNL     1       2.859  -5.095  23.422  0.00  0.00    -0.125 F 
ATOM     33  C   UNL     1       6.734  -4.014  25.248  0.00  0.00    +0.050 A 
ATOM     34  O   UNL     1       4.616  -4.116  22.378  0.00  0.00    -0.395 OA
ATOM     35  C   UNL     1       7.612  -2.974  24.921  0.00  0.00    +0.008 A 
ENDBRANCH  22  25
ENDBRANCH   3  22
TORSDOF 6
ENDMDL
MODEL 3
REMARK VINA RESULT:      -8.4      4.514      6.147
REMARK  Name = 
REMARK  7 active torsions:
REMARK  status: ('A' for Active; 'I' for Inactive)
REMARK    1  A    between atoms: C_1  and  C_2
REMARK    2  A    between atoms: C_5  and  N_6
REMARK    3  A    between atoms: C_7  and  C_9
REMARK    4  A    between atoms: C_9  and  C_12
REMARK    5  A    between atoms: C_24  and  C_25
REMARK    6  A    between atoms: C_27  and  C_31
REMARK    7  A    between atoms: C_31  and  O_32
REMARK                            x       y       z     vdW  Elec       q    Type
REMARK                         _______ _______ _______ _____ _____    ______ ____
ROOT
ATOM      1  N   UNL     1       7.905  -3.181  22.624  0.00  0.00    -0.270 N 
ATOM      2  H   UNL     1       8.619  -3.890  22.636  0.00  0.00    +0.156 HD
ATOM      3  C   UNL     1       6.597  -3.601  22.619  0.00  0.00    +0.229 C 
ATOM      4  O   UNL     1       5.576  -2.931  22.579  0.00  0.00    -0.274 OA
ENDROOT
BRANCH   1   9
ATOM      5  C   UNL     1       9.501   2.222  22.248  0.00  0.00    +0.046 C 
ATOM      6  C   UNL     1       9.090   0.794  22.457  0.00  0.00    -0.024 A 
ATOM      7  C   UNL     1       8.078   0.376  23.329  0.00  0.00    +0.076 A 
ATOM      8  N   UNL     1       7.698  -0.932  23.375  0.00  0.00    -0.232 NA
ATOM      9  C   UNL     1       8.318  -1.847  22.614  0.00  0.00    +0.126 A 
ATOM     10  C   UNL     1       9.376  -1.518  21.791  0.00  0.00    +0.044 A 
ATOM     11  C   UNL     1       9.762  -0.185  21.712  0.00  0.00    +0.009 A 
BRANCH   7  12
ATOM     12  C   UNL     1       7.294   1.232  24.268  0.00  0.00    +0.001 A 
ATOM     13  C   UNL     1       7.847   1.631  25.503  0.00  0.00    +0.010 A 
ATOM     14  C   UNL     1       7.157   2.449  26.408  0.00  0.00    +0.001 A 
ATOM     15  C   UNL     1       5.874   2.895  26.105  0.00  0.00    +0.015 A 
ATOM     16  C   UNL     1       5.306   2.548  24.878  0.00  0.00    +0.059 A 
ATOM     17  C   UNL     1       6.016   1.736  23.974  0.00  0.00    +0.025 A 
BRANCH  16  18
ATOM     18  C   UNL     1       3.934   2.966  24.496  0.00  0.00    +0.337 C 
ATOM     19  O   UNL     1       3.182   3.530  25.273  0.00  0.00    -0.245 OA
BRANCH  18  20
ATOM     20  O   UNL     1       3.580   2.632  23.239  0.00  0.00    -0.477 OA
ATOM     21  H   UNL     1       4.281   2.747  22.571  0.00  0.00    +0.295 HD
ENDBRANCH  18  20
ENDBRANCH  16  18
ENDBRANCH   7  12
ENDBRANCH   1   9
BRANCH   3  22
ATOM     22  C   UNL     1       6.473  -5.110  22.706  0.00  0.00    +0.072 C 
ATOM     23  C   UNL     1       7.314  -5.967  21.763  0.00  0.00    +0.022 C 
ATOM     24  C   UNL     1       5.852  -5.802  21.498  0.00  0.00    +0.022 C 
BRANCH  22  25
ATOM     25  C   UNL     1       6.148  -5.626  24.108  0.00  0.00    -0.029 A 
ATOM     26  C   UNL     1       6.908  -5.260  25.235  0.00  0.00    +0.054 A 
ATOM     27  C   UNL     1       6.438  -5.588  26.492  0.00  0.00    +0.173 A 
ATOM     28  C   UNL     1       5.262  -6.277  26.673  0.00  0.00    +0.173 A 
ATOM     29  O   UNL     1       4.950  -6.441  27.985  0.00  0.00    -0.395 OA
ATOM     30  C   UNL     1       6.045  -5.743  28.590  0.00  0.00    +0.589 C 
ATOM     31  F   UNL     1       5.553  -4.697  29.301  0.00  0.00    -0.125 F 
ATOM     32  F   UNL     1       6.661  -6.577  29.463  0.00  0.00    -0.125 F 
ATOM     33  C   UNL     1       4.508  -6.704  25.606  0.00  0.00    +0.050 A 
ATOM     34  O   UNL     1       7.024  -5.240  27.669  0.00  0.00    -0.395 OA
ATOM     35  C   UNL     1       4.962  -6.378  24.323  0.00  0.00    +0.008 A 
ENDBRANCH  22  25
ENDBRANCH   3  22
TORSDOF 6
ENDMDL
MODEL 4
REMARK VINA RESULT:      -8.3      1.793      2.223
REMARK  Name = 
REMARK  7 active torsions:
REMARK  status: ('A' for Active; 'I' for Inactive)
REMARK    1  A    between atoms: C_1  and  C_2
REMARK    2  A    between atoms: C_5  and  N_6
REMARK    3  A    between atoms: C_7  and  C_9
REMARK    4  A    between atoms: C_9  and  C_12
REMARK    5  A    between atoms: C_24  and  C_25
REMARK    6  A    between atoms: C_27  and  C_31
REMARK    7  A    between atoms: C_31  and  O_32
REMARK                            x       y       z     vdW  Elec       q    Type
REMARK                         _______ _______ _______ _____ _____    ______ ____
ROOT
ATOM      1  N   UNL     1       8.018   0.292  23.888  0.00  0.00    -0.270 N 
ATOM      2  H   UNL     1       7.801   0.085  24.849  0.00  0.00    +0.156 HD
ATOM      3  C   UNL     1       8.460  -0.745  23.103  0.00  0.00    +0.229 C 
ATOM      4  O   UNL     1       8.805  -0.727  21.930  0.00  0.00    -0.274 OA
ENDROOT
BRANCH   1   9
ATOM      5  C   UNL     1       7.031   5.625  22.319  0.00  0.00    +0.046 C 
ATOM      6  C   UNL     1       7.392   4.216  22.686  0.00  0.00    -0.024 A 
ATOM      7  C   UNL     1       8.565   3.841  23.352  0.00  0.00    +0.076 A 
ATOM      8  N   UNL     1       8.759   2.550  23.741  0.00  0.00    -0.232 NA
ATOM      9  C   UNL     1       7.847   1.608  23.455  0.00  0.00    +0.126 A 
ATOM     10  C   UNL     1       6.705   1.892  22.732  0.00  0.00    +0.044 A 
ATOM     11  C   UNL     1       6.477   3.208  22.348  0.00  0.00    +0.009 A 
BRANCH   7  12
ATOM     12  C   UNL     1       9.701   4.730  23.734  0.00  0.00    +0.001 A 
ATOM     13  C   UNL     1       9.572   5.632  24.812  0.00  0.00    +0.010 A 
ATOM     14  C   UNL     1      10.617   6.472  25.219  0.00  0.00    +0.001 A 
ATOM     15  C   UNL     1      11.837   6.441  24.550  0.00  0.00    +0.015 A 
ATOM     16  C   UNL     1      12.013   5.539  23.499  0.00  0.00    +0.059 A 
ATOM     17  C   UNL     1      10.959   4.693  23.109  0.00  0.00    +0.025 A 
BRANCH  16  18
ATOM     18  C   UNL     1      13.276   5.467  22.724  0.00  0.00    +0.337 C 
ATOM     19  O   UNL     1      13.362   5.860  21.573  0.00  0.00    -0.245 OA
BRANCH  18  20
ATOM     20  O   UNL     1      14.301   4.893  23.385  0.00  0.00    -0.477 OA
ATOM     21  H   UNL     1      14.485   5.269  24.265  0.00  0.00    +0.295 HD
ENDBRANCH  18  20
ENDBRANCH  16  18
ENDBRANCH   7  12
ENDBRANCH   1   9
BRANCH   3  22
ATOM     22  C   UNL     1       8.471  -2.068  23.843  0.00  0.00    +0.072 C 
ATOM     23  C   UNL     1       9.208  -2.152  25.179  0.00  0.00    +0.022 C 
ATOM     24  C   UNL     1       9.825  -2.760  23.960  0.00  0.00    +0.022 C 
BRANCH  22  25
ATOM     25  C   UNL     1       7.220  -2.917  23.616  0.00  0.00    -0.029 A 
ATOM     26  C   UNL     1       6.342  -3.251  24.665  0.00  0.00    +0.054 A 
ATOM     27  C   UNL     1       5.128  -3.835  24.359  0.00  0.00    +0.173 A 
ATOM     28  C   UNL     1       4.762  -4.118  23.064  0.00  0.00    +0.173 A 
ATOM     29  O   UNL     1       3.507  -4.631  22.977  0.00  0.00    -0.395 OA
ATOM     30  C   UNL     1       3.128  -4.596  24.358  0.00  0.00    +0.589 C 
ATOM     31  F   UNL     1       2.055  -3.776  24.493  0.00  0.00    -0.125 F 
ATOM     32  F   UNL     1       2.742  -5.840  24.732  0.00  0.00    -0.125 F 
ATOM     33  C   UNL     1       5.603  -3.861  22.008  0.00  0.00    +0.050 A 
ATOM     34  O   UNL     1       4.154  -4.146  25.256  0.00  0.00    -0.395 OA
ATOM     35  C   UNL     1       6.835  -3.264  22.294  0.00  0.00    +0.008 A 
ENDBRANCH  22  25
ENDBRANCH   3  22
TORSDOF 6
ENDMDL
MODEL 5
REMARK VINA RESULT:      -8.2      4.272     10.408
REMARK  Name = 
REMARK  7 active torsions:
REMARK  status: ('A' for Active; 'I' for Inactive)
REMARK    1  A    between atoms: C_1  and  C_2
REMARK    2  A    between atoms: C_5  and  N_6
REMARK    3  A    between atoms: C_7  and  C_9
REMARK    4  A    between atoms: C_9  and  C_12
REMARK    5  A    between atoms: C_24  and  C_25
REMARK    6  A    between atoms: C_27  and  C_31
REMARK    7  A    between atoms: C_31  and  O_32
REMARK                            x       y       z     vdW  Elec       q    Type
REMARK                         _______ _______ _______ _____ _____    ______ ____
ROOT
ATOM      1  N   UNL     1       7.859  -0.454  23.627  0.00  0.00    -0.270 N 
ATOM      2  H   UNL     1       7.710  -0.235  22.655  0.00  0.00    +0.156 HD
ATOM      3  C   UNL     1       7.703   0.564  24.536  0.00  0.00    +0.229 C 
ATOM      4  O   UNL     1       7.857   0.541  25.748  0.00  0.00    -0.274 OA
ENDROOT
BRANCH   1   9
ATOM      5  C   UNL     1       9.409  -5.646  25.216  0.00  0.00    +0.046 C 
ATOM      6  C   UNL     1       8.943  -4.313  24.710  0.00  0.00    -0.024 A 
ATOM      7  C   UNL     1       7.607  -3.980  24.454  0.00  0.00    +0.076 A 
ATOM      8  N   UNL     1       7.264  -2.711  24.099  0.00  0.00    -0.232 NA
ATOM      9  C   UNL     1       8.207  -1.768  23.948  0.00  0.00    +0.126 A 
ATOM     10  C   UNL     1       9.550  -2.046  24.106  0.00  0.00    +0.044 A 
ATOM     11  C   UNL     1       9.918  -3.329  24.493  0.00  0.00    +0.009 A 
BRANCH   7  12
ATOM     12  C   UNL     1       6.425  -4.889  24.541  0.00  0.00    +0.001 A 
ATOM     13  C   UNL     1       5.745  -5.290  23.371  0.00  0.00    +0.010 A 
ATOM     14  C   UNL     1       4.643  -6.155  23.402  0.00  0.00    +0.001 A 
ATOM     15  C   UNL     1       4.178  -6.648  24.616  0.00  0.00    +0.015 A 
ATOM     16  C   UNL     1       4.845  -6.299  25.792  0.00  0.00    +0.059 A 
ATOM     17  C   UNL     1       5.957  -5.439  25.746  0.00  0.00    +0.025 A 
BRANCH  16  18
ATOM     18  C   UNL     1       4.392  -6.767  27.125  0.00  0.00    +0.337 C 
ATOM     19  O   UNL     1       3.286  -6.507  27.570  0.00  0.00    -0.245 OA
BRANCH  18  20
ATOM     20  O   UNL     1       5.318  -7.462  27.815  0.00  0.00    -0.477 OA
ATOM     21  H   UNL     1       6.045  -6.925  28.182  0.00  0.00    +0.295 HD
ENDBRANCH  18  20
ENDBRANCH  16  18
ENDBRANCH   7  12
ENDBRANCH   1   9
BRANCH   3  22
ATOM     22  C   UNL     1       7.251   1.857  23.885  0.00  0.00    +0.072 C 
ATOM     23  C   UNL     1       5.757   2.175  23.853  0.00  0.00    +0.022 C 
ATOM     24  C   UNL     1       6.438   1.714  22.604  0.00  0.00    +0.022 C 
BRANCH  22  25
ATOM     25  C   UNL     1       8.264   2.997  24.000  0.00  0.00    -0.029 A 
ATOM     26  C   UNL     1       9.636   2.806  23.751  0.00  0.00    +0.054 A 
ATOM     27  C   UNL     1      10.459   3.913  23.665  0.00  0.00    +0.173 A 
ATOM     28  C   UNL     1       9.981   5.190  23.837  0.00  0.00    +0.173 A 
ATOM     29  O   UNL     1      10.939   6.136  23.650  0.00  0.00    -0.395 OA
ATOM     30  C   UNL     1      12.050   5.299  23.306  0.00  0.00    +0.589 C 
ATOM     31  F   UNL     1      12.454   5.608  22.049  0.00  0.00    -0.125 F 
ATOM     32  F   UNL     1      13.076   5.577  24.146  0.00  0.00    -0.125 F 
ATOM     33  C   UNL     1       8.660   5.430  24.134  0.00  0.00    +0.050 A 
ATOM     34  O   UNL     1      11.784   3.889  23.360  0.00  0.00    -0.395 OA
ATOM     35  C   UNL     1       7.807   4.323  24.220  0.00  0.00    +0.008 A 
ENDBRANCH  22  25
ENDBRANCH   3  22
TORSDOF 6
ENDMDL
MODEL 6
REMARK VINA RESULT:      -8.0      3.823     10.106
REMARK  Name = 
REMARK  7 active torsions:
REMARK  status: ('A' for Active; 'I' for Inactive)
REMARK    1  A    between atoms: C_1  and  C_2
REMARK    2  A    between atoms: C_5  and  N_6
REMARK    3  A    between atoms: C_7  and  C_9
REMARK    4  A    between atoms: C_9  and  C_12
REMARK    5  A    between atoms: C_24  and  C_25
REMARK    6  A    between atoms: C_27  and  C_31
REMARK    7  A    between atoms: C_31  and  O_32
REMARK                            x       y       z     vdW  Elec       q    Type
REMARK                         _______ _______ _______ _____ _____    ______ ____
ROOT
ATOM      1  N   UNL     1       7.026   0.532  24.679  0.00  0.00    -0.270 N 
ATOM      2  H   UNL     1       6.620   1.095  25.408  0.00  0.00    +0.156 HD
ATOM      3  C   UNL     1       7.136   1.097  23.431  0.00  0.00    +0.229 C 
ATOM      4  O   UNL     1       7.565   0.601  22.399  0.00  0.00    -0.274 OA
ENDROOT
BRANCH   1   9
ATOM      5  C   UNL     1       8.531  -4.652  26.334  0.00  0.00    +0.046 C 
ATOM      6  C   UNL     1       8.168  -3.300  25.793  0.00  0.00    -0.024 A 
ATOM      7  C   UNL     1       7.376  -3.081  24.660  0.00  0.00    +0.076 A 
ATOM      8  N   UNL     1       7.008  -1.819  24.304  0.00  0.00    -0.232 NA
ATOM      9  C   UNL     1       7.435  -0.761  25.011  0.00  0.00    +0.126 A 
ATOM     10  C   UNL     1       8.282  -0.898  26.092  0.00  0.00    +0.044 A 
ATOM     11  C   UNL     1       8.649  -2.180  26.486  0.00  0.00    +0.009 A 
BRANCH   7  12
ATOM     12  C   UNL     1       6.829  -4.118  23.735  0.00  0.00    +0.001 A 
ATOM     13  C   UNL     1       7.630  -4.648  22.702  0.00  0.00    +0.010 A 
ATOM     14  C   UNL     1       7.166  -5.635  21.822  0.00  0.00    +0.001 A 
ATOM     15  C   UNL     1       5.871  -6.126  21.946  0.00  0.00    +0.015 A 
ATOM     16  C   UNL     1       5.059  -5.649  22.977  0.00  0.00    +0.059 A 
ATOM     17  C   UNL     1       5.541  -4.666  23.860  0.00  0.00    +0.025 A 
BRANCH  16  18
ATOM     18  C   UNL     1       3.659  -6.107  23.155  0.00  0.00    +0.337 C 
ATOM     19  O   UNL     1       2.703  -5.363  23.016  0.00  0.00    -0.245 OA
BRANCH  18  20
ATOM     20  O   UNL     1       3.539  -7.398  23.524  0.00  0.00    -0.477 OA
ATOM     21  H   UNL     1       2.866  -7.905  23.034  0.00  0.00    +0.295 HD
ENDBRANCH  18  20
ENDBRANCH  16  18
ENDBRANCH   7  12
ENDBRANCH   1   9
BRANCH   3  22
ATOM     22  C   UNL     1       6.671   2.540  23.405  0.00  0.00    +0.072 C 
ATOM     23  C   UNL     1       5.238   2.853  23.829  0.00  0.00    +0.022 C 
ATOM     24  C   UNL     1       5.597   2.881  22.378  0.00  0.00    +0.022 C 
BRANCH  22  25
ATOM     25  C   UNL     1       7.781   3.554  23.685  0.00  0.00    -0.029 A 
ATOM     26  C   UNL     1       9.144   3.221  23.574  0.00  0.00    +0.054 A 
ATOM     27  C   UNL     1      10.085   4.232  23.633  0.00  0.00    +0.173 A 
ATOM     28  C   UNL     1       9.730   5.547  23.818  0.00  0.00    +0.173 A 
ATOM     29  O   UNL     1      10.798   6.386  23.782  0.00  0.00    -0.395 OA
ATOM     30  C   UNL     1      11.844   5.444  23.516  0.00  0.00    +0.589 C 
ATOM     31  F   UNL     1      12.416   5.756  22.326  0.00  0.00    -0.125 F 
ATOM     32  F   UNL     1      12.795   5.573  24.473  0.00  0.00    -0.125 F 
ATOM     33  C   UNL     1       8.418   5.920  23.986  0.00  0.00    +0.050 A 
ATOM     34  O   UNL     1      11.426   4.072  23.469  0.00  0.00    -0.395 OA
ATOM     35  C   UNL     1       7.447   4.914  23.924  0.00  0.00    +0.008 A 
ENDBRANCH  22  25
ENDBRANCH   3  22
TORSDOF 6
ENDMDL
MODEL 7
REMARK VINA RESULT:      -7.9      4.593     10.366
REMARK  Name = 
REMARK  7 active torsions:
REMARK  status: ('A' for Active; 'I' for Inactive)
REMARK    1  A    between atoms: C_1  and  C_2
REMARK    2  A    between atoms: C_5  and  N_6
REMARK    3  A    between atoms: C_7  and  C_9
REMARK    4  A    between atoms: C_9  and  C_12
REMARK    5  A    between atoms: C_24  and  C_25
REMARK    6  A    between atoms: C_27  and  C_31
REMARK    7  A    between atoms: C_31  and  O_32
REMARK                            x       y       z     vdW  Elec       q    Type
REMARK                         _______ _______ _______ _____ _____    ______ ____
ROOT
ATOM      1  N   UNL     1       7.539  -0.900  24.514  0.00  0.00    -0.270 N 
ATOM      2  H   UNL     1       8.115  -0.879  25.340  0.00  0.00    +0.156 HD
ATOM      3  C   UNL     1       7.033   0.297  24.067  0.00  0.00    +0.229 C 
ATOM      4  O   UNL     1       6.297   0.511  23.114  0.00  0.00    -0.274 OA
ENDROOT
BRANCH   1   9
ATOM      5  C   UNL     1       6.983  -5.953  22.057  0.00  0.00    +0.046 C 
ATOM      6  C   UNL     1       7.022  -4.609  22.724  0.00  0.00    -0.024 A 
ATOM      7  C   UNL     1       6.460  -4.324  23.974  0.00  0.00    +0.076 A 
ATOM      8  N   UNL     1       6.636  -3.102  24.551  0.00  0.00    -0.232 NA
ATOM      9  C   UNL     1       7.317  -2.139  23.911  0.00  0.00    +0.126 A 
ATOM     10  C   UNL     1       7.830  -2.326  22.643  0.00  0.00    +0.044 A 
ATOM     11  C   UNL     1       7.681  -3.573  22.047  0.00  0.00    +0.009 A 
BRANCH   7  12
ATOM     12  C   UNL     1       5.652  -5.247  24.826  0.00  0.00    +0.001 A 
ATOM     13  C   UNL     1       4.493  -5.865  24.310  0.00  0.00    +0.010 A 
ATOM     14  C   UNL     1       3.714  -6.752  25.065  0.00  0.00    +0.001 A 
ATOM     15  C   UNL     1       4.071  -7.049  26.376  0.00  0.00    +0.015 A 
ATOM     16  C   UNL     1       5.229  -6.482  26.911  0.00  0.00    +0.059 A 
ATOM     17  C   UNL     1       6.008  -5.602  26.137  0.00  0.00    +0.025 A 
BRANCH  16  18
ATOM     18  C   UNL     1       5.658  -6.733  28.309  0.00  0.00    +0.337 C 
ATOM     19  O   UNL     1       6.725  -6.338  28.748  0.00  0.00    -0.245 OA
BRANCH  18  20
ATOM     20  O   UNL     1       4.791  -7.469  29.032  0.00  0.00    -0.477 OA
ATOM     21  H   UNL     1       4.998  -7.529  29.983  0.00  0.00    +0.295 HD
ENDBRANCH  18  20
ENDBRANCH  16  18
ENDBRANCH   7  12
ENDBRANCH   1   9
BRANCH   3  22
ATOM     22  C   UNL     1       7.513   1.474  24.893  0.00  0.00    +0.072 C 
ATOM     23  C   UNL     1       7.309   1.435  26.406  0.00  0.00    +0.022 C 
ATOM     24  C   UNL     1       6.428   2.306  25.569  0.00  0.00    +0.022 C 
BRANCH  22  25
ATOM     25  C   UNL     1       8.739   2.180  24.314  0.00  0.00    -0.029 A 
ATOM     26  C   UNL     1       8.816   3.582  24.211  0.00  0.00    +0.054 A 
ATOM     27  C   UNL     1      10.026   4.161  23.879  0.00  0.00    +0.173 A 
ATOM     28  C   UNL     1      11.148   3.409  23.626  0.00  0.00    +0.173 A 
ATOM     29  O   UNL     1      12.245   4.173  23.382  0.00  0.00    -0.395 OA
ATOM     30  C   UNL     1      11.680   5.479  23.550  0.00  0.00    +0.589 C 
ATOM     31  F   UNL     1      12.313   6.097  24.578  0.00  0.00    -0.125 F 
ATOM     32  F   UNL     1      11.919   6.202  22.429  0.00  0.00    -0.125 F 
ATOM     33  C   UNL     1      11.116   2.035  23.661  0.00  0.00    +0.050 A 
ATOM     34  O   UNL     1      10.269   5.498  23.813  0.00  0.00    -0.395 OA
ATOM     35  C   UNL     1       9.902   1.427  24.001  0.00  0.00    +0.008 A 
ENDBRANCH  22  25
ENDBRANCH   3  22
TORSDOF 6
ENDMDL
MODEL 8
REMARK VINA RESULT:      -7.9      1.541      2.039
REMARK  Name = 
REMARK  7 active torsions:
REMARK  status: ('A' for Active; 'I' for Inactive)
REMARK    1  A    between atoms: C_1  and  C_2
REMARK    2  A    between atoms: C_5  and  N_6
REMARK    3  A    between atoms: C_7  and  C_9
REMARK    4  A    between atoms: C_9  and  C_12
REMARK    5  A    between atoms: C_24  and  C_25
REMARK    6  A    between atoms: C_27  and  C_31
REMARK    7  A    between atoms: C_31  and  O_32
REMARK                            x       y       z     vdW  Elec       q    Type
REMARK                         _______ _______ _______ _____ _____    ______ ____
ROOT
ATOM      1  N   UNL     1       6.994   1.351  25.196  0.00  0.00    -0.270 N 
ATOM      2  H   UNL     1       7.814   0.963  25.633  0.00  0.00    +0.156 HD
ATOM      3  C   UNL     1       5.788   0.752  25.470  0.00  0.00    +0.229 C 
ATOM      4  O   UNL     1       4.678   1.029  25.038  0.00  0.00    -0.274 OA
ENDROOT
BRANCH   1   9
ATOM      5  C   UNL     1       7.397   5.941  21.932  0.00  0.00    +0.046 C 
ATOM      6  C   UNL     1       7.392   4.695  22.768  0.00  0.00    -0.024 A 
ATOM      7  C   UNL     1       8.372   4.364  23.711  0.00  0.00    +0.076 A 
ATOM      8  N   UNL     1       8.231   3.263  24.502  0.00  0.00    -0.232 NA
ATOM      9  C   UNL     1       7.168   2.456  24.360  0.00  0.00    +0.126 A 
ATOM     10  C   UNL     1       6.204   2.678  23.397  0.00  0.00    +0.044 A 
ATOM     11  C   UNL     1       6.318   3.809  22.597  0.00  0.00    +0.009 A 
BRANCH   7  12
ATOM     12  C   UNL     1       9.630   5.115  23.997  0.00  0.00    +0.001 A 
ATOM     13  C   UNL     1       9.681   6.048  25.055  0.00  0.00    +0.010 A 
ATOM     14  C   UNL     1      10.843   6.763  25.373  0.00  0.00    +0.001 A 
ATOM     15  C   UNL     1      12.004   6.570  24.632  0.00  0.00    +0.015 A 
ATOM     16  C   UNL     1      12.002   5.631  23.597  0.00  0.00    +0.059 A 
ATOM     17  C   UNL     1      10.831   4.912  23.297  0.00  0.00    +0.025 A 
BRANCH  16  18
ATOM     18  C   UNL     1      13.195   5.390  22.749  0.00  0.00    +0.337 C 
ATOM     19  O   UNL     1      13.166   5.491  21.534  0.00  0.00    -0.245 OA
BRANCH  18  20
ATOM     20  O   UNL     1      14.294   5.009  23.430  0.00  0.00    -0.477 OA
ATOM     21  H   UNL     1      14.270   4.096  23.771  0.00  0.00    +0.295 HD
ENDBRANCH  18  20
ENDBRANCH  16  18
ENDBRANCH   7  12
ENDBRANCH   1   9
BRANCH   3  22
ATOM     22  C   UNL     1       5.917  -0.379  26.471  0.00  0.00    +0.072 C 
ATOM     23  C   UNL     1       5.022  -0.366  27.708  0.00  0.00    +0.022 C 
ATOM     24  C   UNL     1       6.466  -0.002  27.842  0.00  0.00    +0.022 C 
BRANCH  22  25
ATOM     25  C   UNL     1       6.325  -1.715  25.848  0.00  0.00    -0.029 A 
ATOM     26  C   UNL     1       5.678  -2.241  24.714  0.00  0.00    +0.054 A 
ATOM     27  C   UNL     1       6.228  -3.338  24.080  0.00  0.00    +0.173 A 
ATOM     28  C   UNL     1       7.376  -3.942  24.535  0.00  0.00    +0.173 A 
ATOM     29  O   UNL     1       7.783  -4.961  23.733  0.00  0.00    -0.395 OA
ATOM     30  C   UNL     1       6.779  -4.891  22.714  0.00  0.00    +0.589 C 
ATOM     31  F   UNL     1       7.381  -4.617  21.530  0.00  0.00    -0.125 F 
ATOM     32  F   UNL     1       6.191  -6.107  22.602  0.00  0.00    -0.125 F 
ATOM     33  C   UNL     1       8.019  -3.502  25.667  0.00  0.00    +0.050 A 
ATOM     34  O   UNL     1       5.757  -3.908  22.938  0.00  0.00    -0.395 OA
ATOM     35  C   UNL     1       7.482  -2.388  26.323  0.00  0.00    +0.008 A 
ENDBRANCH  22  25
ENDBRANCH   3  22
TORSDOF 6
ENDMDL
MODEL 9
REMARK VINA RESULT:      -7.8      3.640      5.411
REMARK  Name = 
REMARK  7 active torsions:
REMARK  status: ('A' for Active; 'I' for Inactive)
REMARK    1  A    between atoms: C_1  and  C_2
REMARK    2  A    between atoms: C_5  and  N_6
REMARK    3  A    between atoms: C_7  and  C_9
REMARK    4  A    between atoms: C_9  and  C_12
REMARK    5  A    between atoms: C_24  and  C_25
REMARK    6  A    between atoms: C_27  and  C_31
REMARK    7  A    between atoms: C_31  and  O_32
REMARK                            x       y       z     vdW  Elec       q    Type
REMARK                         _______ _______ _______ _____ _____    ______ ____
ROOT
ATOM      1  N   UNL     1       9.000  -2.130  24.466  0.00  0.00    -0.270 N 
ATOM      2  H   UNL     1       9.430  -2.700  23.756  0.00  0.00    +0.156 HD
ATOM      3  C   UNL     1       8.327  -2.777  25.475  0.00  0.00    +0.229 C 
ATOM      4  O   UNL     1       7.712  -2.299  26.417  0.00  0.00    -0.274 OA
ENDROOT
BRANCH   1   9
ATOM      5  C   UNL     1       9.748   3.419  23.736  0.00  0.00    +0.046 C 
ATOM      6  C   UNL     1       9.473   1.968  24.006  0.00  0.00    -0.024 A 
ATOM      7  C   UNL     1       8.205   1.376  23.962  0.00  0.00    +0.076 A 
ATOM      8  N   UNL     1       8.062   0.030  24.115  0.00  0.00    -0.232 NA
ATOM      9  C   UNL     1       9.132  -0.745  24.352  0.00  0.00    +0.126 A 
ATOM     10  C   UNL     1      10.401  -0.218  24.486  0.00  0.00    +0.044 A 
ATOM     11  C   UNL     1      10.571   1.150  24.309  0.00  0.00    +0.009 A 
BRANCH   7  12
ATOM     12  C   UNL     1       6.901   2.067  23.739  0.00  0.00    +0.001 A 
ATOM     13  C   UNL     1       6.617   2.674  22.497  0.00  0.00    +0.010 A 
ATOM     14  C   UNL     1       5.400   3.318  22.235  0.00  0.00    +0.001 A 
ATOM     15  C   UNL     1       4.419   3.380  23.219  0.00  0.00    +0.015 A 
ATOM     16  C   UNL     1       4.651   2.763  24.449  0.00  0.00    +0.059 A 
ATOM     17  C   UNL     1       5.872   2.110  24.695  0.00  0.00    +0.025 A 
BRANCH  16  18
ATOM     18  C   UNL     1       3.660   2.809  25.554  0.00  0.00    +0.337 C 
ATOM     19  O   UNL     1       2.952   1.858  25.838  0.00  0.00    -0.245 OA
BRANCH  18  20
ATOM     20  O   UNL     1       3.583   3.999  26.182  0.00  0.00    -0.477 OA
ATOM     21  H   UNL     1       3.875   4.763  25.652  0.00  0.00    +0.295 HD
ENDBRANCH  18  20
ENDBRANCH  16  18
ENDBRANCH   7  12
ENDBRANCH   1   9
BRANCH   3  22
ATOM     22  C   UNL     1       8.423  -4.286  25.360  0.00  0.00    +0.072 C 
ATOM     23  C   UNL     1       9.061  -5.066  26.508  0.00  0.00    +0.022 C 
ATOM     24  C   UNL     1       9.830  -4.861  25.242  0.00  0.00    +0.022 C 
BRANCH  22  25
ATOM     25  C   UNL     1       7.290  -4.920  24.554  0.00  0.00    -0.029 A 
ATOM     26  C   UNL     1       5.995  -5.083  25.082  0.00  0.00    +0.054 A 
ATOM     27  C   UNL     1       4.972  -5.465  24.236  0.00  0.00    +0.173 A 
ATOM     28  C   UNL     1       5.185  -5.710  22.900  0.00  0.00    +0.173 A 
ATOM     29  O   UNL     1       4.038  -6.010  22.235  0.00  0.00    -0.395 OA
ATOM     30  C   UNL     1       3.092  -5.884  23.303  0.00  0.00    +0.589 C 
ATOM     31  F   UNL     1       2.216  -4.896  22.993  0.00  0.00    -0.125 F 
ATOM     32  F   UNL     1       2.390  -7.039  23.397  0.00  0.00    -0.125 F 
ATOM     33  C   UNL     1       6.438  -5.617  22.344  0.00  0.00    +0.050 A 
ATOM     34  O   UNL     1       3.664  -5.591  24.587  0.00  0.00    -0.395 OA
ATOM     35  C   UNL     1       7.489  -5.226  23.181  0.00  0.00    +0.008 A 
ENDBRANCH  22  25
ENDBRANCH   3  22
TORSDOF 6
ENDMDL
