MODEL 1
REMARK VINA RESULT:      -7.3      0.000      0.000
REMARK  Name = 
REMARK  2 active torsions:
REMARK  status: ('A' for Active; 'I' for Inactive)
REMARK    1  A    between atoms: C_8  and  C_11
REMARK    2  A    between atoms: C_19  and  C_20
REMARK                            x       y       z     vdW  Elec       q    Type
REMARK                         _______ _______ _______ _____ _____    ______ ____
ROOT
ATOM      1  C   UNL     1       8.156   3.866  23.479  0.00  0.00    +0.055 A 
ATOM      2  C   UNL     1       8.553   5.214  23.779  0.00  0.00    +0.103 A 
ATOM      3  N   UNL     1       7.522   6.062  23.616  0.00  0.00    -0.166 NA
ATOM      4  N   UNL     1       6.473   5.313  23.226  0.00  0.00    -0.239 N 
ATOM      5  C   UNL     1       5.180   5.776  22.962  0.00  0.00    +0.113 A 
ATOM      6  C   UNL     1       4.222   4.929  22.557  0.00  0.00    +0.020 A 
ATOM      7  C   UNL     1       4.551   3.525  22.417  0.00  0.00    +0.004 A 
ATOM      8  C   UNL     1       5.780   3.064  22.709  0.00  0.00    +0.028 A 
ATOM      9  C   UNL     1       6.817   3.967  23.114  0.00  0.00    +0.077 A 
ENDROOT
BRANCH   1  16
ATOM     10  N   UNL     1       9.415  -0.877  20.782  0.00  0.00    -0.341 N 
ATOM     11  H   UNL     1       8.705  -0.287  20.364  0.00  0.00    +0.144 HD
ATOM     12  H   UNL     1       9.320  -1.844  20.487  0.00  0.00    +0.144 HD
ATOM     13  C   UNL     1       9.712  -0.713  22.082  0.00  0.00    +0.147 A 
ATOM     14  C   UNL     1       9.542   0.498  22.788  0.00  0.00    +0.064 A 
ATOM     15  C   UNL     1       9.179   1.816  22.518  0.00  0.00    +0.045 A 
ATOM     16  C   UNL     1       8.865   2.597  23.626  0.00  0.00    +0.098 A 
ATOM     17  N   UNL     1       9.076   2.170  24.901  0.00  0.00    -0.147 NA
ATOM     18  N   UNL     1       9.587   0.961  25.167  0.00  0.00    -0.129 NA
ATOM     19  C   UNL     1       9.754   0.154  24.107  0.00  0.00    +0.180 A 
ATOM     20  N   UNL     1      10.147  -1.145  24.097  0.00  0.00    -0.257 N 
ATOM     21  H   UNL     1      10.416  -1.712  24.893  0.00  0.00    +0.191 HD
ATOM     22  N   UNL     1      10.106  -1.713  22.872  0.00  0.00    -0.157 NA
ENDBRANCH   1  16
BRANCH   2  23
ATOM     23  C   UNL     1       9.853   5.750  24.215  0.00  0.00    +0.003 A 
ATOM     24  C   UNL     1      11.042   5.455  23.534  0.00  0.00    +0.010 A 
ATOM     25  C   UNL     1      12.271   5.945  23.990  0.00  0.00    +0.001 A 
ATOM     26  C   UNL     1      12.326   6.764  25.115  0.00  0.00    +0.000 A 
ATOM     27  C   UNL     1      11.151   7.108  25.777  0.00  0.00    +0.001 A 
ATOM     28  C   UNL     1       9.925   6.605  25.329  0.00  0.00    +0.010 A 
ENDBRANCH   2  23
TORSDOF 2
ENDMDL
MODEL 2
REMARK VINA RESULT:      -7.3      4.743      8.444
REMARK  Name = 
REMARK  2 active torsions:
REMARK  status: ('A' for Active; 'I' for Inactive)
REMARK    1  A    between atoms: C_8  and  C_11
REMARK    2  A    between atoms: C_19  and  C_20
REMARK                            x       y       z     vdW  Elec       q    Type
REMARK                         _______ _______ _______ _____ _____    ______ ____
ROOT
ATOM      1  C   UNL     1       7.758  -1.770  24.247  0.00  0.00    +0.055 A 
ATOM      2  C   UNL     1       7.936  -2.402  22.968  0.00  0.00    +0.103 A 
ATOM      3  N   UNL     1       8.749  -1.672  22.185  0.00  0.00    -0.166 NA
ATOM      4  N   UNL     1       9.106  -0.594  22.909  0.00  0.00    -0.239 N 
ATOM      5  C   UNL     1       9.965   0.430  22.498  0.00  0.00    +0.113 A 
ATOM      6  C   UNL     1      10.226   1.467  23.307  0.00  0.00    +0.020 A 
ATOM      7  C   UNL     1       9.614   1.494  24.620  0.00  0.00    +0.004 A 
ATOM      8  C   UNL     1       8.820   0.493  25.040  0.00  0.00    +0.028 A 
ATOM      9  C   UNL     1       8.512  -0.603  24.171  0.00  0.00    +0.077 A 
ENDROOT
BRANCH   1  16
ATOM     10  N   UNL     1       7.316  -6.130  27.733  0.00  0.00    -0.341 N 
ATOM     11  H   UNL     1       7.789  -6.294  26.851  0.00  0.00    +0.144 HD
ATOM     12  H   UNL     1       6.937  -6.989  28.121  0.00  0.00    +0.144 HD
ATOM     13  C   UNL     1       6.512  -5.060  27.848  0.00  0.00    +0.147 A 
ATOM     14  C   UNL     1       6.654  -3.877  27.090  0.00  0.00    +0.064 A 
ATOM     15  C   UNL     1       7.543  -3.336  26.165  0.00  0.00    +0.045 A 
ATOM     16  C   UNL     1       7.085  -2.225  25.461  0.00  0.00    +0.098 A 
ATOM     17  N   UNL     1       5.925  -1.589  25.781  0.00  0.00    -0.147 NA
ATOM     18  N   UNL     1       5.144  -2.005  26.786  0.00  0.00    -0.129 NA
ATOM     19  C   UNL     1       5.510  -3.157  27.369  0.00  0.00    +0.180 A 
ATOM     20  N   UNL     1       4.851  -3.857  28.328  0.00  0.00    -0.257 N 
ATOM     21  H   UNL     1       3.985  -3.602  28.790  0.00  0.00    +0.191 HD
ATOM     22  N   UNL     1       5.428  -5.042  28.624  0.00  0.00    -0.157 NA
ENDBRANCH   1  16
BRANCH   2  23
ATOM     23  C   UNL     1       7.384  -3.663  22.443  0.00  0.00    +0.003 A 
ATOM     24  C   UNL     1       7.837  -4.912  22.889  0.00  0.00    +0.010 A 
ATOM     25  C   UNL     1       7.324  -6.096  22.349  0.00  0.00    +0.001 A 
ATOM     26  C   UNL     1       6.328  -6.049  21.376  0.00  0.00    +0.000 A 
ATOM     27  C   UNL     1       5.831  -4.819  20.954  0.00  0.00    +0.001 A 
ATOM     28  C   UNL     1       6.355  -3.636  21.485  0.00  0.00    +0.010 A 
ENDBRANCH   2  23
TORSDOF 2
ENDMDL
MODEL 3
REMARK VINA RESULT:      -6.8      4.250      7.540
REMARK  Name = 
REMARK  2 active torsions:
REMARK  status: ('A' for Active; 'I' for Inactive)
REMARK    1  A    between atoms: C_8  and  C_11
REMARK    2  A    between atoms: C_19  and  C_20
REMARK                            x       y       z     vdW  Elec       q    Type
REMARK                         _______ _______ _______ _____ _____    ______ ____
ROOT
ATOM      1  C   UNL     1       8.306  -1.595  25.618  0.00  0.00    +0.055 A 
ATOM      2  C   UNL     1       9.184  -1.404  24.497  0.00  0.00    +0.103 A 
ATOM      3  N   UNL     1       9.676  -2.580  24.071  0.00  0.00    -0.166 NA
ATOM      4  N   UNL     1       9.145  -3.525  24.871  0.00  0.00    -0.239 N 
ATOM      5  C   UNL     1       9.363  -4.904  24.779  0.00  0.00    +0.113 A 
ATOM      6  C   UNL     1       8.792  -5.745  25.654  0.00  0.00    +0.020 A 
ATOM      7  C   UNL     1       7.933  -5.195  26.683  0.00  0.00    +0.004 A 
ATOM      8  C   UNL     1       7.685  -3.876  26.755  0.00  0.00    +0.028 A 
ATOM      9  C   UNL     1       8.314  -2.968  25.842  0.00  0.00    +0.077 A 
ENDROOT
BRANCH   1  16
ATOM     10  N   UNL     1       8.093   1.678  30.157  0.00  0.00    -0.341 N 
ATOM     11  H   UNL     1       8.853   1.008  30.110  0.00  0.00    +0.144 HD
ATOM     12  H   UNL     1       7.886   1.944  31.116  0.00  0.00    +0.144 HD
ATOM     13  C   UNL     1       7.012   1.487  29.383  0.00  0.00    +0.147 A 
ATOM     14  C   UNL     1       7.028   0.783  28.158  0.00  0.00    +0.064 A 
ATOM     15  C   UNL     1       7.963   0.189  27.313  0.00  0.00    +0.045 A 
ATOM     16  C   UNL     1       7.445  -0.659  26.339  0.00  0.00    +0.098 A 
ATOM     17  N   UNL     1       6.110  -0.762  26.098  0.00  0.00    -0.147 NA
ATOM     18  N   UNL     1       5.208  -0.061  26.797  0.00  0.00    -0.129 NA
ATOM     19  C   UNL     1       5.695   0.646  27.829  0.00  0.00    +0.180 A 
ATOM     20  N   UNL     1       5.004   1.352  28.760  0.00  0.00    -0.257 N 
ATOM     21  H   UNL     1       4.001   1.493  28.806  0.00  0.00    +0.191 HD
ATOM     22  N   UNL     1       5.782   1.859  29.742  0.00  0.00    -0.157 NA
ENDBRANCH   1  16
BRANCH   2  23
ATOM     23  C   UNL     1       9.585  -0.170  23.800  0.00  0.00    +0.003 A 
ATOM     24  C   UNL     1      10.282   0.856  24.452  0.00  0.00    +0.010 A 
ATOM     25  C   UNL     1      10.619   2.035  23.779  0.00  0.00    +0.001 A 
ATOM     26  C   UNL     1      10.292   2.193  22.434  0.00  0.00    +0.000 A 
ATOM     27  C   UNL     1       9.642   1.166  21.756  0.00  0.00    +0.001 A 
ATOM     28  C   UNL     1       9.293  -0.006  22.434  0.00  0.00    +0.010 A 
ENDBRANCH   2  23
TORSDOF 2
ENDMDL
MODEL 4
REMARK VINA RESULT:      -6.8      4.785      7.067
REMARK  Name = 
REMARK  2 active torsions:
REMARK  status: ('A' for Active; 'I' for Inactive)
REMARK    1  A    between atoms: C_8  and  C_11
REMARK    2  A    between atoms: C_19  and  C_20
REMARK                            x       y       z     vdW  Elec       q    Type
REMARK                         _______ _______ _______ _____ _____    ______ ____
ROOT
ATOM      1  C   UNL     1       7.723  -1.316  24.892  0.00  0.00    +0.055 A 
ATOM      2  C   UNL     1       7.041  -0.123  25.313  0.00  0.00    +0.103 A 
ATOM      3  N   UNL     1       7.242   0.875  24.435  0.00  0.00    -0.166 NA
ATOM      4  N   UNL     1       8.025   0.371  23.461  0.00  0.00    -0.239 N 
ATOM      5  C   UNL     1       8.471   1.053  22.324  0.00  0.00    +0.113 A 
ATOM      6  C   UNL     1       9.269   0.445  21.434  0.00  0.00    +0.020 A 
ATOM      7  C   UNL     1       9.643  -0.935  21.667  0.00  0.00    +0.004 A 
ATOM      8  C   UNL     1       9.185  -1.611  22.735  0.00  0.00    +0.028 A 
ATOM      9  C   UNL     1       8.357  -0.960  23.707  0.00  0.00    +0.077 A 
ENDROOT
BRANCH   1  16
ATOM     10  N   UNL     1       4.294  -5.524  26.269  0.00  0.00    -0.341 N 
ATOM     11  H   UNL     1       3.864  -4.625  26.084  0.00  0.00    +0.144 HD
ATOM     12  H   UNL     1       3.708  -6.104  26.863  0.00  0.00    +0.144 HD
ATOM     13  C   UNL     1       5.605  -5.570  26.557  0.00  0.00    +0.147 A 
ATOM     14  C   UNL     1       6.546  -4.608  26.126  0.00  0.00    +0.064 A 
ATOM     15  C   UNL     1       6.580  -3.485  25.303  0.00  0.00    +0.045 A 
ATOM     16  C   UNL     1       7.706  -2.676  25.429  0.00  0.00    +0.098 A 
ATOM     17  N   UNL     1       8.790  -3.046  26.164  0.00  0.00    -0.147 NA
ATOM     18  N   UNL     1       8.832  -4.210  26.825  0.00  0.00    -0.129 NA
ATOM     19  C   UNL     1       7.695  -4.922  26.821  0.00  0.00    +0.180 A 
ATOM     20  N   UNL     1       7.425  -6.072  27.491  0.00  0.00    -0.257 N 
ATOM     21  H   UNL     1       8.056  -6.604  28.080  0.00  0.00    +0.191 HD
ATOM     22  N   UNL     1       6.143  -6.480  27.370  0.00  0.00    -0.157 NA
ENDBRANCH   1  16
BRANCH   2  23
ATOM     23  C   UNL     1       6.204   0.129  26.498  0.00  0.00    +0.003 A 
ATOM     24  C   UNL     1       6.729   0.690  27.670  0.00  0.00    +0.010 A 
ATOM     25  C   UNL     1       5.923   0.886  28.796  0.00  0.00    +0.001 A 
ATOM     26  C   UNL     1       4.571   0.552  28.757  0.00  0.00    +0.000 A 
ATOM     27  C   UNL     1       4.019   0.039  27.587  0.00  0.00    +0.001 A 
ATOM     28  C   UNL     1       4.831  -0.170  26.467  0.00  0.00    +0.010 A 
ENDBRANCH   2  23
TORSDOF 2
ENDMDL
MODEL 5
REMARK VINA RESULT:      -6.8      1.660      2.327
REMARK  Name = 
REMARK  2 active torsions:
REMARK  status: ('A' for Active; 'I' for Inactive)
REMARK    1  A    between atoms: C_8  and  C_11
REMARK    2  A    between atoms: C_19  and  C_20
REMARK                            x       y       z     vdW  Elec       q    Type
REMARK                         _______ _______ _______ _____ _____    ______ ____
ROOT
ATOM      1  C   UNL     1       7.557   3.341  23.810  0.00  0.00    +0.055 A 
ATOM      2  C   UNL     1       8.305   4.466  24.298  0.00  0.00    +0.103 A 
ATOM      3  N   UNL     1       7.524   5.277  25.032  0.00  0.00    -0.166 NA
ATOM      4  N   UNL     1       6.299   4.717  25.040  0.00  0.00    -0.239 N 
ATOM      5  C   UNL     1       5.170   5.209  25.704  0.00  0.00    +0.113 A 
ATOM      6  C   UNL     1       3.995   4.568  25.617  0.00  0.00    +0.020 A 
ATOM      7  C   UNL     1       3.926   3.349  24.837  0.00  0.00    +0.004 A 
ATOM      8  C   UNL     1       5.015   2.846  24.230  0.00  0.00    +0.028 A 
ATOM      9  C   UNL     1       6.268   3.540  24.294  0.00  0.00    +0.077 A 
ENDROOT
BRANCH   1  16
ATOM     10  N   UNL     1       9.881  -1.703  24.529  0.00  0.00    -0.341 N 
ATOM     11  H   UNL     1       9.926  -1.062  25.313  0.00  0.00    +0.144 HD
ATOM     12  H   UNL     1      10.617  -2.401  24.573  0.00  0.00    +0.144 HD
ATOM     13  C   UNL     1       9.647  -1.211  23.301  0.00  0.00    +0.147 A 
ATOM     14  C   UNL     1       8.948  -0.009  23.048  0.00  0.00    +0.064 A 
ATOM     15  C   UNL     1       8.242   0.953  23.766  0.00  0.00    +0.045 A 
ATOM     16  C   UNL     1       7.979   2.141  23.091  0.00  0.00    +0.098 A 
ATOM     17  N   UNL     1       8.224   2.292  21.761  0.00  0.00    -0.147 NA
ATOM     18  N   UNL     1       8.750   1.307  21.022  0.00  0.00    -0.129 NA
ATOM     19  C   UNL     1       9.137   0.214  21.700  0.00  0.00    +0.180 A 
ATOM     20  N   UNL     1       9.790  -0.877  21.226  0.00  0.00    -0.257 N 
ATOM     21  H   UNL     1      10.063  -1.064  20.268  0.00  0.00    +0.191 HD
ATOM     22  N   UNL     1      10.140  -1.758  22.189  0.00  0.00    -0.157 NA
ENDBRANCH   1  16
BRANCH   2  23
ATOM     23  C   UNL     1       9.723   4.820  24.114  0.00  0.00    +0.003 A 
ATOM     24  C   UNL     1      10.242   6.050  24.540  0.00  0.00    +0.010 A 
ATOM     25  C   UNL     1      11.584   6.379  24.320  0.00  0.00    +0.001 A 
ATOM     26  C   UNL     1      12.436   5.468  23.698  0.00  0.00    +0.000 A 
ATOM     27  C   UNL     1      11.952   4.222  23.311  0.00  0.00    +0.001 A 
ATOM     28  C   UNL     1      10.606   3.901  23.518  0.00  0.00    +0.010 A 
ENDBRANCH   2  23
TORSDOF 2
ENDMDL
MODEL 6
REMARK VINA RESULT:      -6.7      3.529      7.111
REMARK  Name = 
REMARK  2 active torsions:
REMARK  status: ('A' for Active; 'I' for Inactive)
REMARK    1  A    between atoms: C_8  and  C_11
REMARK    2  A    between atoms: C_19  and  C_20
REMARK                            x       y       z     vdW  Elec       q    Type
REMARK                         _______ _______ _______ _____ _____    ______ ____
ROOT
ATOM      1  C   UNL     1       7.994  -1.439  25.368  0.00  0.00    +0.055 A 
ATOM      2  C   UNL     1       9.078  -1.253  24.443  0.00  0.00    +0.103 A 
ATOM      3  N   UNL     1       9.743  -2.405  24.250  0.00  0.00    -0.166 NA
ATOM      4  N   UNL     1       9.129  -3.330  25.012  0.00  0.00    -0.239 N 
ATOM      5  C   UNL     1       9.471  -4.683  25.107  0.00  0.00    +0.113 A 
ATOM      6  C   UNL     1       8.792  -5.503  25.923  0.00  0.00    +0.020 A 
ATOM      7  C   UNL     1       7.688  -4.960  26.688  0.00  0.00    +0.004 A 
ATOM      8  C   UNL     1       7.325  -3.671  26.572  0.00  0.00    +0.028 A 
ATOM      9  C   UNL     1       8.063  -2.782  25.725  0.00  0.00    +0.077 A 
ENDROOT
BRANCH   1  16
ATOM     10  N   UNL     1       4.531   2.555  23.520  0.00  0.00    -0.341 N 
ATOM     11  H   UNL     1       5.295   2.292  22.909  0.00  0.00    +0.144 HD
ATOM     12  H   UNL     1       4.200   3.495  23.324  0.00  0.00    +0.144 HD
ATOM     13  C   UNL     1       4.612   2.251  24.826  0.00  0.00    +0.147 A 
ATOM     14  C   UNL     1       5.363   1.172  25.344  0.00  0.00    +0.064 A 
ATOM     15  C   UNL     1       6.109   0.099  24.862  0.00  0.00    +0.045 A 
ATOM     16  C   UNL     1       6.924  -0.539  25.793  0.00  0.00    +0.098 A 
ATOM     17  N   UNL     1       6.862  -0.264  27.124  0.00  0.00    -0.147 NA
ATOM     18  N   UNL     1       6.021   0.652  27.619  0.00  0.00    -0.129 NA
ATOM     19  C   UNL     1       5.340   1.368  26.710  0.00  0.00    +0.180 A 
ATOM     20  N   UNL     1       4.510   2.421  26.923  0.00  0.00    -0.257 N 
ATOM     21  H   UNL     1       4.238   2.819  27.815  0.00  0.00    +0.191 HD
ATOM     22  N   UNL     1       4.068   3.001  25.786  0.00  0.00    -0.157 NA
ENDBRANCH   1  16
BRANCH   2  23
ATOM     23  C   UNL     1       9.521  -0.046  23.724  0.00  0.00    +0.003 A 
ATOM     24  C   UNL     1      10.287   0.948  24.348  0.00  0.00    +0.010 A 
ATOM     25  C   UNL     1      10.665   2.104  23.656  0.00  0.00    +0.001 A 
ATOM     26  C   UNL     1      10.308   2.268  22.320  0.00  0.00    +0.000 A 
ATOM     27  C   UNL     1       9.588   1.271  21.668  0.00  0.00    +0.001 A 
ATOM     28  C   UNL     1       9.199   0.123  22.366  0.00  0.00    +0.010 A 
ENDBRANCH   2  23
TORSDOF 2
ENDMDL
MODEL 7
REMARK VINA RESULT:      -6.7      1.563      4.924
REMARK  Name = 
REMARK  2 active torsions:
REMARK  status: ('A' for Active; 'I' for Inactive)
REMARK    1  A    between atoms: C_8  and  C_11
REMARK    2  A    between atoms: C_19  and  C_20
REMARK                            x       y       z     vdW  Elec       q    Type
REMARK                         _______ _______ _______ _____ _____    ______ ____
ROOT
ATOM      1  C   UNL     1       8.777   3.067  23.462  0.00  0.00    +0.055 A 
ATOM      2  C   UNL     1       7.724   4.013  23.712  0.00  0.00    +0.103 A 
ATOM      3  N   UNL     1       8.225   5.248  23.888  0.00  0.00    -0.166 NA
ATOM      4  N   UNL     1       9.561   5.137  23.759  0.00  0.00    -0.239 N 
ATOM      5  C   UNL     1      10.489   6.181  23.844  0.00  0.00    +0.113 A 
ATOM      6  C   UNL     1      11.802   5.938  23.718  0.00  0.00    +0.020 A 
ATOM      7  C   UNL     1      12.235   4.577  23.476  0.00  0.00    +0.004 A 
ATOM      8  C   UNL     1      11.348   3.574  23.351  0.00  0.00    +0.028 A 
ATOM      9  C   UNL     1       9.946   3.820  23.513  0.00  0.00    +0.077 A 
ENDROOT
BRANCH   1  16
ATOM     10  N   UNL     1       8.610  -2.106  25.601  0.00  0.00    -0.341 N 
ATOM     11  H   UNL     1       8.823  -1.351  26.243  0.00  0.00    +0.144 HD
ATOM     12  H   UNL     1       8.965  -2.996  25.937  0.00  0.00    +0.144 HD
ATOM     13  C   UNL     1       8.770  -1.900  24.283  0.00  0.00    +0.147 A 
ATOM     14  C   UNL     1       8.691  -0.633  23.662  0.00  0.00    +0.064 A 
ATOM     15  C   UNL     1       8.376   0.677  24.013  0.00  0.00    +0.045 A 
ATOM     16  C   UNL     1       8.736   1.655  23.089  0.00  0.00    +0.098 A 
ATOM     17  N   UNL     1       9.192   1.347  21.845  0.00  0.00    -0.147 NA
ATOM     18  N   UNL     1       9.338   0.080  21.438  0.00  0.00    -0.129 NA
ATOM     19  C   UNL     1       9.129  -0.859  22.374  0.00  0.00    +0.180 A 
ATOM     20  N   UNL     1       9.309  -2.201  22.269  0.00  0.00    -0.257 N 
ATOM     21  H   UNL     1       9.597  -2.721  21.447  0.00  0.00    +0.191 HD
ATOM     22  N   UNL     1       9.121  -2.864  23.431  0.00  0.00    -0.157 NA
ENDBRANCH   1  16
BRANCH   2  23
ATOM     23  C   UNL     1       6.267   3.818  23.790  0.00  0.00    +0.003 A 
ATOM     24  C   UNL     1       5.582   3.832  25.012  0.00  0.00    +0.010 A 
ATOM     25  C   UNL     1       4.202   3.607  25.065  0.00  0.00    +0.001 A 
ATOM     26  C   UNL     1       3.481   3.395  23.892  0.00  0.00    +0.000 A 
ATOM     27  C   UNL     1       4.135   3.424  22.663  0.00  0.00    +0.001 A 
ATOM     28  C   UNL     1       5.517   3.635  22.614  0.00  0.00    +0.010 A 
ENDBRANCH   2  23
TORSDOF 2
ENDMDL
MODEL 8
REMARK VINA RESULT:      -6.6      4.538      6.098
REMARK  Name = 
REMARK  2 active torsions:
REMARK  status: ('A' for Active; 'I' for Inactive)
REMARK    1  A    between atoms: C_8  and  C_11
REMARK    2  A    between atoms: C_19  and  C_20
REMARK                            x       y       z     vdW  Elec       q    Type
REMARK                         _______ _______ _______ _____ _____    ______ ____
ROOT
ATOM      1  C   UNL     1       6.598  -0.949  26.442  0.00  0.00    +0.055 A 
ATOM      2  C   UNL     1       7.344   0.279  26.450  0.00  0.00    +0.103 A 
ATOM      3  N   UNL     1       6.882   1.110  27.400  0.00  0.00    -0.166 NA
ATOM      4  N   UNL     1       5.869   0.465  28.008  0.00  0.00    -0.239 N 
ATOM      5  C   UNL     1       5.106   0.947  29.078  0.00  0.00    +0.113 A 
ATOM      6  C   UNL     1       4.104   0.214  29.585  0.00  0.00    +0.020 A 
ATOM      7  C   UNL     1       3.841  -1.091  29.013  0.00  0.00    +0.004 A 
ATOM      8  C   UNL     1       4.595  -1.580  28.013  0.00  0.00    +0.028 A 
ATOM      9  C   UNL     1       5.648  -0.791  27.446  0.00  0.00    +0.077 A 
ENDROOT
BRANCH   1  16
ATOM     10  N   UNL     1      10.036  -5.338  25.920  0.00  0.00    -0.341 N 
ATOM     11  H   UNL     1      10.374  -4.554  26.466  0.00  0.00    +0.144 HD
ATOM     12  H   UNL     1      10.802  -5.895  25.550  0.00  0.00    +0.144 HD
ATOM     13  C   UNL     1       9.019  -5.143  25.065  0.00  0.00    +0.147 A 
ATOM     14  C   UNL     1       8.040  -4.136  25.213  0.00  0.00    +0.064 A 
ATOM     15  C   UNL     1       7.680  -3.167  26.147  0.00  0.00    +0.045 A 
ATOM     16  C   UNL     1       6.794  -2.192  25.697  0.00  0.00    +0.098 A 
ATOM     17  N   UNL     1       6.172  -2.275  24.490  0.00  0.00    -0.147 NA
ATOM     18  N   UNL     1       6.386  -3.297  23.652  0.00  0.00    -0.129 NA
ATOM     19  C   UNL     1       7.345  -4.161  24.022  0.00  0.00    +0.180 A 
ATOM     20  N   UNL     1       7.838  -5.214  23.322  0.00  0.00    -0.257 N 
ATOM     21  H   UNL     1       7.535  -5.545  22.413  0.00  0.00    +0.191 HD
ATOM     22  N   UNL     1       8.885  -5.821  23.924  0.00  0.00    -0.157 NA
ENDBRANCH   1  16
BRANCH   2  23
ATOM     23  C   UNL     1       8.474   0.713  25.612  0.00  0.00    +0.003 A 
ATOM     24  C   UNL     1       9.619  -0.079  25.444  0.00  0.00    +0.010 A 
ATOM     25  C   UNL     1      10.696   0.371  24.673  0.00  0.00    +0.001 A 
ATOM     26  C   UNL     1      10.632   1.606  24.032  0.00  0.00    +0.000 A 
ATOM     27  C   UNL     1       9.485   2.386  24.147  0.00  0.00    +0.001 A 
ATOM     28  C   UNL     1       8.415   1.941  24.930  0.00  0.00    +0.010 A 
ENDBRANCH   2  23
TORSDOF 2
ENDMDL
MODEL 9
REMARK VINA RESULT:      -6.6      2.704      4.969
REMARK  Name = 
REMARK  2 active torsions:
REMARK  status: ('A' for Active; 'I' for Inactive)
REMARK    1  A    between atoms: C_8  and  C_11
REMARK    2  A    between atoms: C_19  and  C_20
REMARK                            x       y       z     vdW  Elec       q    Type
REMARK                         _______ _______ _______ _____ _____    ______ ____
ROOT
ATOM      1  C   UNL     1       8.410   3.132  24.788  0.00  0.00    +0.055 A 
ATOM      2  C   UNL     1       7.552   3.286  25.930  0.00  0.00    +0.103 A 
ATOM      3  N   UNL     1       7.708   4.501  26.483  0.00  0.00    -0.166 NA
ATOM      4  N   UNL     1       8.632   5.140  25.739  0.00  0.00    -0.239 N 
ATOM      5  C   UNL     1       9.092   6.446  25.936  0.00  0.00    +0.113 A 
ATOM      6  C   UNL     1      10.036   6.964  25.136  0.00  0.00    +0.020 A 
ATOM      7  C   UNL     1      10.553   6.149  24.056  0.00  0.00    +0.004 A 
ATOM      8  C   UNL     1      10.087   4.908  23.833  0.00  0.00    +0.028 A 
ATOM      9  C   UNL     1       9.100   4.336  24.701  0.00  0.00    +0.077 A 
ENDROOT
BRANCH   1  16
ATOM     10  N   UNL     1       9.954  -2.211  24.130  0.00  0.00    -0.341 N 
ATOM     11  H   UNL     1      10.226  -1.758  24.995  0.00  0.00    +0.144 HD
ATOM     12  H   UNL     1      10.563  -2.993  23.908  0.00  0.00    +0.144 HD
ATOM     13  C   UNL     1       9.616  -1.447  23.078  0.00  0.00    +0.147 A 
ATOM     14  C   UNL     1       9.095  -0.139  23.182  0.00  0.00    +0.064 A 
ATOM     15  C   UNL     1       8.676   0.736  24.182  0.00  0.00    +0.045 A 
ATOM     16  C   UNL     1       8.511   2.063  23.795  0.00  0.00    +0.098 A 
ATOM     17  N   UNL     1       8.568   2.454  22.493  0.00  0.00    -0.147 NA
ATOM     18  N   UNL     1       8.803   1.585  21.503  0.00  0.00    -0.129 NA
ATOM     19  C   UNL     1       9.105   0.334  21.886  0.00  0.00    +0.180 A 
ATOM     20  N   UNL     1       9.487  -0.711  21.108  0.00  0.00    -0.257 N 
ATOM     21  H   UNL     1       9.572  -0.727  20.098  0.00  0.00    +0.191 HD
ATOM     22  N   UNL     1       9.833  -1.811  21.813  0.00  0.00    -0.157 NA
ENDBRANCH   1  16
BRANCH   2  23
ATOM     23  C   UNL     1       6.586   2.349  26.530  0.00  0.00    +0.003 A 
ATOM     24  C   UNL     1       5.382   2.018  25.894  0.00  0.00    +0.010 A 
ATOM     25  C   UNL     1       4.463   1.155  26.500  0.00  0.00    +0.001 A 
ATOM     26  C   UNL     1       4.749   0.585  27.739  0.00  0.00    +0.000 A 
ATOM     27  C   UNL     1       5.960   0.864  28.365  0.00  0.00    +0.001 A 
ATOM     28  C   UNL     1       6.871   1.739  27.764  0.00  0.00    +0.010 A 
ENDBRANCH   2  23
TORSDOF 2
ENDMDL
