MODEL 1
REMARK VINA RESULT:      -6.1      0.000      0.000
REMARK  Name = 
REMARK  9 active torsions:
REMARK  status: ('A' for Active; 'I' for Inactive)
REMARK    1  A    between atoms: C_1  and  C_2
REMARK    2  A    between atoms: C_2  and  N_3
REMARK    3  A    between atoms: C_7  and  C_9
REMARK    4  A    between atoms: C_9  and  N_10
REMARK    5  A    between atoms: C_11  and  C_13
REMARK    6  A    between atoms: C_14  and  O_15
REMARK    7  A    between atoms: O_15  and  C_16
REMARK    8  A    between atoms: C_21  and  O_22
REMARK    9  A    between atoms: O_22  and  C_23
REMARK                            x       y       z     vdW  Elec       q    Type
REMARK                         _______ _______ _______ _____ _____    ______ ____
ROOT
ATOM      1  N   UNL     1       8.221  -2.992  23.298  0.00  0.00    -0.310 N 
ATOM      2  H   UNL     1       7.320  -2.832  22.861  0.00  0.00    +0.149 HD
ATOM      3  C   UNL     1       8.386  -4.173  24.009  0.00  0.00    +0.251 C 
ATOM      4  O   UNL     1       9.486  -4.488  24.456  0.00  0.00    -0.270 OA
ENDROOT
BRANCH   3   5
ATOM      5  C   UNL     1       7.137  -5.031  24.220  0.00  0.00    +0.121 A 
ATOM      6  C   UNL     1       6.587  -5.277  25.522  0.00  0.00    +0.150 A 
ATOM      7  C   UNL     1       5.415  -6.060  25.635  0.00  0.00    +0.060 A 
ATOM      8 BR   UNL     1       4.420  -6.402  27.224  0.00  0.00    -0.046 Br
ATOM      9  C   UNL     1       4.823  -6.611  24.497  0.00  0.00    +0.022 A 
ATOM     10  C   UNL     1       5.357  -6.380  23.238  0.00  0.00    +0.048 A 
ATOM     11  C   UNL     1       6.510  -5.606  23.081  0.00  0.00    +0.136 A 
BRANCH   6  12
ATOM     12  O   UNL     1       7.211  -4.634  26.565  0.00  0.00    -0.493 OA
ATOM     13  C   UNL     1       6.679  -3.408  27.053  0.00  0.00    +0.277 C 
ENDBRANCH   6  12
BRANCH  11  14
ATOM     14  O   UNL     1       7.033  -5.365  21.835  0.00  0.00    -0.494 OA
ATOM     15  C   UNL     1       6.212  -5.656  20.708  0.00  0.00    +0.277 C 
ENDBRANCH  11  14
ENDBRANCH   3   5
BRANCH   1  16
ATOM     16  C   UNL     1       9.293  -2.037  23.033  0.00  0.00    +0.123 C 
BRANCH  16  18
ATOM     17  N   UNL     1       9.269   0.393  23.975  0.00  0.00    -0.298 NA
ATOM     18  C   UNL     1       8.788  -0.570  22.960  0.00  0.00    +0.074 C 
ATOM     19  C   UNL     1       9.207   0.092  21.631  0.00  0.00    +0.022 C 
ATOM     20  C   UNL     1      10.010   1.327  22.009  0.00  0.00    +0.017 C 
ATOM     21  C   UNL     1      10.447   1.059  23.434  0.00  0.00    +0.085 C 
BRANCH  17  23
ATOM     22  C   UNL     1       8.075  -0.119  26.073  0.00  0.00    +0.020 C 
ATOM     23  C   UNL     1       9.415  -0.103  25.337  0.00  0.00    +0.081 C 
ENDBRANCH  17  23
ENDBRANCH  16  18
ENDBRANCH   1  16
TORSDOF 6
ENDMDL
MODEL 2
REMARK VINA RESULT:      -6.1      1.579      2.288
REMARK  Name = 
REMARK  9 active torsions:
REMARK  status: ('A' for Active; 'I' for Inactive)
REMARK    1  A    between atoms: C_1  and  C_2
REMARK    2  A    between atoms: C_2  and  N_3
REMARK    3  A    between atoms: C_7  and  C_9
REMARK    4  A    between atoms: C_9  and  N_10
REMARK    5  A    between atoms: C_11  and  C_13
REMARK    6  A    between atoms: C_14  and  O_15
REMARK    7  A    between atoms: O_15  and  C_16
REMARK    8  A    between atoms: C_21  and  O_22
REMARK    9  A    between atoms: O_22  and  C_23
REMARK                            x       y       z     vdW  Elec       q    Type
REMARK                         _______ _______ _______ _____ _____    ______ ____
ROOT
ATOM      1  N   UNL     1       8.456  -2.648  22.747  0.00  0.00    -0.310 N 
ATOM      2  H   UNL     1       9.006  -3.389  23.164  0.00  0.00    +0.149 HD
ATOM      3  C   UNL     1       7.103  -2.603  23.055  0.00  0.00    +0.251 C 
ATOM      4  O   UNL     1       6.406  -1.663  22.686  0.00  0.00    -0.270 OA
ENDROOT
BRANCH   3   5
ATOM      5  C   UNL     1       6.538  -3.784  23.847  0.00  0.00    +0.121 A 
ATOM      6  C   UNL     1       6.746  -3.930  25.259  0.00  0.00    +0.150 A 
ATOM      7  C   UNL     1       6.172  -5.035  25.928  0.00  0.00    +0.060 A 
ATOM      8 BR   UNL     1       6.183  -5.366  27.805  0.00  0.00    -0.046 Br
ATOM      9  C   UNL     1       5.440  -5.987  25.216  0.00  0.00    +0.022 A 
ATOM     10  C   UNL     1       5.242  -5.852  23.849  0.00  0.00    +0.048 A 
ATOM     11  C   UNL     1       5.787  -4.770  23.151  0.00  0.00    +0.136 A 
BRANCH   6  12
ATOM     12  O   UNL     1       7.427  -2.903  25.871  0.00  0.00    -0.493 OA
ATOM     13  C   UNL     1       6.698  -1.873  26.530  0.00  0.00    +0.277 C 
ENDBRANCH   6  12
BRANCH  11  14
ATOM     14  O   UNL     1       5.582  -4.628  21.802  0.00  0.00    -0.494 OA
ATOM     15  C   UNL     1       6.180  -5.591  20.938  0.00  0.00    +0.277 C 
ENDBRANCH  11  14
ENDBRANCH   3   5
BRANCH   1  16
ATOM     16  C   UNL     1       9.154  -1.628  21.970  0.00  0.00    +0.123 C 
BRANCH  16  18
ATOM     17  N   UNL     1       9.830   0.721  22.874  0.00  0.00    -0.298 NA
ATOM     18  C   UNL     1      10.081  -0.737  22.841  0.00  0.00    +0.074 C 
ATOM     19  C   UNL     1       9.990  -1.136  24.328  0.00  0.00    +0.022 C 
ATOM     20  C   UNL     1       9.567   0.119  25.077  0.00  0.00    +0.017 C 
ATOM     21  C   UNL     1       8.955   0.998  24.006  0.00  0.00    +0.085 C 
BRANCH  17  23
ATOM     22  C   UNL     1       8.010   1.907  21.703  0.00  0.00    +0.020 C 
ATOM     23  C   UNL     1       9.432   1.350  21.621  0.00  0.00    +0.081 C 
ENDBRANCH  17  23
ENDBRANCH  16  18
ENDBRANCH   1  16
TORSDOF 6
ENDMDL
MODEL 3
REMARK VINA RESULT:      -6.0      0.724      1.905
REMARK  Name = 
REMARK  9 active torsions:
REMARK  status: ('A' for Active; 'I' for Inactive)
REMARK    1  A    between atoms: C_1  and  C_2
REMARK    2  A    between atoms: C_2  and  N_3
REMARK    3  A    between atoms: C_7  and  C_9
REMARK    4  A    between atoms: C_9  and  N_10
REMARK    5  A    between atoms: C_11  and  C_13
REMARK    6  A    between atoms: C_14  and  O_15
REMARK    7  A    between atoms: O_15  and  C_16
REMARK    8  A    between atoms: C_21  and  O_22
REMARK    9  A    between atoms: O_22  and  C_23
REMARK                            x       y       z     vdW  Elec       q    Type
REMARK                         _______ _______ _______ _____ _____    ______ ____
ROOT
ATOM      1  N   UNL     1       8.406  -3.248  23.850  0.00  0.00    -0.310 N 
ATOM      2  H   UNL     1       7.532  -2.849  23.528  0.00  0.00    +0.149 HD
ATOM      3  C   UNL     1       8.397  -4.582  24.237  0.00  0.00    +0.251 C 
ATOM      4  O   UNL     1       9.442  -5.161  24.517  0.00  0.00    -0.270 OA
ENDROOT
BRANCH   3   5
ATOM      5  C   UNL     1       7.031  -5.267  24.314  0.00  0.00    +0.121 A 
ATOM      6  C   UNL     1       6.392  -5.565  25.564  0.00  0.00    +0.150 A 
ATOM      7  C   UNL     1       5.119  -6.177  25.555  0.00  0.00    +0.060 A 
ATOM      8 BR   UNL     1       4.013  -6.535  27.065  0.00  0.00    -0.046 Br
ATOM      9  C   UNL     1       4.508  -6.516  24.346  0.00  0.00    +0.022 A 
ATOM     10  C   UNL     1       5.126  -6.236  23.136  0.00  0.00    +0.048 A 
ATOM     11  C   UNL     1       6.383  -5.624  23.100  0.00  0.00    +0.136 A 
BRANCH   6  12
ATOM     12  O   UNL     1       7.052  -5.131  26.690  0.00  0.00    -0.493 OA
ATOM     13  C   UNL     1       6.631  -3.932  27.332  0.00  0.00    +0.277 C 
ENDBRANCH   6  12
BRANCH  11  14
ATOM     14  O   UNL     1       6.991  -5.334  21.905  0.00  0.00    -0.494 OA
ATOM     15  C   UNL     1       6.265  -5.611  20.711  0.00  0.00    +0.277 C 
ENDBRANCH  11  14
ENDBRANCH   3   5
BRANCH   1  16
ATOM     16  C   UNL     1       9.612  -2.429  23.756  0.00  0.00    +0.123 C 
BRANCH  16  18
ATOM     17  N   UNL     1       9.386   0.164  23.881  0.00  0.00    -0.298 NA
ATOM     18  C   UNL     1       9.520  -1.125  24.594  0.00  0.00    +0.074 C 
ATOM     19  C   UNL     1       8.278  -1.144  25.509  0.00  0.00    +0.022 C 
ATOM     20  C   UNL     1       7.466   0.090  25.145  0.00  0.00    +0.017 C 
ATOM     21  C   UNL     1       7.964   0.463  23.764  0.00  0.00    +0.085 C 
BRANCH  17  23
ATOM     22  C   UNL     1       9.232   0.522  21.444  0.00  0.00    +0.020 C 
ATOM     23  C   UNL     1      10.150   0.319  22.650  0.00  0.00    +0.081 C 
ENDBRANCH  17  23
ENDBRANCH  16  18
ENDBRANCH   1  16
TORSDOF 6
ENDMDL
MODEL 4
REMARK VINA RESULT:      -5.8      2.702      3.511
REMARK  Name = 
REMARK  9 active torsions:
REMARK  status: ('A' for Active; 'I' for Inactive)
REMARK    1  A    between atoms: C_1  and  C_2
REMARK    2  A    between atoms: C_2  and  N_3
REMARK    3  A    between atoms: C_7  and  C_9
REMARK    4  A    between atoms: C_9  and  N_10
REMARK    5  A    between atoms: C_11  and  C_13
REMARK    6  A    between atoms: C_14  and  O_15
REMARK    7  A    between atoms: O_15  and  C_16
REMARK    8  A    between atoms: C_21  and  O_22
REMARK    9  A    between atoms: O_22  and  C_23
REMARK                            x       y       z     vdW  Elec       q    Type
REMARK                         _______ _______ _______ _____ _____    ______ ____
ROOT
ATOM      1  N   UNL     1       6.475   0.350  23.051  0.00  0.00    -0.310 N 
ATOM      2  H   UNL     1       6.253  -0.024  22.136  0.00  0.00    +0.149 HD
ATOM      3  C   UNL     1       6.830  -0.553  24.044  0.00  0.00    +0.251 C 
ATOM      4  O   UNL     1       7.230  -0.161  25.136  0.00  0.00    -0.270 OA
ENDROOT
BRANCH   3   5
ATOM      5  C   UNL     1       6.673  -2.039  23.711  0.00  0.00    +0.121 A 
ATOM      6  C   UNL     1       5.544  -2.808  24.150  0.00  0.00    +0.150 A 
ATOM      7  C   UNL     1       5.457  -4.169  23.782  0.00  0.00    +0.060 A 
ATOM      8 BR   UNL     1       3.999  -5.351  24.115  0.00  0.00    -0.046 Br
ATOM      9  C   UNL     1       6.472  -4.763  23.030  0.00  0.00    +0.022 A 
ATOM     10  C   UNL     1       7.568  -4.024  22.610  0.00  0.00    +0.048 A 
ATOM     11  C   UNL     1       7.690  -2.672  22.946  0.00  0.00    +0.136 A 
BRANCH   6  12
ATOM     12  O   UNL     1       4.574  -2.109  24.830  0.00  0.00    -0.493 OA
ATOM     13  C   UNL     1       4.462  -2.256  26.241  0.00  0.00    +0.277 C 
ENDBRANCH   6  12
BRANCH  11  14
ATOM     14  O   UNL     1       8.766  -1.935  22.521  0.00  0.00    -0.494 OA
ATOM     15  C   UNL     1      10.015  -2.155  23.171  0.00  0.00    +0.277 C 
ENDBRANCH  11  14
ENDBRANCH   3   5
BRANCH   1  16
ATOM     16  C   UNL     1       6.527   1.801  23.206  0.00  0.00    +0.123 C 
BRANCH  16  18
ATOM     17  N   UNL     1       8.954   2.733  23.387  0.00  0.00    -0.298 NA
ATOM     18  C   UNL     1       7.779   2.434  22.539  0.00  0.00    +0.074 C 
ATOM     19  C   UNL     1       8.361   1.498  21.460  0.00  0.00    +0.022 C 
ATOM     20  C   UNL     1       9.806   1.239  21.860  0.00  0.00    +0.017 C 
ATOM     21  C   UNL     1       9.845   1.581  23.335  0.00  0.00    +0.085 C 
BRANCH  17  23
ATOM     22  C   UNL     1       8.720   4.773  24.755  0.00  0.00    +0.020 C 
ATOM     23  C   UNL     1       8.688   3.245  24.725  0.00  0.00    +0.081 C 
ENDBRANCH  17  23
ENDBRANCH  16  18
ENDBRANCH   1  16
TORSDOF 6
ENDMDL
MODEL 5
REMARK VINA RESULT:      -5.8      1.700      3.697
REMARK  Name = 
REMARK  9 active torsions:
REMARK  status: ('A' for Active; 'I' for Inactive)
REMARK    1  A    between atoms: C_1  and  C_2
REMARK    2  A    between atoms: C_2  and  N_3
REMARK    3  A    between atoms: C_7  and  C_9
REMARK    4  A    between atoms: C_9  and  N_10
REMARK    5  A    between atoms: C_11  and  C_13
REMARK    6  A    between atoms: C_14  and  O_15
REMARK    7  A    between atoms: O_15  and  C_16
REMARK    8  A    between atoms: C_21  and  O_22
REMARK    9  A    between atoms: O_22  and  C_23
REMARK                            x       y       z     vdW  Elec       q    Type
REMARK                         _______ _______ _______ _____ _____    ______ ____
ROOT
ATOM      1  N   UNL     1       8.833  -1.611  22.916  0.00  0.00    -0.310 N 
ATOM      2  H   UNL     1       7.856  -1.346  22.849  0.00  0.00    +0.149 HD
ATOM      3  C   UNL     1       9.154  -2.666  23.760  0.00  0.00    +0.251 C 
ATOM      4  O   UNL     1      10.295  -3.118  23.792  0.00  0.00    -0.270 OA
ENDROOT
BRANCH   3   5
ATOM      5  C   UNL     1       8.030  -3.206  24.647  0.00  0.00    +0.121 A 
ATOM      6  C   UNL     1       7.152  -4.256  24.217  0.00  0.00    +0.150 A 
ATOM      7  C   UNL     1       6.152  -4.720  25.101  0.00  0.00    +0.060 A 
ATOM      8 BR   UNL     1       4.972  -6.190  24.821  0.00  0.00    -0.046 Br
ATOM      9  C   UNL     1       6.002  -4.140  26.362  0.00  0.00    +0.022 A 
ATOM     10  C   UNL     1       6.844  -3.119  26.778  0.00  0.00    +0.048 A 
ATOM     11  C   UNL     1       7.851  -2.635  25.936  0.00  0.00    +0.136 A 
BRANCH   6  12
ATOM     12  O   UNL     1       7.430  -4.799  22.984  0.00  0.00    -0.493 OA
ATOM     13  C   UNL     1       6.612  -4.461  21.869  0.00  0.00    +0.277 C 
ENDBRANCH   6  12
BRANCH  11  14
ATOM     14  O   UNL     1       8.695  -1.635  26.350  0.00  0.00    -0.494 OA
ATOM     15  C   UNL     1       8.134  -0.576  27.120  0.00  0.00    +0.277 C 
ENDBRANCH  11  14
ENDBRANCH   3   5
BRANCH   1  16
ATOM     16  C   UNL     1       9.786  -0.950  22.029  0.00  0.00    +0.123 C 
BRANCH  16  18
ATOM     17  N   UNL     1       9.175   1.521  22.586  0.00  0.00    -0.298 NA
ATOM     18  C   UNL     1      10.202   0.458  22.534  0.00  0.00    +0.074 C 
ATOM     19  C   UNL     1      10.706   0.393  23.991  0.00  0.00    +0.022 C 
ATOM     20  C   UNL     1       9.826   1.348  24.784  0.00  0.00    +0.017 C 
ATOM     21  C   UNL     1       8.593   1.514  23.922  0.00  0.00    +0.085 C 
BRANCH  17  23
ATOM     22  C   UNL     1       6.982   2.392  21.863  0.00  0.00    +0.020 C 
ATOM     23  C   UNL     1       8.210   1.559  21.494  0.00  0.00    +0.081 C 
ENDBRANCH  17  23
ENDBRANCH  16  18
ENDBRANCH   1  16
TORSDOF 6
ENDMDL
MODEL 6
REMARK VINA RESULT:      -5.7      1.453      2.938
REMARK  Name = 
REMARK  9 active torsions:
REMARK  status: ('A' for Active; 'I' for Inactive)
REMARK    1  A    between atoms: C_1  and  C_2
REMARK    2  A    between atoms: C_2  and  N_3
REMARK    3  A    between atoms: C_7  and  C_9
REMARK    4  A    between atoms: C_9  and  N_10
REMARK    5  A    between atoms: C_11  and  C_13
REMARK    6  A    between atoms: C_14  and  O_15
REMARK    7  A    between atoms: O_15  and  C_16
REMARK    8  A    between atoms: C_21  and  O_22
REMARK    9  A    between atoms: O_22  and  C_23
REMARK                            x       y       z     vdW  Elec       q    Type
REMARK                         _______ _______ _______ _____ _____    ______ ____
ROOT
ATOM      1  N   UNL     1       7.416  -2.311  22.862  0.00  0.00    -0.310 N 
ATOM      2  H   UNL     1       6.455  -2.012  22.735  0.00  0.00    +0.149 HD
ATOM      3  C   UNL     1       7.630  -3.532  23.486  0.00  0.00    +0.251 C 
ATOM      4  O   UNL     1       8.759  -4.010  23.558  0.00  0.00    -0.270 OA
ENDROOT
BRANCH   3   5
ATOM      5  C   UNL     1       6.404  -4.224  24.085  0.00  0.00    +0.121 A 
ATOM      6  C   UNL     1       5.329  -4.718  23.273  0.00  0.00    +0.150 A 
ATOM      7  C   UNL     1       4.241  -5.368  23.898  0.00  0.00    +0.060 A 
ATOM      8 BR   UNL     1       2.778  -6.231  23.033  0.00  0.00    -0.046 Br
ATOM      9  C   UNL     1       4.200  -5.498  25.287  0.00  0.00    +0.022 A 
ATOM     10  C   UNL     1       5.234  -5.016  26.075  0.00  0.00    +0.048 A 
ATOM     11  C   UNL     1       6.333  -4.372  25.497  0.00  0.00    +0.136 A 
BRANCH   6  12
ATOM     12  O   UNL     1       5.502  -4.594  21.915  0.00  0.00    -0.493 OA
ATOM     13  C   UNL     1       6.056  -5.678  21.177  0.00  0.00    +0.277 C 
ENDBRANCH   6  12
BRANCH  11  14
ATOM     14  O   UNL     1       7.364  -3.906  26.273  0.00  0.00    -0.494 OA
ATOM     15  C   UNL     1       8.242  -4.868  26.851  0.00  0.00    +0.277 C 
ENDBRANCH  11  14
ENDBRANCH   3   5
BRANCH   1  16
ATOM     16  C   UNL     1       8.472  -1.496  22.267  0.00  0.00    +0.123 C 
BRANCH  16  18
ATOM     17  N   UNL     1       9.345   0.398  23.829  0.00  0.00    -0.298 NA
ATOM     18  C   UNL     1       8.432  -0.018  22.742  0.00  0.00    +0.074 C 
ATOM     19  C   UNL     1       8.806   0.940  21.592  0.00  0.00    +0.022 C 
ATOM     20  C   UNL     1       9.998   1.747  22.085  0.00  0.00    +0.017 C 
ATOM     21  C   UNL     1      10.562   0.913  23.217  0.00  0.00    +0.085 C 
BRANCH  17  23
ATOM     22  C   UNL     1       8.401  -0.526  25.914  0.00  0.00    +0.020 C 
ATOM     23  C   UNL     1       9.556  -0.553  24.913  0.00  0.00    +0.081 C 
ENDBRANCH  17  23
ENDBRANCH  16  18
ENDBRANCH   1  16
TORSDOF 6
ENDMDL
MODEL 7
REMARK VINA RESULT:      -5.7      3.471      6.686
REMARK  Name = 
REMARK  9 active torsions:
REMARK  status: ('A' for Active; 'I' for Inactive)
REMARK    1  A    between atoms: C_1  and  C_2
REMARK    2  A    between atoms: C_2  and  N_3
REMARK    3  A    between atoms: C_7  and  C_9
REMARK    4  A    between atoms: C_9  and  N_10
REMARK    5  A    between atoms: C_11  and  C_13
REMARK    6  A    between atoms: C_14  and  O_15
REMARK    7  A    between atoms: O_15  and  C_16
REMARK    8  A    between atoms: C_21  and  O_22
REMARK    9  A    between atoms: O_22  and  C_23
REMARK                            x       y       z     vdW  Elec       q    Type
REMARK                         _______ _______ _______ _____ _____    ______ ____
ROOT
ATOM      1  N   UNL     1       7.408  -1.932  26.261  0.00  0.00    -0.310 N 
ATOM      2  H   UNL     1       8.225  -1.697  26.813  0.00  0.00    +0.149 HD
ATOM      3  C   UNL     1       7.197  -1.214  25.092  0.00  0.00    +0.251 C 
ATOM      4  O   UNL     1       6.301  -1.529  24.315  0.00  0.00    -0.270 OA
ENDROOT
BRANCH   3   5
ATOM      5  C   UNL     1       8.116  -0.016  24.844  0.00  0.00    +0.121 A 
ATOM      6  C   UNL     1       7.673   1.338  25.015  0.00  0.00    +0.150 A 
ATOM      7  C   UNL     1       8.587   2.393  24.791  0.00  0.00    +0.060 A 
ATOM      8 BR   UNL     1       8.283   4.250  25.092  0.00  0.00    -0.046 Br
ATOM      9  C   UNL     1       9.892   2.119  24.378  0.00  0.00    +0.022 A 
ATOM     10  C   UNL     1      10.321   0.811  24.205  0.00  0.00    +0.048 A 
ATOM     11  C   UNL     1       9.451  -0.262  24.423  0.00  0.00    +0.136 A 
BRANCH   6  12
ATOM     12  O   UNL     1       6.390   1.491  25.485  0.00  0.00    -0.493 OA
ATOM     13  C   UNL     1       5.357   1.888  24.589  0.00  0.00    +0.277 C 
ENDBRANCH   6  12
BRANCH  11  14
ATOM     14  O   UNL     1       9.877  -1.557  24.265  0.00  0.00    -0.494 OA
ATOM     15  C   UNL     1      10.150  -2.004  22.941  0.00  0.00    +0.277 C 
ENDBRANCH  11  14
ENDBRANCH   3   5
BRANCH   1  16
ATOM     16  C   UNL     1       6.606  -3.080  26.676  0.00  0.00    +0.123 C 
BRANCH  16  18
ATOM     17  N   UNL     1       7.175  -5.286  25.410  0.00  0.00    -0.298 NA
ATOM     18  C   UNL     1       7.385  -4.420  26.592  0.00  0.00    +0.074 C 
ATOM     19  C   UNL     1       8.908  -4.173  26.571  0.00  0.00    +0.022 C 
ATOM     20  C   UNL     1       9.424  -4.822  25.295  0.00  0.00    +0.017 C 
ATOM     21  C   UNL     1       8.192  -4.948  24.423  0.00  0.00    +0.085 C 
BRANCH  17  23
ATOM     22  C   UNL     1       5.744  -4.895  23.438  0.00  0.00    +0.020 C 
ATOM     23  C   UNL     1       5.816  -5.371  24.889  0.00  0.00    +0.081 C 
ENDBRANCH  17  23
ENDBRANCH  16  18
ENDBRANCH   1  16
TORSDOF 6
ENDMDL
MODEL 8
REMARK VINA RESULT:      -5.7      3.636      6.934
REMARK  Name = 
REMARK  9 active torsions:
REMARK  status: ('A' for Active; 'I' for Inactive)
REMARK    1  A    between atoms: C_1  and  C_2
REMARK    2  A    between atoms: C_2  and  N_3
REMARK    3  A    between atoms: C_7  and  C_9
REMARK    4  A    between atoms: C_9  and  N_10
REMARK    5  A    between atoms: C_11  and  C_13
REMARK    6  A    between atoms: C_14  and  O_15
REMARK    7  A    between atoms: O_15  and  C_16
REMARK    8  A    between atoms: C_21  and  O_22
REMARK    9  A    between atoms: O_22  and  C_23
REMARK                            x       y       z     vdW  Elec       q    Type
REMARK                         _______ _______ _______ _____ _____    ______ ____
ROOT
ATOM      1  N   UNL     1       6.001  -2.094  23.131  0.00  0.00    -0.310 N 
ATOM      2  H   UNL     1       5.809  -1.868  22.161  0.00  0.00    +0.149 HD
ATOM      3  C   UNL     1       6.781  -1.201  23.853  0.00  0.00    +0.251 C 
ATOM      4  O   UNL     1       6.948  -1.348  25.061  0.00  0.00    -0.270 OA
ENDROOT
BRANCH   3   5
ATOM      5  C   UNL     1       7.427  -0.058  23.068  0.00  0.00    +0.121 A 
ATOM      6  C   UNL     1       6.904   1.278  23.088  0.00  0.00    +0.150 A 
ATOM      7  C   UNL     1       7.570   2.287  22.356  0.00  0.00    +0.060 A 
ATOM      8 BR   UNL     1       7.158   4.148  22.343  0.00  0.00    -0.046 Br
ATOM      9  C   UNL     1       8.701   1.979  21.599  0.00  0.00    +0.022 A 
ATOM     10  C   UNL     1       9.206   0.687  21.572  0.00  0.00    +0.048 A 
ATOM     11  C   UNL     1       8.582  -0.340  22.287  0.00  0.00    +0.136 A 
BRANCH   6  12
ATOM     12  O   UNL     1       5.825   1.483  23.915  0.00  0.00    -0.493 OA
ATOM     13  C   UNL     1       6.024   2.075  25.195  0.00  0.00    +0.277 C 
ENDBRANCH   6  12
BRANCH  11  14
ATOM     14  O   UNL     1       9.086  -1.616  22.273  0.00  0.00    -0.494 OA
ATOM     15  C   UNL     1      10.235  -1.880  23.074  0.00  0.00    +0.277 C 
ENDBRANCH  11  14
ENDBRANCH   3   5
BRANCH   1  16
ATOM     16  C   UNL     1       5.339  -3.260  23.708  0.00  0.00    +0.123 C 
BRANCH  16  18
ATOM     17  N   UNL     1       5.531  -5.841  23.406  0.00  0.00    -0.298 NA
ATOM     18  C   UNL     1       6.208  -4.545  23.631  0.00  0.00    +0.074 C 
ATOM     19  C   UNL     1       7.204  -4.467  22.455  0.00  0.00    +0.022 C 
ATOM     20  C   UNL     1       6.920  -5.679  21.580  0.00  0.00    +0.017 C 
ATOM     21  C   UNL     1       5.516  -6.093  21.970  0.00  0.00    +0.085 C 
BRANCH  17  23
ATOM     22  C   UNL     1       3.102  -6.134  23.077  0.00  0.00    +0.020 C 
ATOM     23  C   UNL     1       4.254  -6.044  24.078  0.00  0.00    +0.081 C 
ENDBRANCH  17  23
ENDBRANCH  16  18
ENDBRANCH   1  16
TORSDOF 6
ENDMDL
MODEL 9
REMARK VINA RESULT:      -5.6      3.048      4.350
REMARK  Name = 
REMARK  9 active torsions:
REMARK  status: ('A' for Active; 'I' for Inactive)
REMARK    1  A    between atoms: C_1  and  C_2
REMARK    2  A    between atoms: C_2  and  N_3
REMARK    3  A    between atoms: C_7  and  C_9
REMARK    4  A    between atoms: C_9  and  N_10
REMARK    5  A    between atoms: C_11  and  C_13
REMARK    6  A    between atoms: C_14  and  O_15
REMARK    7  A    between atoms: O_15  and  C_16
REMARK    8  A    between atoms: C_21  and  O_22
REMARK    9  A    between atoms: O_22  and  C_23
REMARK                            x       y       z     vdW  Elec       q    Type
REMARK                         _______ _______ _______ _____ _____    ______ ____
ROOT
ATOM      1  N   UNL     1       6.421   0.769  23.216  0.00  0.00    -0.310 N 
ATOM      2  H   UNL     1       5.996   0.343  22.400  0.00  0.00    +0.149 HD
ATOM      3  C   UNL     1       6.767  -0.068  24.268  0.00  0.00    +0.251 C 
ATOM      4  O   UNL     1       7.397   0.361  25.230  0.00  0.00    -0.270 OA
ENDROOT
BRANCH   3   5
ATOM      5  C   UNL     1       6.306  -1.524  24.170  0.00  0.00    +0.121 A 
ATOM      6  C   UNL     1       6.985  -2.490  23.356  0.00  0.00    +0.150 A 
ATOM      7  C   UNL     1       6.515  -3.823  23.336  0.00  0.00    +0.060 A 
ATOM      8 BR   UNL     1       7.327  -5.307  22.457  0.00  0.00    -0.046 Br
ATOM      9  C   UNL     1       5.387  -4.184  24.073  0.00  0.00    +0.022 A 
ATOM     10  C   UNL     1       4.723  -3.250  24.856  0.00  0.00    +0.048 A 
ATOM     11  C   UNL     1       5.159  -1.923  24.910  0.00  0.00    +0.136 A 
BRANCH   6  12
ATOM     12  O   UNL     1       8.121  -2.043  22.722  0.00  0.00    -0.493 OA
ATOM     13  C   UNL     1       9.394  -2.285  23.312  0.00  0.00    +0.277 C 
ENDBRANCH   6  12
BRANCH  11  14
ATOM     14  O   UNL     1       4.513  -1.000  25.694  0.00  0.00    -0.494 OA
ATOM     15  C   UNL     1       4.555  -1.189  27.105  0.00  0.00    +0.277 C 
ENDBRANCH  11  14
ENDBRANCH   3   5
BRANCH   1  16
ATOM     16  C   UNL     1       6.746   2.191  23.157  0.00  0.00    +0.123 C 
BRANCH  16  18
ATOM     17  N   UNL     1       9.263   2.841  22.981  0.00  0.00    -0.298 NA
ATOM     18  C   UNL     1       8.002   2.487  22.293  0.00  0.00    +0.074 C 
ATOM     19  C   UNL     1       8.399   1.253  21.457  0.00  0.00    +0.022 C 
ATOM     20  C   UNL     1       9.836   0.929  21.839  0.00  0.00    +0.017 C 
ATOM     21  C   UNL     1      10.023   1.613  23.177  0.00  0.00    +0.085 C 
BRANCH  17  23
ATOM     22  C   UNL     1       9.881   5.022  23.955  0.00  0.00    +0.020 C 
ATOM     23  C   UNL     1       9.156   3.692  24.159  0.00  0.00    +0.081 C 
ENDBRANCH  17  23
ENDBRANCH  16  18
ENDBRANCH   1  16
TORSDOF 6
ENDMDL
