MODEL 1
REMARK VINA RESULT:      -6.4      0.000      0.000
REMARK  Name = 
REMARK  8 active torsions:
REMARK  status: ('A' for Active; 'I' for Inactive)
REMARK    1  A    between atoms: C_1  and  C_2
REMARK    2  A    between atoms: C_3  and  C_4
REMARK    3  A    between atoms: C_4  and  C_5
REMARK    4  A    between atoms: C_5  and  C_6
REMARK    5  A    between atoms: C_6  and  C_7
REMARK    6  A    between atoms: C_7  and  C_8
REMARK    7  A    between atoms: C_8  and  C_9
REMARK    8  A    between atoms: C_9  and  O_10
REMARK                            x       y       z     vdW  Elec       q    Type
REMARK                         _______ _______ _______ _____ _____    ______ ____
ROOT
ATOM      1  C   UNL     1       9.665   0.819  21.736  0.00  0.00    +0.048 C 
ATOM      2  C   UNL     1       9.138   0.155  22.979  0.00  0.00    +0.004 C 
ATOM      3  C   UNL     1       9.496  -1.294  23.035  0.00  0.00    +0.190 C 
ATOM      4  O   UNL     1      10.105  -1.836  22.118  0.00  0.00    -0.287 OA
ATOM      5  C   UNL     1       9.114  -2.072  24.219  0.00  0.00    +0.033 A 
ATOM      6  C   UNL     1       8.413  -1.473  25.255  0.00  0.00    +0.033 A 
ATOM      7  C   UNL     1       8.060  -2.230  26.382  0.00  0.00    +0.012 A 
ATOM      8  C   UNL     1       8.403  -3.581  26.457  0.00  0.00    +0.001 A 
ATOM      9  C   UNL     1       9.103  -4.181  25.412  0.00  0.00    +0.001 A 
ATOM     10  C   UNL     1       8.030  -0.053  25.176  0.00  0.00    +0.190 C 
ATOM     11  O   UNL     1       7.397   0.450  26.099  0.00  0.00    -0.287 OA
ATOM     12  C   UNL     1       9.462  -3.428  24.294  0.00  0.00    +0.012 A 
ATOM     13  C   UNL     1       8.434   0.744  23.971  0.00  0.00    +0.006 C 
ENDROOT
BRANCH  13  14
ATOM     14  C   UNL     1       8.043   2.211  24.023  0.00  0.00    +0.039 C 
BRANCH  14  15
ATOM     15  C   UNL     1       9.049   3.195  24.631  0.00  0.00    +0.005 C 
BRANCH  15  16
ATOM     16  C   UNL     1       9.569   4.291  23.697  0.00  0.00    +0.001 C 
BRANCH  16  17
ATOM     17  C   UNL     1      11.094   4.166  23.607  0.00  0.00    +0.011 C 
BRANCH  17  18
ATOM     18  C   UNL     1      11.813   5.505  23.504  0.00  0.00    +0.120 C 
BRANCH  18  19
ATOM     19  C   UNL     1      13.066   5.374  22.653  0.00  0.00    +0.305 C 
ATOM     20  O   UNL     1      13.166   5.718  21.488  0.00  0.00    -0.251 OA
BRANCH  19  21
ATOM     21  O   UNL     1      14.094   4.823  23.338  0.00  0.00    -0.481 OA
ATOM     22  H   UNL     1      13.933   4.764  24.296  0.00  0.00    +0.295 HD
ENDBRANCH  19  21
ENDBRANCH  18  19
ENDBRANCH  17  18
ENDBRANCH  16  17
ENDBRANCH  15  16
ENDBRANCH  14  15
ENDBRANCH  13  14
TORSDOF 7
ENDMDL
MODEL 2
REMARK VINA RESULT:      -6.4      3.689      7.612
REMARK  Name = 
REMARK  8 active torsions:
REMARK  status: ('A' for Active; 'I' for Inactive)
REMARK    1  A    between atoms: C_1  and  C_2
REMARK    2  A    between atoms: C_3  and  C_4
REMARK    3  A    between atoms: C_4  and  C_5
REMARK    4  A    between atoms: C_5  and  C_6
REMARK    5  A    between atoms: C_6  and  C_7
REMARK    6  A    between atoms: C_7  and  C_8
REMARK    7  A    between atoms: C_8  and  C_9
REMARK    8  A    between atoms: C_9  and  O_10
REMARK                            x       y       z     vdW  Elec       q    Type
REMARK                         _______ _______ _______ _____ _____    ______ ____
ROOT
ATOM      1  C   UNL     1       9.081  -4.218  24.640  0.00  0.00    +0.048 C 
ATOM      2  C   UNL     1       8.456  -2.904  24.257  0.00  0.00    +0.004 C 
ATOM      3  C   UNL     1       9.337  -2.108  23.350  0.00  0.00    +0.190 C 
ATOM      4  O   UNL     1      10.452  -2.508  23.032  0.00  0.00    -0.287 OA
ATOM      5  C   UNL     1       8.843  -0.828  22.830  0.00  0.00    +0.033 A 
ATOM      6  C   UNL     1       7.590  -0.359  23.195  0.00  0.00    +0.033 A 
ATOM      7  C   UNL     1       7.132   0.864  22.684  0.00  0.00    +0.012 A 
ATOM      8  C   UNL     1       7.936   1.611  21.820  0.00  0.00    +0.001 A 
ATOM      9  C   UNL     1       9.197   1.140  21.461  0.00  0.00    +0.001 A 
ATOM     10  C   UNL     1       6.743  -1.131  24.119  0.00  0.00    +0.190 C 
ATOM     11  O   UNL     1       5.644  -0.688  24.438  0.00  0.00    -0.287 OA
ATOM     12  C   UNL     1       9.651  -0.080  21.962  0.00  0.00    +0.012 A 
ATOM     13  C   UNL     1       7.243  -2.447  24.638  0.00  0.00    +0.006 C 
ENDROOT
BRANCH  13  14
ATOM     14  C   UNL     1       6.264  -3.187  25.533  0.00  0.00    +0.039 C 
BRANCH  14  15
ATOM     15  C   UNL     1       5.240  -4.108  24.859  0.00  0.00    +0.005 C 
BRANCH  15  16
ATOM     16  C   UNL     1       5.590  -5.599  24.834  0.00  0.00    +0.001 C 
BRANCH  16  17
ATOM     17  C   UNL     1       5.402  -6.116  23.402  0.00  0.00    +0.011 C 
BRANCH  17  18
ATOM     18  C   UNL     1       6.572  -5.804  22.479  0.00  0.00    +0.120 C 
BRANCH  18  19
ATOM     19  C   UNL     1       6.086  -5.111  21.218  0.00  0.00    +0.305 C 
ATOM     20  O   UNL     1       5.992  -5.630  20.119  0.00  0.00    -0.251 OA
BRANCH  19  21
ATOM     21  O   UNL     1       5.754  -3.818  21.439  0.00  0.00    -0.481 OA
ATOM     22  H   UNL     1       6.210  -3.194  20.847  0.00  0.00    +0.295 HD
ENDBRANCH  19  21
ENDBRANCH  18  19
ENDBRANCH  17  18
ENDBRANCH  16  17
ENDBRANCH  15  16
ENDBRANCH  14  15
ENDBRANCH  13  14
TORSDOF 7
ENDMDL
MODEL 3
REMARK VINA RESULT:      -6.3      2.960      4.427
REMARK  Name = 
REMARK  8 active torsions:
REMARK  status: ('A' for Active; 'I' for Inactive)
REMARK    1  A    between atoms: C_1  and  C_2
REMARK    2  A    between atoms: C_3  and  C_4
REMARK    3  A    between atoms: C_4  and  C_5
REMARK    4  A    between atoms: C_5  and  C_6
REMARK    5  A    between atoms: C_6  and  C_7
REMARK    6  A    between atoms: C_7  and  C_8
REMARK    7  A    between atoms: C_8  and  C_9
REMARK    8  A    between atoms: C_9  and  O_10
REMARK                            x       y       z     vdW  Elec       q    Type
REMARK                         _______ _______ _______ _____ _____    ______ ____
ROOT
ATOM      1  C   UNL     1       7.338   1.022  25.789  0.00  0.00    +0.048 C 
ATOM      2  C   UNL     1       7.642  -0.257  25.056  0.00  0.00    +0.004 C 
ATOM      3  C   UNL     1       6.398  -0.960  24.619  0.00  0.00    +0.190 C 
ATOM      4  O   UNL     1       5.287  -0.523  24.900  0.00  0.00    -0.287 OA
ATOM      5  C   UNL     1       6.523  -2.191  23.831  0.00  0.00    +0.033 A 
ATOM      6  C   UNL     1       7.774  -2.702  23.520  0.00  0.00    +0.033 A 
ATOM      7  C   UNL     1       7.874  -3.877  22.761  0.00  0.00    +0.012 A 
ATOM      8  C   UNL     1       6.721  -4.536  22.330  0.00  0.00    +0.001 A 
ATOM      9  C   UNL     1       5.465  -4.024  22.649  0.00  0.00    +0.001 A 
ATOM     10  C   UNL     1       8.995  -2.024  23.986  0.00  0.00    +0.190 C 
ATOM     11  O   UNL     1      10.090  -2.503  23.710  0.00  0.00    -0.287 OA
ATOM     12  C   UNL     1       5.363  -2.850  23.397  0.00  0.00    +0.012 A 
ATOM     13  C   UNL     1       8.866  -0.757  24.780  0.00  0.00    +0.006 C 
ENDROOT
BRANCH  13  14
ATOM     14  C   UNL     1      10.188  -0.109  25.155  0.00  0.00    +0.039 C 
BRANCH  14  15
ATOM     15  C   UNL     1      10.907   0.716  24.081  0.00  0.00    +0.005 C 
BRANCH  15  16
ATOM     16  C   UNL     1      10.165   1.957  23.577  0.00  0.00    +0.001 C 
BRANCH  16  17
ATOM     17  C   UNL     1       9.981   1.828  22.060  0.00  0.00    +0.011 C 
BRANCH  17  18
ATOM     18  C   UNL     1       8.662   1.182  21.656  0.00  0.00    +0.120 C 
BRANCH  18  19
ATOM     19  C   UNL     1       7.501   2.121  21.934  0.00  0.00    +0.305 C 
ATOM     20  O   UNL     1       7.547   3.337  21.872  0.00  0.00    -0.251 OA
BRANCH  19  21
ATOM     21  O   UNL     1       6.371   1.454  22.265  0.00  0.00    -0.481 OA
ATOM     22  H   UNL     1       6.438   0.492  22.135  0.00  0.00    +0.295 HD
ENDBRANCH  19  21
ENDBRANCH  18  19
ENDBRANCH  17  18
ENDBRANCH  16  17
ENDBRANCH  15  16
ENDBRANCH  14  15
ENDBRANCH  13  14
TORSDOF 7
ENDMDL
MODEL 4
REMARK VINA RESULT:      -6.2      3.398      5.648
REMARK  Name = 
REMARK  8 active torsions:
REMARK  status: ('A' for Active; 'I' for Inactive)
REMARK    1  A    between atoms: C_1  and  C_2
REMARK    2  A    between atoms: C_3  and  C_4
REMARK    3  A    between atoms: C_4  and  C_5
REMARK    4  A    between atoms: C_5  and  C_6
REMARK    5  A    between atoms: C_6  and  C_7
REMARK    6  A    between atoms: C_7  and  C_8
REMARK    7  A    between atoms: C_8  and  C_9
REMARK    8  A    between atoms: C_9  and  O_10
REMARK                            x       y       z     vdW  Elec       q    Type
REMARK                         _______ _______ _______ _____ _____    ______ ____
ROOT
ATOM      1  C   UNL     1       7.396  -4.795  22.298  0.00  0.00    +0.048 C 
ATOM      2  C   UNL     1       7.232  -4.933  23.787  0.00  0.00    +0.004 C 
ATOM      3  C   UNL     1       5.941  -5.593  24.148  0.00  0.00    +0.190 C 
ATOM      4  O   UNL     1       5.126  -5.914  23.289  0.00  0.00    -0.287 OA
ATOM      5  C   UNL     1       5.657  -5.864  25.562  0.00  0.00    +0.033 A 
ATOM      6  C   UNL     1       6.564  -5.492  26.544  0.00  0.00    +0.033 A 
ATOM      7  C   UNL     1       6.278  -5.764  27.889  0.00  0.00    +0.012 A 
ATOM      8  C   UNL     1       5.084  -6.397  28.241  0.00  0.00    +0.001 A 
ATOM      9  C   UNL     1       4.173  -6.764  27.254  0.00  0.00    +0.001 A 
ATOM     10  C   UNL     1       7.817  -4.809  26.183  0.00  0.00    +0.190 C 
ATOM     11  O   UNL     1       8.596  -4.476  27.070  0.00  0.00    -0.287 OA
ATOM     12  C   UNL     1       4.458  -6.501  25.914  0.00  0.00    +0.012 A 
ATOM     13  C   UNL     1       8.112  -4.545  24.736  0.00  0.00    +0.006 C 
ENDROOT
BRANCH  13  14
ATOM     14  C   UNL     1       9.458  -3.892  24.474  0.00  0.00    +0.039 C 
BRANCH  14  15
ATOM     15  C   UNL     1       9.491  -2.368  24.309  0.00  0.00    +0.005 C 
BRANCH  15  16
ATOM     16  C   UNL     1      10.082  -1.845  22.998  0.00  0.00    +0.001 C 
BRANCH  16  17
ATOM     17  C   UNL     1       8.943  -1.258  22.154  0.00  0.00    +0.011 C 
BRANCH  17  18
ATOM     18  C   UNL     1       9.371  -0.090  21.275  0.00  0.00    +0.120 C 
BRANCH  18  19
ATOM     19  C   UNL     1       9.275   1.218  22.043  0.00  0.00    +0.305 C 
ATOM     20  O   UNL     1       8.544   1.423  22.998  0.00  0.00    -0.251 OA
BRANCH  19  21
ATOM     21  O   UNL     1      10.108   2.163  21.551  0.00  0.00    -0.481 OA
ATOM     22  H   UNL     1       9.821   2.522  20.693  0.00  0.00    +0.295 HD
ENDBRANCH  19  21
ENDBRANCH  18  19
ENDBRANCH  17  18
ENDBRANCH  16  17
ENDBRANCH  15  16
ENDBRANCH  14  15
ENDBRANCH  13  14
TORSDOF 7
ENDMDL
MODEL 5
REMARK VINA RESULT:      -6.2      1.431      2.766
REMARK  Name = 
REMARK  8 active torsions:
REMARK  status: ('A' for Active; 'I' for Inactive)
REMARK    1  A    between atoms: C_1  and  C_2
REMARK    2  A    between atoms: C_3  and  C_4
REMARK    3  A    between atoms: C_4  and  C_5
REMARK    4  A    between atoms: C_5  and  C_6
REMARK    5  A    between atoms: C_6  and  C_7
REMARK    6  A    between atoms: C_7  and  C_8
REMARK    7  A    between atoms: C_8  and  C_9
REMARK    8  A    between atoms: C_9  and  O_10
REMARK                            x       y       z     vdW  Elec       q    Type
REMARK                         _______ _______ _______ _____ _____    ______ ____
ROOT
ATOM      1  C   UNL     1       6.722   0.997  22.817  0.00  0.00    +0.048 C 
ATOM      2  C   UNL     1       7.611  -0.161  23.182  0.00  0.00    +0.004 C 
ATOM      3  C   UNL     1       7.004  -1.021  24.242  0.00  0.00    +0.190 C 
ATOM      4  O   UNL     1       5.926  -0.735  24.754  0.00  0.00    -0.287 OA
ATOM      5  C   UNL     1       7.716  -2.232  24.664  0.00  0.00    +0.033 A 
ATOM      6  C   UNL     1       8.942  -2.557  24.102  0.00  0.00    +0.033 A 
ATOM      7  C   UNL     1       9.606  -3.721  24.513  0.00  0.00    +0.012 A 
ATOM      8  C   UNL     1       9.042  -4.545  25.490  0.00  0.00    +0.001 A 
ATOM      9  C   UNL     1       7.813  -4.213  26.056  0.00  0.00    +0.001 A 
ATOM     10  C   UNL     1       9.552  -1.685  23.085  0.00  0.00    +0.190 C 
ATOM     11  O   UNL     1      10.644  -1.985  22.614  0.00  0.00    -0.287 OA
ATOM     12  C   UNL     1       7.147  -3.059  25.643  0.00  0.00    +0.012 A 
ATOM     13  C   UNL     1       8.816  -0.454  22.645  0.00  0.00    +0.006 C 
ENDROOT
BRANCH  13  14
ATOM     14  C   UNL     1       9.507   0.338  21.548  0.00  0.00    +0.039 C 
BRANCH  14  15
ATOM     15  C   UNL     1      10.027   1.737  21.899  0.00  0.00    +0.005 C 
BRANCH  15  16
ATOM     16  C   UNL     1      10.368   1.979  23.372  0.00  0.00    +0.001 C 
BRANCH  16  17
ATOM     17  C   UNL     1      10.410   3.492  23.617  0.00  0.00    +0.011 C 
BRANCH  17  18
ATOM     18  C   UNL     1      11.750   4.131  23.275  0.00  0.00    +0.120 C 
BRANCH  18  19
ATOM     19  C   UNL     1      11.814   5.553  23.806  0.00  0.00    +0.305 C 
ATOM     20  O   UNL     1      10.856   6.288  23.972  0.00  0.00    -0.251 OA
BRANCH  19  21
ATOM     21  O   UNL     1      13.080   5.938  24.088  0.00  0.00    -0.481 OA
ATOM     22  H   UNL     1      13.126   6.731  24.652  0.00  0.00    +0.295 HD
ENDBRANCH  19  21
ENDBRANCH  18  19
ENDBRANCH  17  18
ENDBRANCH  16  17
ENDBRANCH  15  16
ENDBRANCH  14  15
ENDBRANCH  13  14
TORSDOF 7
ENDMDL
MODEL 6
REMARK VINA RESULT:      -6.2      2.816      3.450
REMARK  Name = 
REMARK  8 active torsions:
REMARK  status: ('A' for Active; 'I' for Inactive)
REMARK    1  A    between atoms: C_1  and  C_2
REMARK    2  A    between atoms: C_3  and  C_4
REMARK    3  A    between atoms: C_4  and  C_5
REMARK    4  A    between atoms: C_5  and  C_6
REMARK    5  A    between atoms: C_6  and  C_7
REMARK    6  A    between atoms: C_7  and  C_8
REMARK    7  A    between atoms: C_8  and  C_9
REMARK    8  A    between atoms: C_9  and  O_10
REMARK                            x       y       z     vdW  Elec       q    Type
REMARK                         _______ _______ _______ _____ _____    ______ ____
ROOT
ATOM      1  C   UNL     1      10.335   0.101  24.985  0.00  0.00    +0.048 C 
ATOM      2  C   UNL     1       8.965  -0.446  24.687  0.00  0.00    +0.004 C 
ATOM      3  C   UNL     1       9.027  -1.810  24.079  0.00  0.00    +0.190 C 
ATOM      4  O   UNL     1      10.101  -2.347  23.827  0.00  0.00    -0.287 OA
ATOM      5  C   UNL     1       7.772  -2.513  23.791  0.00  0.00    +0.033 A 
ATOM      6  C   UNL     1       6.553  -1.909  24.058  0.00  0.00    +0.033 A 
ATOM      7  C   UNL     1       5.363  -2.598  23.781  0.00  0.00    +0.012 A 
ATOM      8  C   UNL     1       5.405  -3.880  23.229  0.00  0.00    +0.001 A 
ATOM      9  C   UNL     1       6.631  -4.481  22.956  0.00  0.00    +0.001 A 
ATOM     10  C   UNL     1       6.499  -0.550  24.623  0.00  0.00    +0.190 C 
ATOM     11  O   UNL     1       5.408  -0.032  24.837  0.00  0.00    -0.287 OA
ATOM     12  C   UNL     1       7.816  -3.801  23.238  0.00  0.00    +0.012 A 
ATOM     13  C   UNL     1       7.783   0.162  24.930  0.00  0.00    +0.006 C 
ENDROOT
BRANCH  13  14
ATOM     14  C   UNL     1       7.611   1.530  25.567  0.00  0.00    +0.039 C 
BRANCH  14  15
ATOM     15  C   UNL     1       7.975   2.758  24.724  0.00  0.00    +0.005 C 
BRANCH  15  16
ATOM     16  C   UNL     1       6.998   3.117  23.601  0.00  0.00    +0.001 C 
BRANCH  16  17
ATOM     17  C   UNL     1       7.761   3.095  22.271  0.00  0.00    +0.011 C 
BRANCH  17  18
ATOM     18  C   UNL     1       7.813   1.720  21.617  0.00  0.00    +0.120 C 
BRANCH  18  19
ATOM     19  C   UNL     1       9.250   1.242  21.495  0.00  0.00    +0.305 C 
ATOM     20  O   UNL     1       9.596   0.089  21.302  0.00  0.00    -0.251 OA
BRANCH  19  21
ATOM     21  O   UNL     1      10.140   2.254  21.621  0.00  0.00    -0.481 OA
ATOM     22  H   UNL     1      10.572   2.495  20.783  0.00  0.00    +0.295 HD
ENDBRANCH  19  21
ENDBRANCH  18  19
ENDBRANCH  17  18
ENDBRANCH  16  17
ENDBRANCH  15  16
ENDBRANCH  14  15
ENDBRANCH  13  14
TORSDOF 7
ENDMDL
MODEL 7
REMARK VINA RESULT:      -6.2      3.044      6.778
REMARK  Name = 
REMARK  8 active torsions:
REMARK  status: ('A' for Active; 'I' for Inactive)
REMARK    1  A    between atoms: C_1  and  C_2
REMARK    2  A    between atoms: C_3  and  C_4
REMARK    3  A    between atoms: C_4  and  C_5
REMARK    4  A    between atoms: C_5  and  C_6
REMARK    5  A    between atoms: C_6  and  C_7
REMARK    6  A    between atoms: C_7  and  C_8
REMARK    7  A    between atoms: C_8  and  C_9
REMARK    8  A    between atoms: C_9  and  O_10
REMARK                            x       y       z     vdW  Elec       q    Type
REMARK                         _______ _______ _______ _____ _____    ______ ____
ROOT
ATOM      1  C   UNL     1       7.435  -3.290  22.323  0.00  0.00    +0.048 C 
ATOM      2  C   UNL     1       7.637  -1.991  23.056  0.00  0.00    +0.004 C 
ATOM      3  C   UNL     1       8.747  -1.183  22.467  0.00  0.00    +0.190 C 
ATOM      4  O   UNL     1       9.415  -1.606  21.529  0.00  0.00    -0.287 OA
ATOM      5  C   UNL     1       9.027   0.144  23.026  0.00  0.00    +0.033 A 
ATOM      6  C   UNL     1       8.288   0.626  24.096  0.00  0.00    +0.033 A 
ATOM      7  C   UNL     1       8.566   1.899  24.613  0.00  0.00    +0.012 A 
ATOM      8  C   UNL     1       9.589   2.674  24.062  0.00  0.00    +0.001 A 
ATOM      9  C   UNL     1      10.334   2.185  22.991  0.00  0.00    +0.001 A 
ATOM     10  C   UNL     1       7.220  -0.192  24.695  0.00  0.00    +0.190 C 
ATOM     11  O   UNL     1       6.591   0.250  25.650  0.00  0.00    -0.287 OA
ATOM     12  C   UNL     1      10.053   0.922  22.469  0.00  0.00    +0.012 A 
ATOM     13  C   UNL     1       6.925  -1.543  24.113  0.00  0.00    +0.006 C 
ENDROOT
BRANCH  13  14
ATOM     14  C   UNL     1       5.765  -2.273  24.768  0.00  0.00    +0.039 C 
BRANCH  14  15
ATOM     15  C   UNL     1       6.087  -3.241  25.913  0.00  0.00    +0.005 C 
BRANCH  15  16
ATOM     16  C   UNL     1       6.186  -4.721  25.536  0.00  0.00    +0.001 C 
BRANCH  16  17
ATOM     17  C   UNL     1       7.378  -5.332  26.283  0.00  0.00    +0.011 C 
BRANCH  17  18
ATOM     18  C   UNL     1       8.592  -4.415  26.355  0.00  0.00    +0.120 C 
BRANCH  18  19
ATOM     19  C   UNL     1       9.583  -4.753  25.254  0.00  0.00    +0.305 C 
ATOM     20  O   UNL     1      10.081  -3.951  24.482  0.00  0.00    -0.251 OA
BRANCH  19  21
ATOM     21  O   UNL     1       9.871  -6.074  25.212  0.00  0.00    -0.481 OA
ATOM     22  H   UNL     1      10.826  -6.262  25.229  0.00  0.00    +0.295 HD
ENDBRANCH  19  21
ENDBRANCH  18  19
ENDBRANCH  17  18
ENDBRANCH  16  17
ENDBRANCH  15  16
ENDBRANCH  14  15
ENDBRANCH  13  14
TORSDOF 7
ENDMDL
MODEL 8
REMARK VINA RESULT:      -6.2      3.296      7.859
REMARK  Name = 
REMARK  8 active torsions:
REMARK  status: ('A' for Active; 'I' for Inactive)
REMARK    1  A    between atoms: C_1  and  C_2
REMARK    2  A    between atoms: C_3  and  C_4
REMARK    3  A    between atoms: C_4  and  C_5
REMARK    4  A    between atoms: C_5  and  C_6
REMARK    5  A    between atoms: C_6  and  C_7
REMARK    6  A    between atoms: C_7  and  C_8
REMARK    7  A    between atoms: C_8  and  C_9
REMARK    8  A    between atoms: C_9  and  O_10
REMARK                            x       y       z     vdW  Elec       q    Type
REMARK                         _______ _______ _______ _____ _____    ______ ____
ROOT
ATOM      1  C   UNL     1       5.429  -2.338  24.299  0.00  0.00    +0.048 C 
ATOM      2  C   UNL     1       6.608  -1.698  23.618  0.00  0.00    +0.004 C 
ATOM      3  C   UNL     1       6.602  -0.211  23.768  0.00  0.00    +0.190 C 
ATOM      4  O   UNL     1       5.687   0.367  24.345  0.00  0.00    -0.287 OA
ATOM      5  C   UNL     1       7.723   0.559  23.216  0.00  0.00    +0.033 A 
ATOM      6  C   UNL     1       8.755  -0.084  22.549  0.00  0.00    +0.033 A 
ATOM      7  C   UNL     1       9.821   0.668  22.034  0.00  0.00    +0.012 A 
ATOM      8  C   UNL     1       9.839   2.056  22.182  0.00  0.00    +0.001 A 
ATOM      9  C   UNL     1       8.797   2.699  22.847  0.00  0.00    +0.001 A 
ATOM     10  C   UNL     1       8.735  -1.546  22.373  0.00  0.00    +0.190 C 
ATOM     11  O   UNL     1       9.652  -2.089  21.766  0.00  0.00    -0.287 OA
ATOM     12  C   UNL     1       7.740   1.953  23.368  0.00  0.00    +0.012 A 
ATOM     13  C   UNL     1       7.596  -2.333  22.949  0.00  0.00    +0.006 C 
ENDROOT
BRANCH  13  14
ATOM     14  C   UNL     1       7.708  -3.836  22.763  0.00  0.00    +0.039 C 
BRANCH  14  15
ATOM     15  C   UNL     1       8.146  -4.673  23.971  0.00  0.00    +0.005 C 
BRANCH  15  16
ATOM     16  C   UNL     1       9.208  -4.044  24.877  0.00  0.00    +0.001 C 
BRANCH  16  17
ATOM     17  C   UNL     1       8.852  -4.363  26.335  0.00  0.00    +0.011 C 
BRANCH  17  18
ATOM     18  C   UNL     1       7.358  -4.315  26.625  0.00  0.00    +0.120 C 
BRANCH  18  19
ATOM     19  C   UNL     1       6.849  -5.689  27.029  0.00  0.00    +0.305 C 
ATOM     20  O   UNL     1       5.939  -6.292  26.486  0.00  0.00    -0.251 OA
BRANCH  19  21
ATOM     21  O   UNL     1       7.526  -6.196  28.085  0.00  0.00    -0.481 OA
ATOM     22  H   UNL     1       7.907  -5.512  28.664  0.00  0.00    +0.295 HD
ENDBRANCH  19  21
ENDBRANCH  18  19
ENDBRANCH  17  18
ENDBRANCH  16  17
ENDBRANCH  15  16
ENDBRANCH  14  15
ENDBRANCH  13  14
TORSDOF 7
ENDMDL
MODEL 9
REMARK VINA RESULT:      -6.2      3.750      7.792
REMARK  Name = 
REMARK  8 active torsions:
REMARK  status: ('A' for Active; 'I' for Inactive)
REMARK    1  A    between atoms: C_1  and  C_2
REMARK    2  A    between atoms: C_3  and  C_4
REMARK    3  A    between atoms: C_4  and  C_5
REMARK    4  A    between atoms: C_5  and  C_6
REMARK    5  A    between atoms: C_6  and  C_7
REMARK    6  A    between atoms: C_7  and  C_8
REMARK    7  A    between atoms: C_8  and  C_9
REMARK    8  A    between atoms: C_9  and  O_10
REMARK                            x       y       z     vdW  Elec       q    Type
REMARK                         _______ _______ _______ _____ _____    ______ ____
ROOT
ATOM      1  C   UNL     1       6.302  -1.981  26.626  0.00  0.00    +0.048 C 
ATOM      2  C   UNL     1       7.287  -1.796  25.503  0.00  0.00    +0.004 C 
ATOM      3  C   UNL     1       6.993  -0.573  24.696  0.00  0.00    +0.190 C 
ATOM      4  O   UNL     1       6.017   0.130  24.937  0.00  0.00    -0.287 OA
ATOM      5  C   UNL     1       7.902  -0.213  23.603  0.00  0.00    +0.033 A 
ATOM      6  C   UNL     1       9.001  -1.008  23.313  0.00  0.00    +0.033 A 
ATOM      7  C   UNL     1       9.862  -0.645  22.267  0.00  0.00    +0.012 A 
ATOM      8  C   UNL     1       9.611   0.505  21.516  0.00  0.00    +0.001 A 
ATOM      9  C   UNL     1       8.503   1.298  21.806  0.00  0.00    +0.001 A 
ATOM     10  C   UNL     1       9.263  -2.232  24.088  0.00  0.00    +0.190 C 
ATOM     11  O   UNL     1      10.233  -2.927  23.802  0.00  0.00    -0.287 OA
ATOM     12  C   UNL     1       7.649   0.943  22.850  0.00  0.00    +0.012 A 
ATOM     13  C   UNL     1       8.341  -2.592  25.215  0.00  0.00    +0.006 C 
ENDROOT
BRANCH  13  14
ATOM     14  C   UNL     1       8.740  -3.838  25.986  0.00  0.00    +0.039 C 
BRANCH  14  15
ATOM     15  C   UNL     1       8.227  -5.188  25.473  0.00  0.00    +0.005 C 
BRANCH  15  16
ATOM     16  C   UNL     1       6.745  -5.484  25.721  0.00  0.00    +0.001 C 
BRANCH  16  17
ATOM     17  C   UNL     1       5.994  -5.340  24.391  0.00  0.00    +0.011 C 
BRANCH  17  18
ATOM     18  C   UNL     1       6.909  -5.221  23.180  0.00  0.00    +0.120 C 
BRANCH  18  19
ATOM     19  C   UNL     1       6.098  -5.233  21.895  0.00  0.00    +0.305 C 
ATOM     20  O   UNL     1       5.787  -4.248  21.248  0.00  0.00    -0.251 OA
BRANCH  19  21
ATOM     21  O   UNL     1       5.744  -6.485  21.524  0.00  0.00    -0.481 OA
ATOM     22  H   UNL     1       6.497  -7.100  21.472  0.00  0.00    +0.295 HD
ENDBRANCH  19  21
ENDBRANCH  18  19
ENDBRANCH  17  18
ENDBRANCH  16  17
ENDBRANCH  15  16
ENDBRANCH  14  15
ENDBRANCH  13  14
TORSDOF 7
ENDMDL
