MODEL 1
REMARK VINA RESULT:      -4.9      0.000      0.000
REMARK  Name = 
REMARK  5 active torsions:
REMARK  status: ('A' for Active; 'I' for Inactive)
REMARK    1  A    between atoms: N_1  and  CA_2
REMARK    2  A    between atoms: CA_2  and  CB_4
REMARK    3  A    between atoms: CA_2  and  C_11
REMARK    4  A    between atoms: CB_4  and  CG_5
REMARK    5  A    between atoms: C_11  and  O_12
REMARK                            x       y       z     vdW  Elec       q    Type
REMARK                         _______ _______ _______ _____ _____    ______ ____
ROOT
ATOM      1  CA  PHE A   1       9.140  -4.576  25.555  0.00  0.00    +0.165 C 
ENDROOT
BRANCH   1   2
ATOM      2  N   PHE A   1      10.237  -5.590  25.390  0.00  0.00    -0.318 NA
ATOM      3  H1  PHE A   1      10.180  -6.245  26.178  0.00  0.00    +0.119 HD
ATOM      4  H2  PHE A   1       9.973  -6.172  24.586  0.00  0.00    +0.119 HD
ENDBRANCH   1   2
BRANCH   1   5
ATOM      5  C   PHE A   1       7.873  -5.317  26.010  0.00  0.00    +0.322 C 
ATOM      6  OXT PHE A   1       6.816  -5.353  25.399  0.00  0.00    -0.249 OA
BRANCH   5   7
ATOM      7  O   PHE A   1       8.067  -5.933  27.206  0.00  0.00    -0.480 OA
ATOM      8  H   PHE A   1       8.511  -6.793  26.989  0.00  0.00    +0.295 HD
ENDBRANCH   5   7
ENDBRANCH   1   5
BRANCH   1   9
ATOM      9  CB  PHE A   1       8.838  -3.795  24.265  0.00  0.00    +0.065 C 
BRANCH   9  10
ATOM     10  CG  PHE A   1       9.246  -2.343  24.348  0.00  0.00    -0.045 A 
ATOM     11  CD2 PHE A   1       8.888  -1.571  25.461  0.00  0.00    +0.004 A 
ATOM     12  CE2 PHE A   1       9.302  -0.242  25.560  0.00  0.00    +0.000 A 
ATOM     13  CZ  PHE A   1      10.083   0.325  24.554  0.00  0.00    +0.000 A 
ATOM     14  CE1 PHE A   1      10.440  -0.433  23.440  0.00  0.00    +0.000 A 
ATOM     15  CD1 PHE A   1      10.016  -1.759  23.333  0.00  0.00    +0.004 A 
ENDBRANCH   9  10
ENDBRANCH   1   9
TORSDOF 5
ENDMDL
MODEL 2
REMARK VINA RESULT:      -4.9      2.290      3.085
REMARK  Name = 
REMARK  5 active torsions:
REMARK  status: ('A' for Active; 'I' for Inactive)
REMARK    1  A    between atoms: N_1  and  CA_2
REMARK    2  A    between atoms: CA_2  and  CB_4
REMARK    3  A    between atoms: CA_2  and  C_11
REMARK    4  A    between atoms: CB_4  and  CG_5
REMARK    5  A    between atoms: C_11  and  O_12
REMARK                            x       y       z     vdW  Elec       q    Type
REMARK                         _______ _______ _______ _____ _____    ______ ____
ROOT
ATOM      1  CA  PHE A   1       9.256  -2.605  23.762  0.00  0.00    +0.165 C 
ENDROOT
BRANCH   1   2
ATOM      2  N   PHE A   1       9.844  -3.803  24.454  0.00  0.00    -0.318 NA
ATOM      3  H1  PHE A   1      10.491  -4.257  23.800  0.00  0.00    +0.119 HD
ATOM      4  H2  PHE A   1      10.470  -3.436  25.181  0.00  0.00    +0.119 HD
ENDBRANCH   1   2
BRANCH   1   5
ATOM      5  C   PHE A   1       8.021  -3.070  22.974  0.00  0.00    +0.322 C 
ATOM      6  OXT PHE A   1       7.323  -2.359  22.269  0.00  0.00    -0.249 OA
BRANCH   5   7
ATOM      7  O   PHE A   1       7.784  -4.394  23.168  0.00  0.00    -0.480 OA
ATOM      8  H   PHE A   1       8.501  -4.702  23.780  0.00  0.00    +0.295 HD
ENDBRANCH   5   7
ENDBRANCH   1   5
BRANCH   1   9
ATOM      9  CB  PHE A   1      10.242  -1.915  22.804  0.00  0.00    +0.065 C 
BRANCH   9  10
ATOM     10  CG  PHE A   1      10.201  -0.408  22.903  0.00  0.00    -0.045 A 
ATOM     11  CD2 PHE A   1      10.622   0.235  24.075  0.00  0.00    +0.004 A 
ATOM     12  CE2 PHE A   1      10.627   1.628  24.151  0.00  0.00    +0.000 A 
ATOM     13  CZ  PHE A   1      10.222   2.391  23.057  0.00  0.00    +0.000 A 
ATOM     14  CE1 PHE A   1       9.796   1.761  21.889  0.00  0.00    +0.000 A 
ATOM     15  CD1 PHE A   1       9.778   0.367  21.815  0.00  0.00    +0.004 A 
ENDBRANCH   9  10
ENDBRANCH   1   9
TORSDOF 5
ENDMDL
MODEL 3
REMARK VINA RESULT:      -4.7      2.017      2.714
REMARK  Name = 
REMARK  5 active torsions:
REMARK  status: ('A' for Active; 'I' for Inactive)
REMARK    1  A    between atoms: N_1  and  CA_2
REMARK    2  A    between atoms: CA_2  and  CB_4
REMARK    3  A    between atoms: CA_2  and  C_11
REMARK    4  A    between atoms: CB_4  and  CG_5
REMARK    5  A    between atoms: C_11  and  O_12
REMARK                            x       y       z     vdW  Elec       q    Type
REMARK                         _______ _______ _______ _____ _____    ______ ____
ROOT
ATOM      1  CA  PHE A   1       8.721  -3.176  24.129  0.00  0.00    +0.165 C 
ENDROOT
BRANCH   1   2
ATOM      2  N   PHE A   1       7.899  -2.344  25.073  0.00  0.00    -0.318 NA
ATOM      3  H1  PHE A   1       7.456  -2.979  25.746  0.00  0.00    +0.119 HD
ATOM      4  H2  PHE A   1       8.567  -1.822  25.654  0.00  0.00    +0.119 HD
ENDBRANCH   1   2
BRANCH   1   5
ATOM      5  C   PHE A   1       8.902  -4.567  24.757  0.00  0.00    +0.322 C 
ATOM      6  OXT PHE A   1       8.004  -5.265  25.200  0.00  0.00    -0.249 OA
BRANCH   5   7
ATOM      7  O   PHE A   1      10.210  -4.934  24.770  0.00  0.00    -0.480 OA
ATOM      8  H   PHE A   1      10.264  -5.693  25.405  0.00  0.00    +0.295 HD
ENDBRANCH   5   7
ENDBRANCH   1   5
BRANCH   1   9
ATOM      9  CB  PHE A   1      10.102  -2.567  23.831  0.00  0.00    +0.065 C 
BRANCH   9  10
ATOM     10  CG  PHE A   1      10.016  -1.209  23.175  0.00  0.00    -0.045 A 
ATOM     11  CD2 PHE A   1       9.473  -1.078  21.890  0.00  0.00    +0.004 A 
ATOM     12  CE2 PHE A   1       9.352   0.182  21.301  0.00  0.00    +0.000 A 
ATOM     13  CZ  PHE A   1       9.763   1.320  21.992  0.00  0.00    +0.000 A 
ATOM     14  CE1 PHE A   1      10.310   1.200  23.268  0.00  0.00    +0.000 A 
ATOM     15  CD1 PHE A   1      10.443  -0.060  23.854  0.00  0.00    +0.004 A 
ENDBRANCH   9  10
ENDBRANCH   1   9
TORSDOF 5
ENDMDL
MODEL 4
REMARK VINA RESULT:      -4.7      4.602      6.041
REMARK  Name = 
REMARK  5 active torsions:
REMARK  status: ('A' for Active; 'I' for Inactive)
REMARK    1  A    between atoms: N_1  and  CA_2
REMARK    2  A    between atoms: CA_2  and  CB_4
REMARK    3  A    between atoms: CA_2  and  C_11
REMARK    4  A    between atoms: CB_4  and  CG_5
REMARK    5  A    between atoms: C_11  and  O_12
REMARK                            x       y       z     vdW  Elec       q    Type
REMARK                         _______ _______ _______ _____ _____    ______ ____
ROOT
ATOM      1  CA  PHE A   1      10.087   0.790  22.372  0.00  0.00    +0.165 C 
ENDROOT
BRANCH   1   2
ATOM      2  N   PHE A   1       9.154   1.177  21.258  0.00  0.00    -0.318 NA
ATOM      3  H1  PHE A   1       9.695   1.711  20.568  0.00  0.00    +0.119 HD
ATOM      4  H2  PHE A   1       8.931   0.309  20.756  0.00  0.00    +0.119 HD
ENDBRANCH   1   2
BRANCH   1   5
ATOM      5  C   PHE A   1      10.000  -0.734  22.556  0.00  0.00    +0.322 C 
ATOM      6  OXT PHE A   1       9.787  -1.308  23.613  0.00  0.00    -0.249 OA
BRANCH   5   7
ATOM      7  O   PHE A   1      10.204  -1.383  21.380  0.00  0.00    -0.480 OA
ATOM      8  H   PHE A   1       9.803  -2.282  21.503  0.00  0.00    +0.295 HD
ENDBRANCH   5   7
ENDBRANCH   1   5
BRANCH   1   9
ATOM      9  CB  PHE A   1       9.761   1.484  23.704  0.00  0.00    +0.065 C 
BRANCH   9  10
ATOM     10  CG  PHE A   1      10.099   2.957  23.698  0.00  0.00    -0.045 A 
ATOM     11  CD2 PHE A   1       9.145   3.902  24.097  0.00  0.00    +0.004 A 
ATOM     12  CE2 PHE A   1       9.470   5.259  24.135  0.00  0.00    +0.000 A 
ATOM     13  CZ  PHE A   1      10.751   5.682  23.784  0.00  0.00    +0.000 A 
ATOM     14  CE1 PHE A   1      11.705   4.750  23.380  0.00  0.00    +0.000 A 
ATOM     15  CD1 PHE A   1      11.378   3.394  23.329  0.00  0.00    +0.004 A 
ENDBRANCH   9  10
ENDBRANCH   1   9
TORSDOF 5
ENDMDL
MODEL 5
REMARK VINA RESULT:      -4.7      2.069      2.651
REMARK  Name = 
REMARK  5 active torsions:
REMARK  status: ('A' for Active; 'I' for Inactive)
REMARK    1  A    between atoms: N_1  and  CA_2
REMARK    2  A    between atoms: CA_2  and  CB_4
REMARK    3  A    between atoms: CA_2  and  C_11
REMARK    4  A    between atoms: CB_4  and  CG_5
REMARK    5  A    between atoms: C_11  and  O_12
REMARK                            x       y       z     vdW  Elec       q    Type
REMARK                         _______ _______ _______ _____ _____    ______ ____
ROOT
ATOM      1  CA  PHE A   1       8.651  -2.802  23.696  0.00  0.00    +0.165 C 
ENDROOT
BRANCH   1   2
ATOM      2  N   PHE A   1       7.661  -2.014  24.507  0.00  0.00    -0.318 NA
ATOM      3  H1  PHE A   1       6.915  -1.704  23.875  0.00  0.00    +0.119 HD
ATOM      4  H2  PHE A   1       7.183  -2.691  25.114  0.00  0.00    +0.119 HD
ENDBRANCH   1   2
BRANCH   1   5
ATOM      5  C   PHE A   1       8.704  -4.229  24.265  0.00  0.00    +0.322 C 
ATOM      6  OXT PHE A   1       7.752  -4.988  24.361  0.00  0.00    -0.249 OA
BRANCH   5   7
ATOM      7  O   PHE A   1       9.960  -4.551  24.669  0.00  0.00    -0.480 OA
ATOM      8  H   PHE A   1       9.938  -5.527  24.845  0.00  0.00    +0.295 HD
ENDBRANCH   5   7
ENDBRANCH   1   5
BRANCH   1   9
ATOM      9  CB  PHE A   1      10.064  -2.196  23.709  0.00  0.00    +0.065 C 
BRANCH   9  10
ATOM     10  CG  PHE A   1      10.074  -0.722  23.377  0.00  0.00    -0.045 A 
ATOM     11  CD2 PHE A   1      10.490   0.215  24.333  0.00  0.00    +0.004 A 
ATOM     12  CE2 PHE A   1      10.543   1.572  24.012  0.00  0.00    +0.000 A 
ATOM     13  CZ  PHE A   1      10.190   2.005  22.735  0.00  0.00    +0.000 A 
ATOM     14  CE1 PHE A   1       9.770   1.082  21.780  0.00  0.00    +0.000 A 
ATOM     15  CD1 PHE A   1       9.705  -0.275  22.101  0.00  0.00    +0.004 A 
ENDBRANCH   9  10
ENDBRANCH   1   9
TORSDOF 5
ENDMDL
MODEL 6
REMARK VINA RESULT:      -4.6      4.593      6.019
REMARK  Name = 
REMARK  5 active torsions:
REMARK  status: ('A' for Active; 'I' for Inactive)
REMARK    1  A    between atoms: N_1  and  CA_2
REMARK    2  A    between atoms: CA_2  and  CB_4
REMARK    3  A    between atoms: CA_2  and  C_11
REMARK    4  A    between atoms: CB_4  and  CG_5
REMARK    5  A    between atoms: C_11  and  O_12
REMARK                            x       y       z     vdW  Elec       q    Type
REMARK                         _______ _______ _______ _____ _____    ______ ____
ROOT
ATOM      1  CA  PHE A   1       9.285   1.059  22.381  0.00  0.00    +0.165 C 
ENDROOT
BRANCH   1   2
ATOM      2  N   PHE A   1       8.866   1.982  21.271  0.00  0.00    -0.318 NA
ATOM      3  H1  PHE A   1       8.133   1.509  20.730  0.00  0.00    +0.119 HD
ATOM      4  H2  PHE A   1       8.360   2.757  21.716  0.00  0.00    +0.119 HD
ENDBRANCH   1   2
BRANCH   1   5
ATOM      5  C   PHE A   1      10.323   1.794  23.243  0.00  0.00    +0.322 C 
ATOM      6  OXT PHE A   1      10.766   1.397  24.310  0.00  0.00    -0.249 OA
BRANCH   5   7
ATOM      7  O   PHE A   1      10.692   2.970  22.672  0.00  0.00    -0.480 OA
ATOM      8  H   PHE A   1      11.671   2.899  22.531  0.00  0.00    +0.295 HD
ENDBRANCH   5   7
ENDBRANCH   1   5
BRANCH   1   9
ATOM      9  CB  PHE A   1       9.886  -0.262  21.875  0.00  0.00    +0.065 C 
BRANCH   9  10
ATOM     10  CG  PHE A   1       9.332  -1.472  22.591  0.00  0.00    -0.045 A 
ATOM     11  CD2 PHE A   1       8.123  -2.047  22.177  0.00  0.00    +0.004 A 
ATOM     12  CE2 PHE A   1       7.634  -3.191  22.809  0.00  0.00    +0.000 A 
ATOM     13  CZ  PHE A   1       8.350  -3.776  23.852  0.00  0.00    +0.000 A 
ATOM     14  CE1 PHE A   1       9.551  -3.209  24.275  0.00  0.00    +0.000 A 
ATOM     15  CD1 PHE A   1      10.036  -2.057  23.653  0.00  0.00    +0.004 A 
ENDBRANCH   9  10
ENDBRANCH   1   9
TORSDOF 5
ENDMDL
MODEL 7
REMARK VINA RESULT:      -4.5      3.343      4.642
REMARK  Name = 
REMARK  5 active torsions:
REMARK  status: ('A' for Active; 'I' for Inactive)
REMARK    1  A    between atoms: N_1  and  CA_2
REMARK    2  A    between atoms: CA_2  and  CB_4
REMARK    3  A    between atoms: CA_2  and  C_11
REMARK    4  A    between atoms: CB_4  and  CG_5
REMARK    5  A    between atoms: C_11  and  O_12
REMARK                            x       y       z     vdW  Elec       q    Type
REMARK                         _______ _______ _______ _____ _____    ______ ____
ROOT
ATOM      1  CA  PHE A   1       8.999  -0.899  23.660  0.00  0.00    +0.165 C 
ENDROOT
BRANCH   1   2
ATOM      2  N   PHE A   1       7.713  -1.549  24.089  0.00  0.00    -0.318 NA
ATOM      3  H1  PHE A   1       7.866  -2.563  24.107  0.00  0.00    +0.119 HD
ATOM      4  H2  PHE A   1       7.590  -1.315  25.081  0.00  0.00    +0.119 HD
ENDBRANCH   1   2
BRANCH   1   5
ATOM      5  C   PHE A   1       9.960  -2.007  23.197  0.00  0.00    +0.322 C 
ATOM      6  OXT PHE A   1      10.237  -3.013  23.831  0.00  0.00    -0.249 OA
BRANCH   5   7
ATOM      7  O   PHE A   1      10.484  -1.724  21.976  0.00  0.00    -0.480 OA
ATOM      8  H   PHE A   1       9.811  -1.149  21.528  0.00  0.00    +0.295 HD
ENDBRANCH   5   7
ENDBRANCH   1   5
BRANCH   1   9
ATOM      9  CB  PHE A   1       9.666  -0.081  24.778  0.00  0.00    +0.065 C 
BRANCH   9  10
ATOM     10  CG  PHE A   1       9.694   1.401  24.485  0.00  0.00    -0.045 A 
ATOM     11  CD2 PHE A   1      10.748   1.955  23.745  0.00  0.00    +0.004 A 
ATOM     12  CE2 PHE A   1      10.752   3.316  23.435  0.00  0.00    +0.000 A 
ATOM     13  CZ  PHE A   1       9.702   4.132  23.852  0.00  0.00    +0.000 A 
ATOM     14  CE1 PHE A   1       8.652   3.592  24.593  0.00  0.00    +0.000 A 
ATOM     15  CD1 PHE A   1       8.652   2.234  24.915  0.00  0.00    +0.004 A 
ENDBRANCH   9  10
ENDBRANCH   1   9
TORSDOF 5
ENDMDL
MODEL 8
REMARK VINA RESULT:      -4.5      4.086      5.377
REMARK  Name = 
REMARK  5 active torsions:
REMARK  status: ('A' for Active; 'I' for Inactive)
REMARK    1  A    between atoms: N_1  and  CA_2
REMARK    2  A    between atoms: CA_2  and  CB_4
REMARK    3  A    between atoms: CA_2  and  C_11
REMARK    4  A    between atoms: CB_4  and  CG_5
REMARK    5  A    between atoms: C_11  and  O_12
REMARK                            x       y       z     vdW  Elec       q    Type
REMARK                         _______ _______ _______ _____ _____    ______ ____
ROOT
ATOM      1  CA  PHE A   1       9.672  -0.305  23.291  0.00  0.00    +0.165 C 
ENDROOT
BRANCH   1   2
ATOM      2  N   PHE A   1      10.318  -0.227  24.647  0.00  0.00    -0.318 NA
ATOM      3  H1  PHE A   1       9.854  -0.911  25.254  0.00  0.00    +0.119 HD
ATOM      4  H2  PHE A   1      11.262  -0.617  24.538  0.00  0.00    +0.119 HD
ENDBRANCH   1   2
BRANCH   1   5
ATOM      5  C   PHE A   1      10.087  -1.635  22.643  0.00  0.00    +0.322 C 
ATOM      6  OXT PHE A   1      10.484  -2.622  23.244  0.00  0.00    -0.249 OA
BRANCH   5   7
ATOM      7  O   PHE A   1       9.968  -1.581  21.291  0.00  0.00    -0.480 OA
ATOM      8  H   PHE A   1       9.828  -2.519  21.002  0.00  0.00    +0.295 HD
ENDBRANCH   5   7
ENDBRANCH   1   5
BRANCH   1   9
ATOM      9  CB  PHE A   1      10.066   0.858  22.366  0.00  0.00    +0.065 C 
BRANCH   9  10
ATOM     10  CG  PHE A   1       9.153   2.054  22.502  0.00  0.00    -0.045 A 
ATOM     11  CD2 PHE A   1       7.946   2.106  21.793  0.00  0.00    +0.004 A 
ATOM     12  CE2 PHE A   1       7.080   3.189  21.953  0.00  0.00    +0.000 A 
ATOM     13  CZ  PHE A   1       7.407   4.223  22.828  0.00  0.00    +0.000 A 
ATOM     14  CE1 PHE A   1       8.608   4.184  23.535  0.00  0.00    +0.000 A 
ATOM     15  CD1 PHE A   1       9.481   3.107  23.367  0.00  0.00    +0.004 A 
ENDBRANCH   9  10
ENDBRANCH   1   9
TORSDOF 5
ENDMDL
MODEL 9
REMARK VINA RESULT:      -4.4      3.295      5.114
REMARK  Name = 
REMARK  5 active torsions:
REMARK  status: ('A' for Active; 'I' for Inactive)
REMARK    1  A    between atoms: N_1  and  CA_2
REMARK    2  A    between atoms: CA_2  and  CB_4
REMARK    3  A    between atoms: CA_2  and  C_11
REMARK    4  A    between atoms: CB_4  and  CG_5
REMARK    5  A    between atoms: C_11  and  O_12
REMARK                            x       y       z     vdW  Elec       q    Type
REMARK                         _______ _______ _______ _____ _____    ______ ____
ROOT
ATOM      1  CA  PHE A   1       7.999  -5.254  25.743  0.00  0.00    +0.165 C 
ENDROOT
BRANCH   1   2
ATOM      2  N   PHE A   1       8.156  -5.664  27.181  0.00  0.00    -0.318 NA
ATOM      3  H1  PHE A   1       8.909  -5.098  27.588  0.00  0.00    +0.119 HD
ATOM      4  H2  PHE A   1       7.320  -5.322  27.671  0.00  0.00    +0.119 HD
ENDBRANCH   1   2
BRANCH   1   5
ATOM      5  C   PHE A   1       9.385  -4.862  25.207  0.00  0.00    +0.322 C 
ATOM      6  OXT PHE A   1       9.603  -3.987  24.383  0.00  0.00    -0.249 OA
BRANCH   5   7
ATOM      7  O   PHE A   1      10.360  -5.628  25.761  0.00  0.00    -0.480 OA
ATOM      8  H   PHE A   1       9.885  -6.298  26.316  0.00  0.00    +0.295 HD
ENDBRANCH   5   7
ENDBRANCH   1   5
BRANCH   1   9
ATOM      9  CB  PHE A   1       7.027  -4.078  25.552  0.00  0.00    +0.065 C 
BRANCH   9  10
ATOM     10  CG  PHE A   1       5.803  -4.452  24.748  0.00  0.00    -0.045 A 
ATOM     11  CD2 PHE A   1       5.884  -5.435  23.753  0.00  0.00    +0.004 A 
ATOM     12  CE2 PHE A   1       4.745  -5.813  23.041  0.00  0.00    +0.000 A 
ATOM     13  CZ  PHE A   1       3.515  -5.221  23.322  0.00  0.00    +0.000 A 
ATOM     14  CE1 PHE A   1       3.425  -4.237  24.306  0.00  0.00    +0.000 A 
ATOM     15  CD1 PHE A   1       4.565  -3.849  25.010  0.00  0.00    +0.004 A 
ENDBRANCH   9  10
ENDBRANCH   1   9
TORSDOF 5
ENDMDL
