MODEL 1
REMARK VINA RESULT:      -6.5      0.000      0.000
REMARK  Name = 
REMARK  11 active torsions:
REMARK  status: ('A' for Active; 'I' for Inactive)
REMARK    1  A    between atoms: C_1  and  C_2
REMARK    2  A    between atoms: C_2  and  C_3
REMARK    3  A    between atoms: C_2  and  N_11
REMARK    4  A    between atoms: C_3  and  C_4
REMARK    5  A    between atoms: C_7  and  O_8
REMARK    6  A    between atoms: N_11  and  C_12
REMARK    7  A    between atoms: C_12  and  C_13
REMARK    8  A    between atoms: C_13  and  O_14
REMARK    9  A    between atoms: C_13  and  C_15
REMARK   10  A    between atoms: C_17  and  O_18
REMARK   11  A    between atoms: C_20  and  O_21
REMARK                            x       y       z     vdW  Elec       q    Type
REMARK                         _______ _______ _______ _____ _____    ______ ____
ROOT
ATOM      1  C   UNL     1       5.705  -3.782  22.627  0.00  0.00    +0.117 C 
ENDROOT
BRANCH   1   2
ATOM      2  N   UNL     1       6.845  -3.116  21.990  0.00  0.00    -0.310 NA
ATOM      3  H   UNL     1       7.648  -3.745  21.970  0.00  0.00    +0.122 HD
BRANCH   2   5
ATOM      4  C   UNL     1       6.318  -1.511  23.820  0.00  0.00    +0.024 C 
ATOM      5  C   UNL     1       7.184  -1.815  22.588  0.00  0.00    +0.055 C 
BRANCH   5   6
ATOM      6  C   UNL     1       8.674  -1.768  23.015  0.00  0.00    +0.053 C 
BRANCH   6   7
ATOM      7  C   UNL     1       9.283  -0.383  23.038  0.00  0.00    -0.046 A 
ATOM      8  C   UNL     1       9.295   0.399  21.874  0.00  0.00    +0.007 A 
ATOM      9  C   UNL     1       9.851   1.678  21.882  0.00  0.00    +0.045 A 
ATOM     10  C   UNL     1      10.396   2.178  23.054  0.00  0.00    +0.117 A 
ATOM     11  C   UNL     1      10.405   1.418  24.222  0.00  0.00    +0.045 A 
ATOM     12  C   UNL     1       9.846   0.138  24.212  0.00  0.00    +0.007 A 
BRANCH  10  13
ATOM     13  O   UNL     1      10.920   3.437  23.023  0.00  0.00    -0.507 OA
ATOM     14  H   UNL     1      11.273   3.602  22.135  0.00  0.00    +0.292 HD
ENDBRANCH  10  13
ENDBRANCH   6   7
ENDBRANCH   5   6
ENDBRANCH   2   5
ENDBRANCH   1   2
BRANCH   1  15
ATOM     15  C   UNL     1       6.064  -5.197  23.146  0.00  0.00    +0.158 C 
BRANCH  15  16
ATOM     16  C   UNL     1       6.939  -5.118  24.384  0.00  0.00    -0.011 A 
ATOM     17  C   UNL     1       6.386  -4.921  25.662  0.00  0.00    +0.051 A 
ATOM     18  C   UNL     1       7.199  -4.928  26.792  0.00  0.00    +0.121 A 
ATOM     19  C   UNL     1       8.570  -5.112  26.682  0.00  0.00    +0.090 A 
ATOM     20  C   UNL     1       9.124  -5.286  25.420  0.00  0.00    +0.121 A 
ATOM     21  C   UNL     1       8.328  -5.288  24.275  0.00  0.00    +0.051 A 
BRANCH  18  22
ATOM     22  O   UNL     1       6.595  -4.763  28.004  0.00  0.00    -0.507 OA
ATOM     23  H   UNL     1       5.633  -4.781  27.872  0.00  0.00    +0.292 HD
ENDBRANCH  18  22
BRANCH  20  24
ATOM     24  O   UNL     1      10.474  -5.469  25.344  0.00  0.00    -0.507 OA
ATOM     25  H   UNL     1      10.901  -4.600  25.260  0.00  0.00    +0.292 HD
ENDBRANCH  20  24
ENDBRANCH  15  16
BRANCH  15  26
ATOM     26  O   UNL     1       6.739  -5.946  22.128  0.00  0.00    -0.386 OA
ATOM     27  H   UNL     1       6.247  -6.773  22.002  0.00  0.00    +0.210 HD
ENDBRANCH  15  26
ENDBRANCH   1  15
TORSDOF 10
ENDMDL
MODEL 2
REMARK VINA RESULT:      -6.5      0.148      1.767
REMARK  Name = 
REMARK  11 active torsions:
REMARK  status: ('A' for Active; 'I' for Inactive)
REMARK    1  A    between atoms: C_1  and  C_2
REMARK    2  A    between atoms: C_2  and  C_3
REMARK    3  A    between atoms: C_2  and  N_11
REMARK    4  A    between atoms: C_3  and  C_4
REMARK    5  A    between atoms: C_7  and  O_8
REMARK    6  A    between atoms: N_11  and  C_12
REMARK    7  A    between atoms: C_12  and  C_13
REMARK    8  A    between atoms: C_13  and  O_14
REMARK    9  A    between atoms: C_13  and  C_15
REMARK   10  A    between atoms: C_17  and  O_18
REMARK   11  A    between atoms: C_20  and  O_21
REMARK                            x       y       z     vdW  Elec       q    Type
REMARK                         _______ _______ _______ _____ _____    ______ ____
ROOT
ATOM      1  C   UNL     1       5.623  -3.844  22.653  0.00  0.00    +0.117 C 
ENDROOT
BRANCH   1   2
ATOM      2  N   UNL     1       6.689  -3.105  21.971  0.00  0.00    -0.310 NA
ATOM      3  H   UNL     1       7.498  -3.711  21.833  0.00  0.00    +0.122 HD
BRANCH   2   5
ATOM      4  C   UNL     1       6.255  -1.624  23.926  0.00  0.00    +0.024 C 
ATOM      5  C   UNL     1       7.057  -1.844  22.635  0.00  0.00    +0.055 C 
BRANCH   5   6
ATOM      6  C   UNL     1       8.567  -1.819  22.986  0.00  0.00    +0.053 C 
BRANCH   6   7
ATOM      7  C   UNL     1       9.186  -0.439  23.024  0.00  0.00    -0.046 A 
ATOM      8  C   UNL     1       9.314   0.306  21.843  0.00  0.00    +0.007 A 
ATOM      9  C   UNL     1       9.881   1.580  21.863  0.00  0.00    +0.045 A 
ATOM     10  C   UNL     1      10.319   2.112  23.065  0.00  0.00    +0.117 A 
ATOM     11  C   UNL     1      10.212   1.390  24.251  0.00  0.00    +0.045 A 
ATOM     12  C   UNL     1       9.643   0.115  24.229  0.00  0.00    +0.007 A 
BRANCH  10  13
ATOM     13  O   UNL     1      10.857   3.366  23.045  0.00  0.00    -0.507 OA
ATOM     14  H   UNL     1      10.930   3.655  22.122  0.00  0.00    +0.292 HD
ENDBRANCH  10  13
ENDBRANCH   6   7
ENDBRANCH   5   6
ENDBRANCH   2   5
ENDBRANCH   1   2
BRANCH   1  15
ATOM     15  C   UNL     1       6.068  -5.268  23.073  0.00  0.00    +0.158 C 
BRANCH  15  16
ATOM     16  C   UNL     1       6.960  -5.220  24.301  0.00  0.00    -0.011 A 
ATOM     17  C   UNL     1       8.359  -5.301  24.194  0.00  0.00    +0.051 A 
ATOM     18  C   UNL     1       9.163  -5.177  25.324  0.00  0.00    +0.121 A 
ATOM     19  C   UNL     1       8.602  -4.988  26.579  0.00  0.00    +0.090 A 
ATOM     20  C   UNL     1       7.218  -4.927  26.694  0.00  0.00    +0.121 A 
ATOM     21  C   UNL     1       6.395  -5.044  25.574  0.00  0.00    +0.051 A 
BRANCH  18  22
ATOM     22  O   UNL     1      10.514  -5.233  25.147  0.00  0.00    -0.507 OA
ATOM     23  H   UNL     1      10.692  -5.504  24.231  0.00  0.00    +0.292 HD
ENDBRANCH  18  22
BRANCH  20  24
ATOM     24  O   UNL     1       6.696  -4.737  27.940  0.00  0.00    -0.507 OA
ATOM     25  H   UNL     1       7.158  -5.322  28.563  0.00  0.00    +0.292 HD
ENDBRANCH  20  24
ENDBRANCH  15  16
BRANCH  15  26
ATOM     26  O   UNL     1       6.763  -5.910  21.999  0.00  0.00    -0.386 OA
ATOM     27  H   UNL     1       6.151  -6.547  21.596  0.00  0.00    +0.210 HD
ENDBRANCH  15  26
ENDBRANCH   1  15
TORSDOF 10
ENDMDL
MODEL 3
REMARK VINA RESULT:      -6.5      3.385      6.796
REMARK  Name = 
REMARK  11 active torsions:
REMARK  status: ('A' for Active; 'I' for Inactive)
REMARK    1  A    between atoms: C_1  and  C_2
REMARK    2  A    between atoms: C_2  and  C_3
REMARK    3  A    between atoms: C_2  and  N_11
REMARK    4  A    between atoms: C_3  and  C_4
REMARK    5  A    between atoms: C_7  and  O_8
REMARK    6  A    between atoms: N_11  and  C_12
REMARK    7  A    between atoms: C_12  and  C_13
REMARK    8  A    between atoms: C_13  and  O_14
REMARK    9  A    between atoms: C_13  and  C_15
REMARK   10  A    between atoms: C_17  and  O_18
REMARK   11  A    between atoms: C_20  and  O_21
REMARK                            x       y       z     vdW  Elec       q    Type
REMARK                         _______ _______ _______ _____ _____    ______ ____
ROOT
ATOM      1  C   UNL     1       8.507  -4.329  26.532  0.00  0.00    +0.117 C 
ENDROOT
BRANCH   1   2
ATOM      2  N   UNL     1       8.176  -5.640  27.099  0.00  0.00    -0.310 NA
ATOM      3  H   UNL     1       8.587  -6.379  26.528  0.00  0.00    +0.122 HD
BRANCH   2   5
ATOM      4  C   UNL     1       6.397  -6.020  28.801  0.00  0.00    +0.024 C 
ATOM      5  C   UNL     1       6.735  -5.850  27.312  0.00  0.00    +0.055 C 
BRANCH   5   6
ATOM      6  C   UNL     1       5.910  -4.662  26.756  0.00  0.00    +0.053 C 
BRANCH   6   7
ATOM      7  C   UNL     1       4.946  -5.022  25.648  0.00  0.00    -0.046 A 
ATOM      8  C   UNL     1       4.093  -4.046  25.113  0.00  0.00    +0.007 A 
ATOM      9  C   UNL     1       3.201  -4.363  24.090  0.00  0.00    +0.045 A 
ATOM     10  C   UNL     1       3.160  -5.659  23.598  0.00  0.00    +0.117 A 
ATOM     11  C   UNL     1       3.989  -6.649  24.118  0.00  0.00    +0.045 A 
ATOM     12  C   UNL     1       4.883  -6.329  25.142  0.00  0.00    +0.007 A 
BRANCH  10  13
ATOM     13  O   UNL     1       2.281  -5.926  22.589  0.00  0.00    -0.507 OA
ATOM     14  H   UNL     1       2.682  -6.582  21.998  0.00  0.00    +0.292 HD
ENDBRANCH  10  13
ENDBRANCH   6   7
ENDBRANCH   5   6
ENDBRANCH   2   5
ENDBRANCH   1   2
BRANCH   1  15
ATOM     15  C   UNL     1       9.193  -4.442  25.147  0.00  0.00    +0.158 C 
BRANCH  15  16
ATOM     16  C   UNL     1       8.197  -4.204  24.026  0.00  0.00    -0.011 A 
ATOM     17  C   UNL     1       7.766  -5.252  23.193  0.00  0.00    +0.051 A 
ATOM     18  C   UNL     1       6.795  -5.028  22.221  0.00  0.00    +0.121 A 
ATOM     19  C   UNL     1       6.244  -3.767  22.042  0.00  0.00    +0.090 A 
ATOM     20  C   UNL     1       6.680  -2.724  22.848  0.00  0.00    +0.121 A 
ATOM     21  C   UNL     1       7.649  -2.927  23.832  0.00  0.00    +0.051 A 
BRANCH  18  22
ATOM     22  O   UNL     1       6.398  -6.094  21.468  0.00  0.00    -0.507 OA
ATOM     23  H   UNL     1       7.189  -6.508  21.083  0.00  0.00    +0.292 HD
ENDBRANCH  18  22
BRANCH  20  24
ATOM     24  O   UNL     1       6.118  -1.496  22.652  0.00  0.00    -0.507 OA
ATOM     25  H   UNL     1       5.247  -1.481  23.083  0.00  0.00    +0.292 HD
ENDBRANCH  20  24
ENDBRANCH  15  16
BRANCH  15  26
ATOM     26  O   UNL     1       9.792  -5.733  24.991  0.00  0.00    -0.386 OA
ATOM     27  H   UNL     1       9.219  -6.376  25.438  0.00  0.00    +0.210 HD
ENDBRANCH  15  26
ENDBRANCH   1  15
TORSDOF 10
ENDMDL
MODEL 4
REMARK VINA RESULT:      -6.4      2.274      3.374
REMARK  Name = 
REMARK  11 active torsions:
REMARK  status: ('A' for Active; 'I' for Inactive)
REMARK    1  A    between atoms: C_1  and  C_2
REMARK    2  A    between atoms: C_2  and  C_3
REMARK    3  A    between atoms: C_2  and  N_11
REMARK    4  A    between atoms: C_3  and  C_4
REMARK    5  A    between atoms: C_7  and  O_8
REMARK    6  A    between atoms: N_11  and  C_12
REMARK    7  A    between atoms: C_12  and  C_13
REMARK    8  A    between atoms: C_13  and  O_14
REMARK    9  A    between atoms: C_13  and  C_15
REMARK   10  A    between atoms: C_17  and  O_18
REMARK   11  A    between atoms: C_20  and  O_21
REMARK                            x       y       z     vdW  Elec       q    Type
REMARK                         _______ _______ _______ _____ _____    ______ ____
ROOT
ATOM      1  C   UNL     1       7.288  -4.869  22.757  0.00  0.00    +0.117 C 
ENDROOT
BRANCH   1   2
ATOM      2  N   UNL     1       8.376  -4.743  23.731  0.00  0.00    -0.310 NA
ATOM      3  H   UNL     1       8.274  -5.450  24.459  0.00  0.00    +0.122 HD
BRANCH   2   5
ATOM      4  C   UNL     1       8.301  -3.385  25.817  0.00  0.00    +0.024 C 
ATOM      5  C   UNL     1       8.515  -3.391  24.296  0.00  0.00    +0.055 C 
BRANCH   5   6
ATOM      6  C   UNL     1       9.917  -2.802  23.997  0.00  0.00    +0.053 C 
BRANCH   6   7
ATOM      7  C   UNL     1       9.905  -1.444  23.330  0.00  0.00    -0.046 A 
ATOM      8  C   UNL     1       9.463  -1.317  22.005  0.00  0.00    +0.007 A 
ATOM      9  C   UNL     1       9.444  -0.071  21.378  0.00  0.00    +0.045 A 
ATOM     10  C   UNL     1       9.866   1.050  22.076  0.00  0.00    +0.117 A 
ATOM     11  C   UNL     1      10.319   0.949  23.389  0.00  0.00    +0.045 A 
ATOM     12  C   UNL     1      10.335  -0.299  24.015  0.00  0.00    +0.007 A 
BRANCH  10  13
ATOM     13  O   UNL     1       9.822   2.252  21.431  0.00  0.00    -0.507 OA
ATOM     14  H   UNL     1       9.191   2.185  20.698  0.00  0.00    +0.292 HD
ENDBRANCH  10  13
ENDBRANCH   6   7
ENDBRANCH   5   6
ENDBRANCH   2   5
ENDBRANCH   1   2
BRANCH   1  15
ATOM     15  C   UNL     1       5.935  -4.356  23.315  0.00  0.00    +0.158 C 
BRANCH  15  16
ATOM     16  C   UNL     1       5.163  -5.478  23.985  0.00  0.00    -0.011 A 
ATOM     17  C   UNL     1       5.455  -5.887  25.298  0.00  0.00    +0.051 A 
ATOM     18  C   UNL     1       4.685  -6.864  25.922  0.00  0.00    +0.121 A 
ATOM     19  C   UNL     1       3.625  -7.467  25.258  0.00  0.00    +0.090 A 
ATOM     20  C   UNL     1       3.345  -7.082  23.953  0.00  0.00    +0.121 A 
ATOM     21  C   UNL     1       4.101  -6.101  23.311  0.00  0.00    +0.051 A 
BRANCH  18  22
ATOM     22  O   UNL     1       5.001  -7.193  27.208  0.00  0.00    -0.507 OA
ATOM     23  H   UNL     1       5.897  -6.867  27.395  0.00  0.00    +0.292 HD
ENDBRANCH  18  22
BRANCH  20  24
ATOM     24  O   UNL     1       2.295  -7.689  23.328  0.00  0.00    -0.507 OA
ATOM     25  H   UNL     1       1.809  -7.021  22.816  0.00  0.00    +0.292 HD
ENDBRANCH  20  24
ENDBRANCH  15  16
BRANCH  15  26
ATOM     26  O   UNL     1       5.145  -3.790  22.263  0.00  0.00    -0.386 OA
ATOM     27  H   UNL     1       5.507  -2.911  22.069  0.00  0.00    +0.210 HD
ENDBRANCH  15  26
ENDBRANCH   1  15
TORSDOF 10
ENDMDL
MODEL 5
REMARK VINA RESULT:      -6.4      2.318      5.167
REMARK  Name = 
REMARK  11 active torsions:
REMARK  status: ('A' for Active; 'I' for Inactive)
REMARK    1  A    between atoms: C_1  and  C_2
REMARK    2  A    between atoms: C_2  and  C_3
REMARK    3  A    between atoms: C_2  and  N_11
REMARK    4  A    between atoms: C_3  and  C_4
REMARK    5  A    between atoms: C_7  and  O_8
REMARK    6  A    between atoms: N_11  and  C_12
REMARK    7  A    between atoms: C_12  and  C_13
REMARK    8  A    between atoms: C_13  and  O_14
REMARK    9  A    between atoms: C_13  and  C_15
REMARK   10  A    between atoms: C_17  and  O_18
REMARK   11  A    between atoms: C_20  and  O_21
REMARK                            x       y       z     vdW  Elec       q    Type
REMARK                         _______ _______ _______ _____ _____    ______ ____
ROOT
ATOM      1  C   UNL     1       8.350  -0.166  25.100  0.00  0.00    +0.117 C 
ENDROOT
BRANCH   1   2
ATOM      2  N   UNL     1       9.296  -0.179  23.980  0.00  0.00    -0.310 NA
ATOM      3  H   UNL     1       9.638   0.766  23.803  0.00  0.00    +0.122 HD
BRANCH   2   5
ATOM      4  C   UNL     1       9.454  -0.270  21.496  0.00  0.00    +0.024 C 
ATOM      5  C   UNL     1       8.764  -0.806  22.760  0.00  0.00    +0.055 C 
BRANCH   5   6
ATOM      6  C   UNL     1       8.944  -2.345  22.799  0.00  0.00    +0.053 C 
BRANCH   6   7
ATOM      7  C   UNL     1       7.654  -3.135  22.771  0.00  0.00    -0.046 A 
ATOM      8  C   UNL     1       7.687  -4.535  22.837  0.00  0.00    +0.007 A 
ATOM      9  C   UNL     1       6.505  -5.277  22.815  0.00  0.00    +0.045 A 
ATOM     10  C   UNL     1       5.289  -4.618  22.729  0.00  0.00    +0.117 A 
ATOM     11  C   UNL     1       5.229  -3.229  22.653  0.00  0.00    +0.045 A 
ATOM     12  C   UNL     1       6.413  -2.489  22.677  0.00  0.00    +0.007 A 
BRANCH  10  13
ATOM     13  O   UNL     1       4.155  -5.378  22.722  0.00  0.00    -0.507 OA
ATOM     14  H   UNL     1       4.337  -6.197  22.235  0.00  0.00    +0.292 HD
ENDBRANCH  10  13
ENDBRANCH   6   7
ENDBRANCH   5   6
ENDBRANCH   2   5
ENDBRANCH   1   2
BRANCH   1  15
ATOM     15  C   UNL     1       8.825  -1.047  26.284  0.00  0.00    +0.158 C 
BRANCH  15  16
ATOM     16  C   UNL     1       7.991  -2.311  26.390  0.00  0.00    -0.011 A 
ATOM     17  C   UNL     1       6.586  -2.269  26.344  0.00  0.00    +0.051 A 
ATOM     18  C   UNL     1       5.843  -3.445  26.366  0.00  0.00    +0.121 A 
ATOM     19  C   UNL     1       6.468  -4.681  26.449  0.00  0.00    +0.090 A 
ATOM     20  C   UNL     1       7.855  -4.728  26.516  0.00  0.00    +0.121 A 
ATOM     21  C   UNL     1       8.620  -3.561  26.490  0.00  0.00    +0.051 A 
BRANCH  18  22
ATOM     22  O   UNL     1       4.485  -3.336  26.287  0.00  0.00    -0.507 OA
ATOM     23  H   UNL     1       4.272  -2.523  25.799  0.00  0.00    +0.292 HD
ENDBRANCH  18  22
BRANCH  20  24
ATOM     24  O   UNL     1       8.442  -5.957  26.593  0.00  0.00    -0.507 OA
ATOM     25  H   UNL     1       9.160  -6.001  25.939  0.00  0.00    +0.292 HD
ENDBRANCH  20  24
ENDBRANCH  15  16
BRANCH  15  26
ATOM     26  O   UNL     1       8.747  -0.315  27.512  0.00  0.00    -0.386 OA
ATOM     27  H   UNL     1       9.507  -0.578  28.056  0.00  0.00    +0.210 HD
ENDBRANCH  15  26
ENDBRANCH   1  15
TORSDOF 10
ENDMDL
MODEL 6
REMARK VINA RESULT:      -6.3      1.849      3.420
REMARK  Name = 
REMARK  11 active torsions:
REMARK  status: ('A' for Active; 'I' for Inactive)
REMARK    1  A    between atoms: C_1  and  C_2
REMARK    2  A    between atoms: C_2  and  C_3
REMARK    3  A    between atoms: C_2  and  N_11
REMARK    4  A    between atoms: C_3  and  C_4
REMARK    5  A    between atoms: C_7  and  O_8
REMARK    6  A    between atoms: N_11  and  C_12
REMARK    7  A    between atoms: C_12  and  C_13
REMARK    8  A    between atoms: C_13  and  O_14
REMARK    9  A    between atoms: C_13  and  C_15
REMARK   10  A    between atoms: C_17  and  O_18
REMARK   11  A    between atoms: C_20  and  O_21
REMARK                            x       y       z     vdW  Elec       q    Type
REMARK                         _______ _______ _______ _____ _____    ______ ____
ROOT
ATOM      1  C   UNL     1       7.661  -3.457  26.181  0.00  0.00    +0.117 C 
ENDROOT
BRANCH   1   2
ATOM      2  N   UNL     1       8.674  -2.622  25.528  0.00  0.00    -0.310 NA
ATOM      3  H   UNL     1       8.573  -1.653  25.833  0.00  0.00    +0.122 HD
BRANCH   2   5
ATOM      4  C   UNL     1       7.523  -1.960  23.421  0.00  0.00    +0.024 C 
ATOM      5  C   UNL     1       8.684  -2.736  24.061  0.00  0.00    +0.055 C 
BRANCH   5   6
ATOM      6  C   UNL     1      10.013  -2.204  23.468  0.00  0.00    +0.053 C 
BRANCH   6   7
ATOM      7  C   UNL     1      10.088  -0.700  23.328  0.00  0.00    -0.046 A 
ATOM      8  C   UNL     1       9.873  -0.099  22.080  0.00  0.00    +0.007 A 
ATOM      9  C   UNL     1       9.936   1.287  21.936  0.00  0.00    +0.045 A 
ATOM     10  C   UNL     1      10.215   2.075  23.042  0.00  0.00    +0.117 A 
ATOM     11  C   UNL     1      10.442   1.503  24.291  0.00  0.00    +0.045 A 
ATOM     12  C   UNL     1      10.376   0.115  24.433  0.00  0.00    +0.007 A 
BRANCH  10  13
ATOM     13  O   UNL     1      10.257   3.427  22.863  0.00  0.00    -0.507 OA
ATOM     14  H   UNL     1       9.769   3.849  23.587  0.00  0.00    +0.292 HD
ENDBRANCH  10  13
ENDBRANCH   6   7
ENDBRANCH   5   6
ENDBRANCH   2   5
ENDBRANCH   1   2
BRANCH   1  15
ATOM     15  C   UNL     1       7.811  -4.957  25.818  0.00  0.00    +0.158 C 
BRANCH  15  16
ATOM     16  C   UNL     1       6.497  -5.528  25.315  0.00  0.00    -0.011 A 
ATOM     17  C   UNL     1       6.144  -5.471  23.955  0.00  0.00    +0.051 A 
ATOM     18  C   UNL     1       4.972  -6.069  23.504  0.00  0.00    +0.121 A 
ATOM     19  C   UNL     1       4.119  -6.719  24.384  0.00  0.00    +0.090 A 
ATOM     20  C   UNL     1       4.452  -6.762  25.732  0.00  0.00    +0.121 A 
ATOM     21  C   UNL     1       5.625  -6.173  26.206  0.00  0.00    +0.051 A 
BRANCH  18  22
ATOM     22  O   UNL     1       4.704  -6.004  22.168  0.00  0.00    -0.507 OA
ATOM     23  H   UNL     1       5.546  -5.911  21.691  0.00  0.00    +0.292 HD
ENDBRANCH  18  22
BRANCH  20  24
ATOM     24  O   UNL     1       3.596  -7.412  26.574  0.00  0.00    -0.507 OA
ATOM     25  H   UNL     1       3.771  -8.366  26.519  0.00  0.00    +0.292 HD
ENDBRANCH  20  24
ENDBRANCH  15  16
BRANCH  15  26
ATOM     26  O   UNL     1       8.255  -5.703  26.956  0.00  0.00    -0.386 OA
ATOM     27  H   UNL     1       7.534  -5.700  27.605  0.00  0.00    +0.210 HD
ENDBRANCH  15  26
ENDBRANCH   1  15
TORSDOF 10
ENDMDL
MODEL 7
REMARK VINA RESULT:      -6.3      3.511      6.946
REMARK  Name = 
REMARK  11 active torsions:
REMARK  status: ('A' for Active; 'I' for Inactive)
REMARK    1  A    between atoms: C_1  and  C_2
REMARK    2  A    between atoms: C_2  and  C_3
REMARK    3  A    between atoms: C_2  and  N_11
REMARK    4  A    between atoms: C_3  and  C_4
REMARK    5  A    between atoms: C_7  and  O_8
REMARK    6  A    between atoms: N_11  and  C_12
REMARK    7  A    between atoms: C_12  and  C_13
REMARK    8  A    between atoms: C_13  and  O_14
REMARK    9  A    between atoms: C_13  and  C_15
REMARK   10  A    between atoms: C_17  and  O_18
REMARK   11  A    between atoms: C_20  and  O_21
REMARK                            x       y       z     vdW  Elec       q    Type
REMARK                         _______ _______ _______ _____ _____    ______ ____
ROOT
ATOM      1  C   UNL     1       8.392  -5.325  26.472  0.00  0.00    +0.117 C 
ENDROOT
BRANCH   1   2
ATOM      2  N   UNL     1       7.470  -4.511  27.269  0.00  0.00    -0.310 NA
ATOM      3  H   UNL     1       7.877  -4.322  28.185  0.00  0.00    +0.122 HD
BRANCH   2   5
ATOM      4  C   UNL     1       5.645  -5.152  28.838  0.00  0.00    +0.024 C 
ATOM      5  C   UNL     1       6.117  -5.081  27.378  0.00  0.00    +0.055 C 
BRANCH   5   6
ATOM      6  C   UNL     1       5.092  -4.242  26.573  0.00  0.00    +0.053 C 
BRANCH   6   7
ATOM      7  C   UNL     1       4.375  -4.999  25.477  0.00  0.00    -0.046 A 
ATOM      8  C   UNL     1       4.566  -6.381  25.337  0.00  0.00    +0.007 A 
ATOM      9  C   UNL     1       3.910  -7.092  24.332  0.00  0.00    +0.045 A 
ATOM     10  C   UNL     1       3.060  -6.421  23.466  0.00  0.00    +0.117 A 
ATOM     11  C   UNL     1       2.860  -5.048  23.578  0.00  0.00    +0.045 A 
ATOM     12  C   UNL     1       3.517  -4.338  24.586  0.00  0.00    +0.007 A 
BRANCH  10  13
ATOM     13  O   UNL     1       2.428  -7.154  22.504  0.00  0.00    -0.507 OA
ATOM     14  H   UNL     1       2.963  -7.941  22.315  0.00  0.00    +0.292 HD
ENDBRANCH  10  13
ENDBRANCH   6   7
ENDBRANCH   5   6
ENDBRANCH   2   5
ENDBRANCH   1   2
BRANCH   1  15
ATOM     15  C   UNL     1       8.975  -4.546  25.265  0.00  0.00    +0.158 C 
BRANCH  15  16
ATOM     16  C   UNL     1       7.932  -4.370  24.176  0.00  0.00    -0.011 A 
ATOM     17  C   UNL     1       7.403  -3.106  23.864  0.00  0.00    +0.051 A 
ATOM     18  C   UNL     1       6.505  -2.956  22.811  0.00  0.00    +0.121 A 
ATOM     19  C   UNL     1       6.101  -4.049  22.058  0.00  0.00    +0.090 A 
ATOM     20  C   UNL     1       6.604  -5.305  22.375  0.00  0.00    +0.121 A 
ATOM     21  C   UNL     1       7.509  -5.477  23.423  0.00  0.00    +0.051 A 
BRANCH  18  22
ATOM     22  O   UNL     1       6.054  -1.697  22.540  0.00  0.00    -0.507 OA
ATOM     23  H   UNL     1       6.100  -1.173  23.357  0.00  0.00    +0.292 HD
ENDBRANCH  18  22
BRANCH  20  24
ATOM     24  O   UNL     1       6.192  -6.360  21.616  0.00  0.00    -0.507 OA
ATOM     25  H   UNL     1       6.974  -6.855  21.320  0.00  0.00    +0.292 HD
ENDBRANCH  20  24
ENDBRANCH  15  16
BRANCH  15  26
ATOM     26  O   UNL     1      10.114  -5.230  24.733  0.00  0.00    -0.386 OA
ATOM     27  H   UNL     1      10.058  -6.155  25.021  0.00  0.00    +0.210 HD
ENDBRANCH  15  26
ENDBRANCH   1  15
TORSDOF 10
ENDMDL
MODEL 8
REMARK VINA RESULT:      -6.2      1.692      2.724
REMARK  Name = 
REMARK  11 active torsions:
REMARK  status: ('A' for Active; 'I' for Inactive)
REMARK    1  A    between atoms: C_1  and  C_2
REMARK    2  A    between atoms: C_2  and  C_3
REMARK    3  A    between atoms: C_2  and  N_11
REMARK    4  A    between atoms: C_3  and  C_4
REMARK    5  A    between atoms: C_7  and  O_8
REMARK    6  A    between atoms: N_11  and  C_12
REMARK    7  A    between atoms: C_12  and  C_13
REMARK    8  A    between atoms: C_13  and  O_14
REMARK    9  A    between atoms: C_13  and  C_15
REMARK   10  A    between atoms: C_17  and  O_18
REMARK   11  A    between atoms: C_20  and  O_21
REMARK                            x       y       z     vdW  Elec       q    Type
REMARK                         _______ _______ _______ _____ _____    ______ ____
ROOT
ATOM      1  C   UNL     1       6.681  -3.402  23.173  0.00  0.00    +0.117 C 
ENDROOT
BRANCH   1   2
ATOM      2  N   UNL     1       8.009  -3.101  22.629  0.00  0.00    -0.310 NA
ATOM      3  H   UNL     1       8.381  -3.921  22.149  0.00  0.00    +0.122 HD
BRANCH   2   5
ATOM      4  C   UNL     1       9.455  -3.673  24.574  0.00  0.00    +0.024 C 
ATOM      5  C   UNL     1       8.955  -2.574  23.626  0.00  0.00    +0.055 C 
BRANCH   5   6
ATOM      6  C   UNL     1      10.183  -1.923  22.941  0.00  0.00    +0.053 C 
BRANCH   6   7
ATOM      7  C   UNL     1      10.189  -0.410  22.955  0.00  0.00    -0.046 A 
ATOM      8  C   UNL     1      10.616   0.280  24.099  0.00  0.00    +0.007 A 
ATOM      9  C   UNL     1      10.630   1.674  24.125  0.00  0.00    +0.045 A 
ATOM     10  C   UNL     1      10.218   2.382  23.007  0.00  0.00    +0.117 A 
ATOM     11  C   UNL     1       9.781   1.721  21.861  0.00  0.00    +0.045 A 
ATOM     12  C   UNL     1       9.769   0.325  21.837  0.00  0.00    +0.007 A 
BRANCH  10  13
ATOM     13  O   UNL     1      10.257   3.744  23.069  0.00  0.00    -0.507 OA
ATOM     14  H   UNL     1      10.690   4.077  22.267  0.00  0.00    +0.292 HD
ENDBRANCH  10  13
ENDBRANCH   6   7
ENDBRANCH   5   6
ENDBRANCH   2   5
ENDBRANCH   1   2
BRANCH   1  15
ATOM     15  C   UNL     1       6.261  -4.873  22.923  0.00  0.00    +0.158 C 
BRANCH  15  16
ATOM     16  C   UNL     1       5.732  -5.511  24.195  0.00  0.00    -0.011 A 
ATOM     17  C   UNL     1       4.743  -6.509  24.158  0.00  0.00    +0.051 A 
ATOM     18  C   UNL     1       4.327  -7.136  25.329  0.00  0.00    +0.121 A 
ATOM     19  C   UNL     1       4.866  -6.780  26.557  0.00  0.00    +0.090 A 
ATOM     20  C   UNL     1       5.830  -5.780  26.602  0.00  0.00    +0.121 A 
ATOM     21  C   UNL     1       6.265  -5.142  25.440  0.00  0.00    +0.051 A 
BRANCH  18  22
ATOM     22  O   UNL     1       3.386  -8.118  25.220  0.00  0.00    -0.507 OA
ATOM     23  H   UNL     1       2.567  -7.804  25.637  0.00  0.00    +0.292 HD
ENDBRANCH  18  22
BRANCH  20  24
ATOM     24  O   UNL     1       6.345  -5.454  27.823  0.00  0.00    -0.507 OA
ATOM     25  H   UNL     1       7.039  -6.096  28.049  0.00  0.00    +0.292 HD
ENDBRANCH  20  24
ENDBRANCH  15  16
BRANCH  15  26
ATOM     26  O   UNL     1       7.371  -5.632  22.430  0.00  0.00    -0.386 OA
ATOM     27  H   UNL     1       7.016  -6.314  21.838  0.00  0.00    +0.210 HD
ENDBRANCH  15  26
ENDBRANCH   1  15
TORSDOF 10
ENDMDL
MODEL 9
REMARK VINA RESULT:      -6.2      2.204      3.307
REMARK  Name = 
REMARK  11 active torsions:
REMARK  status: ('A' for Active; 'I' for Inactive)
REMARK    1  A    between atoms: C_1  and  C_2
REMARK    2  A    between atoms: C_2  and  C_3
REMARK    3  A    between atoms: C_2  and  N_11
REMARK    4  A    between atoms: C_3  and  C_4
REMARK    5  A    between atoms: C_7  and  O_8
REMARK    6  A    between atoms: N_11  and  C_12
REMARK    7  A    between atoms: C_12  and  C_13
REMARK    8  A    between atoms: C_13  and  O_14
REMARK    9  A    between atoms: C_13  and  C_15
REMARK   10  A    between atoms: C_17  and  O_18
REMARK   11  A    between atoms: C_20  and  O_21
REMARK                            x       y       z     vdW  Elec       q    Type
REMARK                         _______ _______ _______ _____ _____    ______ ____
ROOT
ATOM      1  C   UNL     1       6.815  -4.345  22.078  0.00  0.00    +0.117 C 
ENDROOT
BRANCH   1   2
ATOM      2  N   UNL     1       7.874  -4.588  23.062  0.00  0.00    -0.310 NA
ATOM      3  H   UNL     1       7.723  -5.487  23.520  0.00  0.00    +0.122 HD
BRANCH   2   5
ATOM      4  C   UNL     1       7.714  -3.957  25.466  0.00  0.00    +0.024 C 
ATOM      5  C   UNL     1       8.041  -3.498  24.037  0.00  0.00    +0.055 C 
BRANCH   5   6
ATOM      6  C   UNL     1       9.491  -2.950  24.020  0.00  0.00    +0.053 C 
BRANCH   6   7
ATOM      7  C   UNL     1       9.651  -1.603  23.351  0.00  0.00    -0.046 A 
ATOM      8  C   UNL     1      10.137  -0.509  24.082  0.00  0.00    +0.007 A 
ATOM      9  C   UNL     1      10.292   0.738  23.478  0.00  0.00    +0.045 A 
ATOM     10  C   UNL     1       9.963   0.894  22.141  0.00  0.00    +0.117 A 
ATOM     11  C   UNL     1       9.470  -0.173  21.394  0.00  0.00    +0.045 A 
ATOM     12  C   UNL     1       9.317  -1.422  22.001  0.00  0.00    +0.007 A 
BRANCH  10  13
ATOM     13  O   UNL     1      10.140   2.127  21.584  0.00  0.00    -0.507 OA
ATOM     14  H   UNL     1      10.254   2.774  22.297  0.00  0.00    +0.292 HD
ENDBRANCH  10  13
ENDBRANCH   6   7
ENDBRANCH   5   6
ENDBRANCH   2   5
ENDBRANCH   1   2
BRANCH   1  15
ATOM     15  C   UNL     1       5.704  -5.425  22.129  0.00  0.00    +0.158 C 
BRANCH  15  16
ATOM     16  C   UNL     1       4.915  -5.334  23.423  0.00  0.00    -0.011 A 
ATOM     17  C   UNL     1       4.281  -4.142  23.814  0.00  0.00    +0.051 A 
ATOM     18  C   UNL     1       3.499  -4.101  24.964  0.00  0.00    +0.121 A 
ATOM     19  C   UNL     1       3.341  -5.228  25.758  0.00  0.00    +0.090 A 
ATOM     20  C   UNL     1       3.982  -6.404  25.388  0.00  0.00    +0.121 A 
ATOM     21  C   UNL     1       4.766  -6.469  24.237  0.00  0.00    +0.051 A 
BRANCH  18  22
ATOM     22  O   UNL     1       2.886  -2.921  25.269  0.00  0.00    -0.507 OA
ATOM     23  H   UNL     1       3.398  -2.482  25.969  0.00  0.00    +0.292 HD
ENDBRANCH  18  22
BRANCH  20  24
ATOM     24  O   UNL     1       3.805  -7.497  26.186  0.00  0.00    -0.507 OA
ATOM     25  H   UNL     1       4.454  -8.175  25.934  0.00  0.00    +0.292 HD
ENDBRANCH  20  24
ENDBRANCH  15  16
BRANCH  15  26
ATOM     26  O   UNL     1       6.274  -6.733  22.005  0.00  0.00    -0.386 OA
ATOM     27  H   UNL     1       6.447  -6.886  21.062  0.00  0.00    +0.210 HD
ENDBRANCH  15  26
ENDBRANCH   1  15
TORSDOF 10
ENDMDL
