MODEL 1
REMARK VINA RESULT:      -5.4      0.000      0.000
REMARK  Name = 
REMARK  19 active torsions:
REMARK  status: ('A' for Active; 'I' for Inactive)
REMARK    1  A    between atoms: C_1  and  C_2
REMARK    2  A    between atoms: C_2  and  C_3
REMARK    3  A    between atoms: C_3  and  C_4
REMARK    4  A    between atoms: C_4  and  C_5
REMARK    5  A    between atoms: C_5  and  C_6
REMARK    6  A    between atoms: C_5  and  O_7
REMARK    7  A    between atoms: C_5  and  C_8
REMARK    8  A    between atoms: C_8  and  C_9
REMARK    9  A    between atoms: C_10  and  C_11
REMARK   10  A    between atoms: C_13  and  O_15
REMARK   11  A    between atoms: C_19  and  C_21
REMARK   12  A    between atoms: C_21  and  C_22
REMARK   13  A    between atoms: C_22  and  C_23
REMARK   14  A    between atoms: C_23  and  C_24
REMARK   15  A    between atoms: C_24  and  C_25
REMARK   16  A    between atoms: C_25  and  C_26
REMARK   17  A    between atoms: C_26  and  C_27
REMARK   18  A    between atoms: C_27  and  O_29
REMARK   19  A    between atoms: O_29  and  C_30
REMARK                            x       y       z     vdW  Elec       q    Type
REMARK                         _______ _______ _______ _____ _____    ______ ____
ROOT
ATOM      1  C   UNL     1       6.563  -2.710  23.441  0.00  0.00    +0.050 C 
ATOM      2  C   UNL     1       7.668  -3.177  24.415  0.00  0.00    +0.065 C 
ATOM      3  C   UNL     1       8.088  -4.496  23.797  0.00  0.00    +0.140 C 
ATOM      4  O   UNL     1       8.937  -5.241  24.272  0.00  0.00    -0.297 OA
ATOM      5  C   UNL     1       7.374  -4.805  22.519  0.00  0.00    +0.106 C 
ATOM      6  C   UNL     1       6.837  -3.446  22.119  0.00  0.00    +0.129 C 
ENDROOT
BRANCH   6   7
ATOM      7  O   UNL     1       5.657  -3.590  21.335  0.00  0.00    -0.391 OA
ATOM      8  H   UNL     1       5.284  -4.476  21.483  0.00  0.00    +0.210 HD
ENDBRANCH   6   7
BRANCH   1  10
ATOM      9  C   UNL     1       6.904  -0.269  24.063  0.00  0.00    -0.028 C 
ATOM     10  C   UNL     1       6.480  -1.222  23.216  0.00  0.00    -0.024 C 
BRANCH   9  11
ATOM     11  C   UNL     1       6.790   1.207  23.803  0.00  0.00    +0.061 C 
BRANCH  11  12
ATOM     12  C   UNL     1       8.125   1.968  23.604  0.00  0.00    +0.067 C 
ATOM     13  C   UNL     1       9.223   1.440  24.540  0.00  0.00    +0.041 C 
BRANCH  12  14
ATOM     14  O   UNL     1       7.921   3.357  23.895  0.00  0.00    -0.389 OA
ATOM     15  H   UNL     1       8.217   3.873  23.126  0.00  0.00    +0.210 HD
ENDBRANCH  12  14
BRANCH  12  16
ATOM     16  C   UNL     1       8.596   1.858  22.134  0.00  0.00    +0.035 C 
BRANCH  16  17
ATOM     17  C   UNL     1       9.858   1.002  21.968  0.00  0.00    +0.003 C 
BRANCH  17  19
ATOM     18  C   UNL     1      10.134  -1.462  22.303  0.00  0.00    +0.004 C 
ATOM     19  C   UNL     1       9.551  -0.382  21.403  0.00  0.00    -0.003 C 
ENDBRANCH  17  19
ENDBRANCH  16  17
ENDBRANCH  12  16
ENDBRANCH  11  12
ENDBRANCH   9  11
ENDBRANCH   1  10
BRANCH   2  20
ATOM     20  C   UNL     1       7.139  -3.291  25.849  0.00  0.00    +0.012 C 
BRANCH  20  21
ATOM     21  C   UNL     1       5.630  -3.538  25.895  0.00  0.00    +0.001 C 
BRANCH  21  22
ATOM     22  C   UNL     1       5.271  -4.723  26.785  0.00  0.00    +0.000 C 
BRANCH  22  23
ATOM     23  C   UNL     1       5.670  -6.038  26.111  0.00  0.00    +0.001 C 
BRANCH  23  24
ATOM     24  C   UNL     1       4.473  -6.660  25.402  0.00  0.00    +0.011 C 
BRANCH  24  25
ATOM     25  C   UNL     1       4.647  -6.672  23.889  0.00  0.00    +0.120 C 
BRANCH  25  26
ATOM     26  C   UNL     1       3.569  -5.853  23.224  0.00  0.00    +0.307 C 
ATOM     27  O   UNL     1       3.635  -4.651  23.002  0.00  0.00    -0.251 OA
BRANCH  26  28
ATOM     28  O   UNL     1       2.508  -6.644  22.906  0.00  0.00    -0.468 OA
ATOM     29  C   UNL     1       1.277  -5.924  22.808  0.00  0.00    +0.280 C 
ENDBRANCH  26  28
ENDBRANCH  25  26
ENDBRANCH  24  25
ENDBRANCH  23  24
ENDBRANCH  22  23
ENDBRANCH  21  22
ENDBRANCH  20  21
ENDBRANCH   2  20
TORSDOF 16
ENDMDL
MODEL 2
REMARK VINA RESULT:      -5.4      1.344      2.328
REMARK  Name = 
REMARK  19 active torsions:
REMARK  status: ('A' for Active; 'I' for Inactive)
REMARK    1  A    between atoms: C_1  and  C_2
REMARK    2  A    between atoms: C_2  and  C_3
REMARK    3  A    between atoms: C_3  and  C_4
REMARK    4  A    between atoms: C_4  and  C_5
REMARK    5  A    between atoms: C_5  and  C_6
REMARK    6  A    between atoms: C_5  and  O_7
REMARK    7  A    between atoms: C_5  and  C_8
REMARK    8  A    between atoms: C_8  and  C_9
REMARK    9  A    between atoms: C_10  and  C_11
REMARK   10  A    between atoms: C_13  and  O_15
REMARK   11  A    between atoms: C_19  and  C_21
REMARK   12  A    between atoms: C_21  and  C_22
REMARK   13  A    between atoms: C_22  and  C_23
REMARK   14  A    between atoms: C_23  and  C_24
REMARK   15  A    between atoms: C_24  and  C_25
REMARK   16  A    between atoms: C_25  and  C_26
REMARK   17  A    between atoms: C_26  and  C_27
REMARK   18  A    between atoms: C_27  and  O_29
REMARK   19  A    between atoms: O_29  and  C_30
REMARK                            x       y       z     vdW  Elec       q    Type
REMARK                         _______ _______ _______ _____ _____    ______ ____
ROOT
ATOM      1  C   UNL     1       7.509  -2.888  23.015  0.00  0.00    +0.050 C 
ATOM      2  C   UNL     1       8.629  -3.375  23.963  0.00  0.00    +0.065 C 
ATOM      3  C   UNL     1       8.442  -4.879  23.915  0.00  0.00    +0.140 C 
ATOM      4  O   UNL     1       9.111  -5.678  24.560  0.00  0.00    -0.297 OA
ATOM      5  C   UNL     1       7.361  -5.312  22.976  0.00  0.00    +0.106 C 
ATOM      6  C   UNL     1       7.188  -4.084  22.104  0.00  0.00    +0.129 C 
ENDROOT
BRANCH   6   7
ATOM      7  O   UNL     1       5.860  -4.022  21.593  0.00  0.00    -0.391 OA
ATOM      8  H   UNL     1       5.295  -4.630  22.102  0.00  0.00    +0.210 HD
ENDBRANCH   6   7
BRANCH   1  10
ATOM      9  C   UNL     1       9.001  -0.996  22.205  0.00  0.00    -0.028 C 
ATOM     10  C   UNL     1       7.837  -1.666  22.196  0.00  0.00    -0.024 C 
BRANCH   9  11
ATOM     11  C   UNL     1       9.281   0.228  21.379  0.00  0.00    +0.061 C 
BRANCH  11  12
ATOM     12  C   UNL     1       9.330   1.572  22.150  0.00  0.00    +0.067 C 
ATOM     13  C   UNL     1       8.038   2.381  21.959  0.00  0.00    +0.041 C 
BRANCH  12  14
ATOM     14  O   UNL     1      10.424   2.356  21.655  0.00  0.00    -0.389 OA
ATOM     15  H   UNL     1      11.193   1.770  21.552  0.00  0.00    +0.210 HD
ENDBRANCH  12  14
BRANCH  12  16
ATOM     16  C   UNL     1       9.571   1.322  23.658  0.00  0.00    +0.035 C 
BRANCH  16  17
ATOM     17  C   UNL     1       8.480   1.927  24.551  0.00  0.00    +0.003 C 
BRANCH  17  19
ATOM     18  C   UNL     1       6.379   0.584  24.745  0.00  0.00    +0.004 C 
ATOM     19  C   UNL     1       7.740   0.867  25.362  0.00  0.00    -0.003 C 
ENDBRANCH  17  19
ENDBRANCH  16  17
ENDBRANCH  12  16
ENDBRANCH  11  12
ENDBRANCH   9  11
ENDBRANCH   1  10
BRANCH   2  20
ATOM     20  C   UNL     1       8.483  -2.766  25.362  0.00  0.00    +0.012 C 
BRANCH  20  21
ATOM     21  C   UNL     1       7.038  -2.799  25.864  0.00  0.00    +0.001 C 
BRANCH  21  22
ATOM     22  C   UNL     1       6.837  -3.839  26.962  0.00  0.00    +0.000 C 
BRANCH  22  23
ATOM     23  C   UNL     1       5.744  -4.832  26.563  0.00  0.00    +0.001 C 
BRANCH  23  24
ATOM     24  C   UNL     1       4.944  -4.300  25.381  0.00  0.00    +0.011 C 
BRANCH  24  25
ATOM     25  C   UNL     1       3.668  -5.100  25.147  0.00  0.00    +0.120 C 
BRANCH  25  26
ATOM     26  C   UNL     1       3.802  -5.967  23.920  0.00  0.00    +0.307 C 
ATOM     27  O   UNL     1       3.803  -5.557  22.766  0.00  0.00    -0.251 OA
BRANCH  26  28
ATOM     28  O   UNL     1       3.924  -7.274  24.280  0.00  0.00    -0.468 OA
ATOM     29  C   UNL     1       2.667  -7.941  24.416  0.00  0.00    +0.280 C 
ENDBRANCH  26  28
ENDBRANCH  25  26
ENDBRANCH  24  25
ENDBRANCH  23  24
ENDBRANCH  22  23
ENDBRANCH  21  22
ENDBRANCH  20  21
ENDBRANCH   2  20
TORSDOF 16
ENDMDL
MODEL 3
REMARK VINA RESULT:      -5.3      2.862      4.552
REMARK  Name = 
REMARK  19 active torsions:
REMARK  status: ('A' for Active; 'I' for Inactive)
REMARK    1  A    between atoms: C_1  and  C_2
REMARK    2  A    between atoms: C_2  and  C_3
REMARK    3  A    between atoms: C_3  and  C_4
REMARK    4  A    between atoms: C_4  and  C_5
REMARK    5  A    between atoms: C_5  and  C_6
REMARK    6  A    between atoms: C_5  and  O_7
REMARK    7  A    between atoms: C_5  and  C_8
REMARK    8  A    between atoms: C_8  and  C_9
REMARK    9  A    between atoms: C_10  and  C_11
REMARK   10  A    between atoms: C_13  and  O_15
REMARK   11  A    between atoms: C_19  and  C_21
REMARK   12  A    between atoms: C_21  and  C_22
REMARK   13  A    between atoms: C_22  and  C_23
REMARK   14  A    between atoms: C_23  and  C_24
REMARK   15  A    between atoms: C_24  and  C_25
REMARK   16  A    between atoms: C_25  and  C_26
REMARK   17  A    between atoms: C_26  and  C_27
REMARK   18  A    between atoms: C_27  and  O_29
REMARK   19  A    between atoms: O_29  and  C_30
REMARK                            x       y       z     vdW  Elec       q    Type
REMARK                         _______ _______ _______ _____ _____    ______ ____
ROOT
ATOM      1  C   UNL     1       9.132   0.853  23.403  0.00  0.00    +0.050 C 
ATOM      2  C   UNL     1       9.785  -0.385  24.058  0.00  0.00    +0.065 C 
ATOM      3  C   UNL     1      10.083  -1.253  22.851  0.00  0.00    +0.140 C 
ATOM      4  O   UNL     1      10.583  -2.370  22.911  0.00  0.00    -0.297 OA
ATOM      5  C   UNL     1       9.722  -0.604  21.552  0.00  0.00    +0.106 C 
ATOM      6  C   UNL     1       9.619   0.856  21.945  0.00  0.00    +0.129 C 
ENDROOT
BRANCH   6   7
ATOM      7  O   UNL     1       8.714   1.538  21.082  0.00  0.00    -0.391 OA
ATOM      8  H   UNL     1       7.870   1.055  21.060  0.00  0.00    +0.210 HD
ENDBRANCH   6   7
BRANCH   1  10
ATOM      9  C   UNL     1       8.554   3.173  24.267  0.00  0.00    -0.028 C 
ATOM     10  C   UNL     1       9.429   2.173  24.067  0.00  0.00    -0.024 C 
BRANCH   9  11
ATOM     11  C   UNL     1       8.897   4.481  24.923  0.00  0.00    +0.061 C 
BRANCH  11  12
ATOM     12  C   UNL     1       9.161   5.673  23.968  0.00  0.00    +0.067 C 
ATOM     13  C   UNL     1       8.340   6.909  24.365  0.00  0.00    +0.041 C 
BRANCH  12  14
ATOM     14  O   UNL     1       8.786   5.297  22.636  0.00  0.00    -0.389 OA
ATOM     15  H   UNL     1       8.206   4.519  22.694  0.00  0.00    +0.210 HD
ENDBRANCH  12  14
BRANCH  12  16
ATOM     16  C   UNL     1      10.666   6.030  23.952  0.00  0.00    +0.035 C 
BRANCH  16  17
ATOM     17  C   UNL     1      11.543   4.917  23.361  0.00  0.00    +0.003 C 
BRANCH  17  19
ATOM     18  C   UNL     1      13.424   5.728  21.926  0.00  0.00    +0.004 C 
ATOM     19  C   UNL     1      13.020   5.298  23.329  0.00  0.00    -0.003 C 
ENDBRANCH  17  19
ENDBRANCH  16  17
ENDBRANCH  12  16
ENDBRANCH  11  12
ENDBRANCH   9  11
ENDBRANCH   1  10
BRANCH   2  20
ATOM     20  C   UNL     1       8.851  -1.033  25.086  0.00  0.00    +0.012 C 
BRANCH  20  21
ATOM     21  C   UNL     1       7.375  -0.853  24.727  0.00  0.00    +0.001 C 
BRANCH  21  22
ATOM     22  C   UNL     1       6.519  -2.012  25.226  0.00  0.00    +0.000 C 
BRANCH  22  23
ATOM     23  C   UNL     1       7.395  -3.075  25.892  0.00  0.00    +0.001 C 
BRANCH  23  24
ATOM     24  C   UNL     1       7.209  -4.426  25.211  0.00  0.00    +0.011 C 
BRANCH  24  25
ATOM     25  C   UNL     1       8.244  -4.662  24.118  0.00  0.00    +0.120 C 
BRANCH  25  26
ATOM     26  C   UNL     1       7.610  -4.553  22.754  0.00  0.00    +0.307 C 
ATOM     27  O   UNL     1       7.438  -3.507  22.140  0.00  0.00    -0.251 OA
BRANCH  26  28
ATOM     28  O   UNL     1       7.254  -5.786  22.301  0.00  0.00    -0.468 OA
ATOM     29  C   UNL     1       5.933  -5.827  21.756  0.00  0.00    +0.280 C 
ENDBRANCH  26  28
ENDBRANCH  25  26
ENDBRANCH  24  25
ENDBRANCH  23  24
ENDBRANCH  22  23
ENDBRANCH  21  22
ENDBRANCH  20  21
ENDBRANCH   2  20
TORSDOF 16
ENDMDL
MODEL 4
REMARK VINA RESULT:      -5.2      1.948      6.100
REMARK  Name = 
REMARK  19 active torsions:
REMARK  status: ('A' for Active; 'I' for Inactive)
REMARK    1  A    between atoms: C_1  and  C_2
REMARK    2  A    between atoms: C_2  and  C_3
REMARK    3  A    between atoms: C_3  and  C_4
REMARK    4  A    between atoms: C_4  and  C_5
REMARK    5  A    between atoms: C_5  and  C_6
REMARK    6  A    between atoms: C_5  and  O_7
REMARK    7  A    between atoms: C_5  and  C_8
REMARK    8  A    between atoms: C_8  and  C_9
REMARK    9  A    between atoms: C_10  and  C_11
REMARK   10  A    between atoms: C_13  and  O_15
REMARK   11  A    between atoms: C_19  and  C_21
REMARK   12  A    between atoms: C_21  and  C_22
REMARK   13  A    between atoms: C_22  and  C_23
REMARK   14  A    between atoms: C_23  and  C_24
REMARK   15  A    between atoms: C_24  and  C_25
REMARK   16  A    between atoms: C_25  and  C_26
REMARK   17  A    between atoms: C_26  and  C_27
REMARK   18  A    between atoms: C_27  and  O_29
REMARK   19  A    between atoms: O_29  and  C_30
REMARK                            x       y       z     vdW  Elec       q    Type
REMARK                         _______ _______ _______ _____ _____    ______ ____
ROOT
ATOM      1  C   UNL     1       8.616  -1.126  23.387  0.00  0.00    +0.050 C 
ATOM      2  C   UNL     1       8.229   0.057  24.303  0.00  0.00    +0.065 C 
ATOM      3  C   UNL     1       9.423   0.977  24.142  0.00  0.00    +0.140 C 
ATOM      4  O   UNL     1       9.557   2.043  24.731  0.00  0.00    -0.297 OA
ATOM      5  C   UNL     1      10.436   0.466  23.167  0.00  0.00    +0.106 C 
ATOM      6  C   UNL     1       9.638  -0.559  22.388  0.00  0.00    +0.129 C 
ENDROOT
BRANCH   6   7
ATOM      7  O   UNL     1      10.499  -1.571  21.874  0.00  0.00    -0.391 OA
ATOM      8  H   UNL     1      10.264  -1.748  20.947  0.00  0.00    +0.210 HD
ENDBRANCH   6   7
BRANCH   1  10
ATOM      9  C   UNL     1       7.151  -3.092  22.715  0.00  0.00    -0.028 C 
ATOM     10  C   UNL     1       7.473  -1.789  22.662  0.00  0.00    -0.024 C 
BRANCH   9  11
ATOM     11  C   UNL     1       6.008  -3.714  21.964  0.00  0.00    +0.061 C 
BRANCH  11  12
ATOM     12  C   UNL     1       6.054  -5.256  21.810  0.00  0.00    +0.067 C 
ATOM     13  C   UNL     1       7.403  -5.831  22.268  0.00  0.00    +0.041 C 
BRANCH  12  14
ATOM     14  O   UNL     1       5.871  -5.594  20.428  0.00  0.00    -0.389 OA
ATOM     15  H   UNL     1       5.188  -6.283  20.374  0.00  0.00    +0.210 HD
ENDBRANCH  12  14
BRANCH  12  16
ATOM     16  C   UNL     1       4.907  -5.914  22.612  0.00  0.00    +0.035 C 
BRANCH  16  17
ATOM     17  C   UNL     1       3.890  -4.900  23.152  0.00  0.00    +0.003 C 
BRANCH  17  19
ATOM     18  C   UNL     1       3.295  -6.819  24.641  0.00  0.00    +0.004 C 
ATOM     19  C   UNL     1       2.775  -5.566  23.953  0.00  0.00    -0.003 C 
ENDBRANCH  17  19
ENDBRANCH  16  17
ENDBRANCH  12  16
ENDBRANCH  11  12
ENDBRANCH   9  11
ENDBRANCH   1  10
BRANCH   2  20
ATOM     20  C   UNL     1       7.979  -0.408  25.742  0.00  0.00    +0.012 C 
BRANCH  20  21
ATOM     21  C   UNL     1       6.490  -0.589  26.045  0.00  0.00    +0.001 C 
BRANCH  21  22
ATOM     22  C   UNL     1       6.208  -1.907  26.758  0.00  0.00    +0.000 C 
BRANCH  22  23
ATOM     23  C   UNL     1       5.357  -2.821  25.874  0.00  0.00    +0.001 C 
BRANCH  23  24
ATOM     24  C   UNL     1       5.345  -4.241  26.427  0.00  0.00    +0.011 C 
BRANCH  24  25
ATOM     25  C   UNL     1       6.546  -5.050  25.954  0.00  0.00    +0.120 C 
BRANCH  25  26
ATOM     26  C   UNL     1       7.501  -5.298  27.096  0.00  0.00    +0.307 C 
ATOM     27  O   UNL     1       7.297  -6.064  28.029  0.00  0.00    -0.251 OA
BRANCH  26  28
ATOM     28  O   UNL     1       8.625  -4.546  26.940  0.00  0.00    -0.468 OA
ATOM     29  C   UNL     1       9.112  -4.535  25.596  0.00  0.00    +0.280 C 
ENDBRANCH  26  28
ENDBRANCH  25  26
ENDBRANCH  24  25
ENDBRANCH  23  24
ENDBRANCH  22  23
ENDBRANCH  21  22
ENDBRANCH  20  21
ENDBRANCH   2  20
TORSDOF 16
ENDMDL
MODEL 5
REMARK VINA RESULT:      -5.2      2.100      7.245
REMARK  Name = 
REMARK  19 active torsions:
REMARK  status: ('A' for Active; 'I' for Inactive)
REMARK    1  A    between atoms: C_1  and  C_2
REMARK    2  A    between atoms: C_2  and  C_3
REMARK    3  A    between atoms: C_3  and  C_4
REMARK    4  A    between atoms: C_4  and  C_5
REMARK    5  A    between atoms: C_5  and  C_6
REMARK    6  A    between atoms: C_5  and  O_7
REMARK    7  A    between atoms: C_5  and  C_8
REMARK    8  A    between atoms: C_8  and  C_9
REMARK    9  A    between atoms: C_10  and  C_11
REMARK   10  A    between atoms: C_13  and  O_15
REMARK   11  A    between atoms: C_19  and  C_21
REMARK   12  A    between atoms: C_21  and  C_22
REMARK   13  A    between atoms: C_22  and  C_23
REMARK   14  A    between atoms: C_23  and  C_24
REMARK   15  A    between atoms: C_24  and  C_25
REMARK   16  A    between atoms: C_25  and  C_26
REMARK   17  A    between atoms: C_26  and  C_27
REMARK   18  A    between atoms: C_27  and  O_29
REMARK   19  A    between atoms: O_29  and  C_30
REMARK                            x       y       z     vdW  Elec       q    Type
REMARK                         _______ _______ _______ _____ _____    ______ ____
ROOT
ATOM      1  C   UNL     1       7.070  -0.945  24.128  0.00  0.00    +0.050 C 
ATOM      2  C   UNL     1       8.123  -1.516  25.104  0.00  0.00    +0.065 C 
ATOM      3  C   UNL     1       7.967  -0.597  26.300  0.00  0.00    +0.140 C 
ATOM      4  O   UNL     1       8.645  -0.667  27.318  0.00  0.00    -0.297 OA
ATOM      5  C   UNL     1       6.876   0.413  26.131  0.00  0.00    +0.106 C 
ATOM      6  C   UNL     1       6.060  -0.186  25.004  0.00  0.00    +0.129 C 
ENDROOT
BRANCH   6   7
ATOM      7  O   UNL     1       5.390   0.839  24.278  0.00  0.00    -0.391 OA
ATOM      8  H   UNL     1       4.752   1.280  24.865  0.00  0.00    +0.210 HD
ENDBRANCH   6   7
BRANCH   1  10
ATOM      9  C   UNL     1       5.483  -2.879  23.679  0.00  0.00    -0.028 C 
ATOM     10  C   UNL     1       6.369  -1.959  23.261  0.00  0.00    -0.024 C 
BRANCH   9  11
ATOM     11  C   UNL     1       4.815  -3.882  22.781  0.00  0.00    +0.061 C 
BRANCH  11  12
ATOM     12  C   UNL     1       5.510  -5.263  22.668  0.00  0.00    +0.067 C 
ATOM     13  C   UNL     1       6.323  -5.384  21.370  0.00  0.00    +0.041 C 
BRANCH  12  14
ATOM     14  O   UNL     1       4.511  -6.291  22.667  0.00  0.00    -0.389 OA
ATOM     15  H   UNL     1       4.183  -6.392  21.757  0.00  0.00    +0.210 HD
ENDBRANCH  12  14
BRANCH  12  16
ATOM     16  C   UNL     1       6.434  -5.504  23.886  0.00  0.00    +0.035 C 
BRANCH  16  17
ATOM     17  C   UNL     1       7.926  -5.402  23.540  0.00  0.00    +0.003 C 
BRANCH  17  19
ATOM     18  C   UNL     1       7.949  -5.210  26.034  0.00  0.00    +0.004 C 
ATOM     19  C   UNL     1       8.788  -5.124  24.767  0.00  0.00    -0.003 C 
ENDBRANCH  17  19
ENDBRANCH  16  17
ENDBRANCH  12  16
ENDBRANCH  11  12
ENDBRANCH   9  11
ENDBRANCH   1  10
BRANCH   2  20
ATOM     20  C   UNL     1       9.524  -1.511  24.483  0.00  0.00    +0.012 C 
BRANCH  20  21
ATOM     21  C   UNL     1       9.504  -1.876  22.997  0.00  0.00    +0.001 C 
BRANCH  21  22
ATOM     22  C   UNL     1      10.314  -0.895  22.156  0.00  0.00    +0.000 C 
BRANCH  22  23
ATOM     23  C   UNL     1       9.387   0.105  21.461  0.00  0.00    +0.001 C 
BRANCH  23  24
ATOM     24  C   UNL     1       9.725   1.530  21.881  0.00  0.00    +0.011 C 
BRANCH  24  25
ATOM     25  C   UNL     1       9.104   1.894  23.223  0.00  0.00    +0.120 C 
BRANCH  25  26
ATOM     26  C   UNL     1       7.978   2.880  23.037  0.00  0.00    +0.307 C 
ATOM     27  O   UNL     1       7.620   3.343  21.962  0.00  0.00    -0.251 OA
BRANCH  26  28
ATOM     28  O   UNL     1       7.416   3.183  24.239  0.00  0.00    -0.468 OA
ATOM     29  C   UNL     1       8.313   3.851  25.129  0.00  0.00    +0.280 C 
ENDBRANCH  26  28
ENDBRANCH  25  26
ENDBRANCH  24  25
ENDBRANCH  23  24
ENDBRANCH  22  23
ENDBRANCH  21  22
ENDBRANCH  20  21
ENDBRANCH   2  20
TORSDOF 16
ENDMDL
MODEL 6
REMARK VINA RESULT:      -5.2      2.129      6.979
REMARK  Name = 
REMARK  19 active torsions:
REMARK  status: ('A' for Active; 'I' for Inactive)
REMARK    1  A    between atoms: C_1  and  C_2
REMARK    2  A    between atoms: C_2  and  C_3
REMARK    3  A    between atoms: C_3  and  C_4
REMARK    4  A    between atoms: C_4  and  C_5
REMARK    5  A    between atoms: C_5  and  C_6
REMARK    6  A    between atoms: C_5  and  O_7
REMARK    7  A    between atoms: C_5  and  C_8
REMARK    8  A    between atoms: C_8  and  C_9
REMARK    9  A    between atoms: C_10  and  C_11
REMARK   10  A    between atoms: C_13  and  O_15
REMARK   11  A    between atoms: C_19  and  C_21
REMARK   12  A    between atoms: C_21  and  C_22
REMARK   13  A    between atoms: C_22  and  C_23
REMARK   14  A    between atoms: C_23  and  C_24
REMARK   15  A    between atoms: C_24  and  C_25
REMARK   16  A    between atoms: C_25  and  C_26
REMARK   17  A    between atoms: C_26  and  C_27
REMARK   18  A    between atoms: C_27  and  O_29
REMARK   19  A    between atoms: O_29  and  C_30
REMARK                            x       y       z     vdW  Elec       q    Type
REMARK                         _______ _______ _______ _____ _____    ______ ____
ROOT
ATOM      1  C   UNL     1       6.463  -0.786  25.068  0.00  0.00    +0.050 C 
ATOM      2  C   UNL     1       7.152  -1.034  26.429  0.00  0.00    +0.065 C 
ATOM      3  C   UNL     1       7.030   0.324  27.091  0.00  0.00    +0.140 C 
ATOM      4  O   UNL     1       7.482   0.596  28.197  0.00  0.00    -0.297 OA
ATOM      5  C   UNL     1       6.276   1.318  26.265  0.00  0.00    +0.106 C 
ATOM      6  C   UNL     1       5.542   0.426  25.285  0.00  0.00    +0.129 C 
ENDROOT
BRANCH   6   7
ATOM      7  O   UNL     1       5.289   1.127  24.071  0.00  0.00    -0.391 OA
ATOM      8  H   UNL     1       4.340   1.069  23.863  0.00  0.00    +0.210 HD
ENDBRANCH   6   7
BRANCH   1  10
ATOM      9  C   UNL     1       5.914  -2.560  23.332  0.00  0.00    -0.028 C 
ATOM     10  C   UNL     1       5.688  -1.951  24.508  0.00  0.00    -0.024 C 
BRANCH   9  11
ATOM     11  C   UNL     1       5.106  -3.713  22.806  0.00  0.00    +0.061 C 
BRANCH  11  12
ATOM     12  C   UNL     1       5.811  -5.094  22.807  0.00  0.00    +0.067 C 
ATOM     13  C   UNL     1       7.045  -5.101  21.892  0.00  0.00    +0.041 C 
BRANCH  12  14
ATOM     14  O   UNL     1       4.895  -6.088  22.329  0.00  0.00    -0.389 OA
ATOM     15  H   UNL     1       4.421  -6.454  23.095  0.00  0.00    +0.210 HD
ENDBRANCH  12  14
BRANCH  12  16
ATOM     16  C   UNL     1       6.226  -5.487  24.245  0.00  0.00    +0.035 C 
BRANCH  16  17
ATOM     17  C   UNL     1       7.703  -5.198  24.546  0.00  0.00    +0.003 C 
BRANCH  17  19
ATOM     18  C   UNL     1       6.751  -4.754  26.816  0.00  0.00    +0.004 C 
ATOM     19  C   UNL     1       7.995  -5.167  26.043  0.00  0.00    -0.003 C 
ENDBRANCH  17  19
ENDBRANCH  16  17
ENDBRANCH  12  16
ENDBRANCH  11  12
ENDBRANCH   9  11
ENDBRANCH   1  10
BRANCH   2  20
ATOM     20  C   UNL     1       8.595  -1.520  26.246  0.00  0.00    +0.012 C 
BRANCH  20  21
ATOM     21  C   UNL     1       9.223  -1.004  24.950  0.00  0.00    +0.001 C 
BRANCH  21  22
ATOM     22  C   UNL     1       9.733  -2.140  24.070  0.00  0.00    +0.000 C 
BRANCH  22  23
ATOM     23  C   UNL     1      10.055  -1.624  22.665  0.00  0.00    +0.001 C 
BRANCH  23  24
ATOM     24  C   UNL     1       8.885  -0.822  22.109  0.00  0.00    +0.011 C 
BRANCH  24  25
ATOM     25  C   UNL     1       9.342   0.470  21.444  0.00  0.00    +0.120 C 
BRANCH  25  26
ATOM     26  C   UNL     1       9.347   1.606  22.438  0.00  0.00    +0.307 C 
ATOM     27  O   UNL     1      10.348   2.189  22.834  0.00  0.00    -0.251 OA
BRANCH  26  28
ATOM     28  O   UNL     1       8.076   1.890  22.831  0.00  0.00    -0.468 OA
ATOM     29  C   UNL     1       7.368   2.714  21.902  0.00  0.00    +0.280 C 
ENDBRANCH  26  28
ENDBRANCH  25  26
ENDBRANCH  24  25
ENDBRANCH  23  24
ENDBRANCH  22  23
ENDBRANCH  21  22
ENDBRANCH  20  21
ENDBRANCH   2  20
TORSDOF 16
ENDMDL
MODEL 7
REMARK VINA RESULT:      -5.0      2.491      4.575
REMARK  Name = 
REMARK  19 active torsions:
REMARK  status: ('A' for Active; 'I' for Inactive)
REMARK    1  A    between atoms: C_1  and  C_2
REMARK    2  A    between atoms: C_2  and  C_3
REMARK    3  A    between atoms: C_3  and  C_4
REMARK    4  A    between atoms: C_4  and  C_5
REMARK    5  A    between atoms: C_5  and  C_6
REMARK    6  A    between atoms: C_5  and  O_7
REMARK    7  A    between atoms: C_5  and  C_8
REMARK    8  A    between atoms: C_8  and  C_9
REMARK    9  A    between atoms: C_10  and  C_11
REMARK   10  A    between atoms: C_13  and  O_15
REMARK   11  A    between atoms: C_19  and  C_21
REMARK   12  A    between atoms: C_21  and  C_22
REMARK   13  A    between atoms: C_22  and  C_23
REMARK   14  A    between atoms: C_23  and  C_24
REMARK   15  A    between atoms: C_24  and  C_25
REMARK   16  A    between atoms: C_25  and  C_26
REMARK   17  A    between atoms: C_26  and  C_27
REMARK   18  A    between atoms: C_27  and  O_29
REMARK   19  A    between atoms: O_29  and  C_30
REMARK                            x       y       z     vdW  Elec       q    Type
REMARK                         _______ _______ _______ _____ _____    ______ ____
ROOT
ATOM      1  C   UNL     1       9.452   0.980  23.315  0.00  0.00    +0.050 C 
ATOM      2  C   UNL     1      10.098  -0.252  23.988  0.00  0.00    +0.065 C 
ATOM      3  C   UNL     1      10.162  -1.236  22.838  0.00  0.00    +0.140 C 
ATOM      4  O   UNL     1      10.584  -2.383  22.933  0.00  0.00    -0.297 OA
ATOM      5  C   UNL     1       9.673  -0.667  21.544  0.00  0.00    +0.106 C 
ATOM      6  C   UNL     1       9.731   0.824  21.811  0.00  0.00    +0.129 C 
ENDROOT
BRANCH   6   7
ATOM      7  O   UNL     1       8.767   1.508  21.017  0.00  0.00    -0.391 OA
ATOM      8  H   UNL     1       9.152   2.342  20.697  0.00  0.00    +0.210 HD
ENDBRANCH   6   7
BRANCH   1  10
ATOM      9  C   UNL     1       9.363   3.509  23.554  0.00  0.00    -0.028 C 
ATOM     10  C   UNL     1       9.933   2.320  23.810  0.00  0.00    -0.024 C 
BRANCH   9  11
ATOM     11  C   UNL     1       9.885   4.825  24.059  0.00  0.00    +0.061 C 
BRANCH  11  12
ATOM     12  C   UNL     1       8.871   5.708  24.830  0.00  0.00    +0.067 C 
ATOM     13  C   UNL     1       8.614   7.039  24.108  0.00  0.00    +0.041 C 
BRANCH  12  14
ATOM     14  O   UNL     1       9.400   6.001  26.131  0.00  0.00    -0.389 OA
ATOM     15  H   UNL     1       9.753   5.177  26.506  0.00  0.00    +0.210 HD
ENDBRANCH  12  14
BRANCH  12  16
ATOM     16  C   UNL     1       7.535   4.953  25.024  0.00  0.00    +0.035 C 
BRANCH  16  17
ATOM     17  C   UNL     1       7.347   4.416  26.449  0.00  0.00    +0.003 C 
BRANCH  17  19
ATOM     18  C   UNL     1       6.337   2.364  25.438  0.00  0.00    +0.004 C 
ATOM     19  C   UNL     1       7.296   2.892  26.494  0.00  0.00    -0.003 C 
ENDBRANCH  17  19
ENDBRANCH  16  17
ENDBRANCH  12  16
ENDBRANCH  11  12
ENDBRANCH   9  11
ENDBRANCH   1  10
BRANCH   2  20
ATOM     20  C   UNL     1       9.272  -0.733  25.186  0.00  0.00    +0.012 C 
BRANCH  20  21
ATOM     21  C   UNL     1       7.815  -1.015  24.813  0.00  0.00    +0.001 C 
BRANCH  21  22
ATOM     22  C   UNL     1       7.282  -2.272  25.494  0.00  0.00    +0.000 C 
BRANCH  22  23
ATOM     23  C   UNL     1       8.051  -3.505  25.014  0.00  0.00    +0.001 C 
BRANCH  23  24
ATOM     24  C   UNL     1       7.145  -4.414  24.193  0.00  0.00    +0.011 C 
BRANCH  24  25
ATOM     25  C   UNL     1       7.372  -4.247  22.696  0.00  0.00    +0.120 C 
BRANCH  25  26
ATOM     26  C   UNL     1       6.145  -3.668  22.035  0.00  0.00    +0.307 C 
ATOM     27  O   UNL     1       5.512  -2.705  22.449  0.00  0.00    -0.251 OA
BRANCH  26  28
ATOM     28  O   UNL     1       5.842  -4.371  20.910  0.00  0.00    -0.468 OA
ATOM     29  C   UNL     1       6.253  -5.739  20.972  0.00  0.00    +0.280 C 
ENDBRANCH  26  28
ENDBRANCH  25  26
ENDBRANCH  24  25
ENDBRANCH  23  24
ENDBRANCH  22  23
ENDBRANCH  21  22
ENDBRANCH  20  21
ENDBRANCH   2  20
TORSDOF 16
ENDMDL
MODEL 8
REMARK VINA RESULT:      -5.0      2.883      4.849
REMARK  Name = 
REMARK  19 active torsions:
REMARK  status: ('A' for Active; 'I' for Inactive)
REMARK    1  A    between atoms: C_1  and  C_2
REMARK    2  A    between atoms: C_2  and  C_3
REMARK    3  A    between atoms: C_3  and  C_4
REMARK    4  A    between atoms: C_4  and  C_5
REMARK    5  A    between atoms: C_5  and  C_6
REMARK    6  A    between atoms: C_5  and  O_7
REMARK    7  A    between atoms: C_5  and  C_8
REMARK    8  A    between atoms: C_8  and  C_9
REMARK    9  A    between atoms: C_10  and  C_11
REMARK   10  A    between atoms: C_13  and  O_15
REMARK   11  A    between atoms: C_19  and  C_21
REMARK   12  A    between atoms: C_21  and  C_22
REMARK   13  A    between atoms: C_22  and  C_23
REMARK   14  A    between atoms: C_23  and  C_24
REMARK   15  A    between atoms: C_24  and  C_25
REMARK   16  A    between atoms: C_25  and  C_26
REMARK   17  A    between atoms: C_26  and  C_27
REMARK   18  A    between atoms: C_27  and  O_29
REMARK   19  A    between atoms: O_29  and  C_30
REMARK                            x       y       z     vdW  Elec       q    Type
REMARK                         _______ _______ _______ _____ _____    ______ ____
ROOT
ATOM      1  C   UNL     1       8.327   0.619  23.139  0.00  0.00    +0.050 C 
ATOM      2  C   UNL     1       8.805  -0.557  24.020  0.00  0.00    +0.065 C 
ATOM      3  C   UNL     1       9.697  -1.319  23.061  0.00  0.00    +0.140 C 
ATOM      4  O   UNL     1      10.273  -2.366  23.337  0.00  0.00    -0.297 OA
ATOM      5  C   UNL     1       9.833  -0.658  21.726  0.00  0.00    +0.106 C 
ATOM      6  C   UNL     1       9.377   0.756  22.024  0.00  0.00    +0.129 C 
ENDROOT
BRANCH   6   7
ATOM      7  O   UNL     1       8.836   1.360  20.854  0.00  0.00    -0.391 OA
ATOM      8  H   UNL     1       8.748   0.685  20.159  0.00  0.00    +0.210 HD
ENDBRANCH   6   7
BRANCH   1  10
ATOM      9  C   UNL     1       8.997   2.961  23.864  0.00  0.00    -0.028 C 
ATOM     10  C   UNL     1       8.134   1.932  23.854  0.00  0.00    -0.024 C 
BRANCH   9  11
ATOM     11  C   UNL     1       8.770   4.250  24.603  0.00  0.00    +0.061 C 
BRANCH  11  12
ATOM     12  C   UNL     1       8.598   5.516  23.726  0.00  0.00    +0.067 C 
ATOM     13  C   UNL     1       7.600   6.505  24.348  0.00  0.00    +0.041 C 
BRANCH  12  14
ATOM     14  O   UNL     1       8.098   5.129  22.439  0.00  0.00    -0.389 OA
ATOM     15  H   UNL     1       8.858   4.999  21.847  0.00  0.00    +0.210 HD
ENDBRANCH  12  14
BRANCH  12  16
ATOM     16  C   UNL     1       9.961   6.216  23.512  0.00  0.00    +0.035 C 
BRANCH  16  17
ATOM     17  C   UNL     1      10.677   6.555  24.826  0.00  0.00    +0.003 C 
BRANCH  17  19
ATOM     18  C   UNL     1      12.571   5.460  23.614  0.00  0.00    +0.004 C 
ATOM     19  C   UNL     1      12.194   6.453  24.705  0.00  0.00    -0.003 C 
ENDBRANCH  17  19
ENDBRANCH  16  17
ENDBRANCH  12  16
ENDBRANCH  11  12
ENDBRANCH   9  11
ENDBRANCH   1  10
BRANCH   2  20
ATOM     20  C   UNL     1       7.622  -1.368  24.561  0.00  0.00    +0.012 C 
BRANCH  20  21
ATOM     21  C   UNL     1       6.633  -1.761  23.462  0.00  0.00    +0.001 C 
BRANCH  21  22
ATOM     22  C   UNL     1       5.465  -2.577  24.007  0.00  0.00    +0.000 C 
BRANCH  22  23
ATOM     23  C   UNL     1       5.302  -3.873  23.211  0.00  0.00    +0.001 C 
BRANCH  23  24
ATOM     24  C   UNL     1       6.162  -4.980  23.809  0.00  0.00    +0.011 C 
BRANCH  24  25
ATOM     25  C   UNL     1       6.062  -5.025  25.328  0.00  0.00    +0.120 C 
BRANCH  25  26
ATOM     26  C   UNL     1       7.423  -5.245  25.942  0.00  0.00    +0.307 C 
ATOM     27  O   UNL     1       7.634  -5.849  26.986  0.00  0.00    -0.251 OA
BRANCH  26  28
ATOM     28  O   UNL     1       8.385  -4.675  25.167  0.00  0.00    -0.468 OA
ATOM     29  C   UNL     1       9.703  -5.136  25.474  0.00  0.00    +0.280 C 
ENDBRANCH  26  28
ENDBRANCH  25  26
ENDBRANCH  24  25
ENDBRANCH  23  24
ENDBRANCH  22  23
ENDBRANCH  21  22
ENDBRANCH  20  21
ENDBRANCH   2  20
TORSDOF 16
ENDMDL
MODEL 9
REMARK VINA RESULT:      -5.0      2.026      7.159
REMARK  Name = 
REMARK  19 active torsions:
REMARK  status: ('A' for Active; 'I' for Inactive)
REMARK    1  A    between atoms: C_1  and  C_2
REMARK    2  A    between atoms: C_2  and  C_3
REMARK    3  A    between atoms: C_3  and  C_4
REMARK    4  A    between atoms: C_4  and  C_5
REMARK    5  A    between atoms: C_5  and  C_6
REMARK    6  A    between atoms: C_5  and  O_7
REMARK    7  A    between atoms: C_5  and  C_8
REMARK    8  A    between atoms: C_8  and  C_9
REMARK    9  A    between atoms: C_10  and  C_11
REMARK   10  A    between atoms: C_13  and  O_15
REMARK   11  A    between atoms: C_19  and  C_21
REMARK   12  A    between atoms: C_21  and  C_22
REMARK   13  A    between atoms: C_22  and  C_23
REMARK   14  A    between atoms: C_23  and  C_24
REMARK   15  A    between atoms: C_24  and  C_25
REMARK   16  A    between atoms: C_25  and  C_26
REMARK   17  A    between atoms: C_26  and  C_27
REMARK   18  A    between atoms: C_27  and  O_29
REMARK   19  A    between atoms: O_29  and  C_30
REMARK                            x       y       z     vdW  Elec       q    Type
REMARK                         _______ _______ _______ _____ _____    ______ ____
ROOT
ATOM      1  C   UNL     1       6.037  -0.030  24.031  0.00  0.00    +0.050 C 
ATOM      2  C   UNL     1       6.883   1.246  23.820  0.00  0.00    +0.065 C 
ATOM      3  C   UNL     1       6.482   2.084  25.019  0.00  0.00    +0.140 C 
ATOM      4  O   UNL     1       6.896   3.216  25.239  0.00  0.00    -0.297 OA
ATOM      5  C   UNL     1       5.533   1.384  25.939  0.00  0.00    +0.106 C 
ATOM      6  C   UNL     1       5.705  -0.065  25.531  0.00  0.00    +0.129 C 
ENDROOT
BRANCH   6   7
ATOM      7  O   UNL     1       4.515  -0.800  25.797  0.00  0.00    -0.391 OA
ATOM      8  H   UNL     1       4.738  -1.742  25.895  0.00  0.00    +0.210 HD
ENDBRANCH   6   7
BRANCH   1  10
ATOM      9  C   UNL     1       6.285  -2.108  22.587  0.00  0.00    -0.028 C 
ATOM     10  C   UNL     1       6.687  -1.320  23.598  0.00  0.00    -0.024 C 
BRANCH   9  11
ATOM     11  C   UNL     1       6.957  -3.395  22.198  0.00  0.00    +0.061 C 
BRANCH  11  12
ATOM     12  C   UNL     1       6.105  -4.681  22.354  0.00  0.00    +0.067 C 
ATOM     13  C   UNL     1       6.437  -5.716  21.269  0.00  0.00    +0.041 C 
BRANCH  12  14
ATOM     14  O   UNL     1       4.717  -4.341  22.237  0.00  0.00    -0.389 OA
ATOM     15  H   UNL     1       4.346  -4.276  23.134  0.00  0.00    +0.210 HD
ENDBRANCH  12  14
BRANCH  12  16
ATOM     16  C   UNL     1       6.322  -5.305  23.754  0.00  0.00    +0.035 C 
BRANCH  16  17
ATOM     17  C   UNL     1       7.686  -4.956  24.364  0.00  0.00    +0.003 C 
BRANCH  17  19
ATOM     18  C   UNL     1       8.802  -4.674  26.585  0.00  0.00    +0.004 C 
ATOM     19  C   UNL     1       7.560  -4.360  25.763  0.00  0.00    -0.003 C 
ENDBRANCH  17  19
ENDBRANCH  16  17
ENDBRANCH  12  16
ENDBRANCH  11  12
ENDBRANCH   9  11
ENDBRANCH   1  10
BRANCH   2  20
ATOM     20  C   UNL     1       6.584   1.899  22.466  0.00  0.00    +0.012 C 
BRANCH  20  21
ATOM     21  C   UNL     1       7.800   2.629  21.891  0.00  0.00    +0.001 C 
BRANCH  21  22
ATOM     22  C   UNL     1       9.098   1.872  22.150  0.00  0.00    +0.000 C 
BRANCH  22  23
ATOM     23  C   UNL     1       9.155   0.602  21.297  0.00  0.00    +0.001 C 
BRANCH  23  24
ATOM     24  C   UNL     1       9.955  -0.483  22.006  0.00  0.00    +0.011 C 
BRANCH  24  25
ATOM     25  C   UNL     1      10.491  -0.012  23.352  0.00  0.00    +0.120 C 
BRANCH  25  26
ATOM     26  C   UNL     1       9.998  -0.908  24.462  0.00  0.00    +0.307 C 
ATOM     27  O   UNL     1       9.909  -2.127  24.393  0.00  0.00    -0.251 OA
BRANCH  26  28
ATOM     28  O   UNL     1       9.667  -0.165  25.553  0.00  0.00    -0.468 OA
ATOM     29  C   UNL     1       8.978  -0.914  26.557  0.00  0.00    +0.280 C 
ENDBRANCH  26  28
ENDBRANCH  25  26
ENDBRANCH  24  25
ENDBRANCH  23  24
ENDBRANCH  22  23
ENDBRANCH  21  22
ENDBRANCH  20  21
ENDBRANCH   2  20
TORSDOF 16
ENDMDL
