MODEL 1
REMARK VINA RESULT:      -5.3      0.000      0.000
REMARK  Name = 
REMARK  14 active torsions:
REMARK  status: ('A' for Active; 'I' for Inactive)
REMARK    1  A    between atoms: C_2  and  N_3
REMARK    2  A    between atoms: C_4  and  O_6
REMARK    3  A    between atoms: C_7  and  C_9
REMARK    4  A    between atoms: C_9  and  O_10
REMARK    5  A    between atoms: C_12  and  O_14
REMARK    6  A    between atoms: O_14  and  C_15
REMARK    7  A    between atoms: C_15  and  C_16
REMARK    8  A    between atoms: C_16  and  C_17
REMARK    9  A    between atoms: C_17  and  C_18
REMARK   10  A    between atoms: C_18  and  C_19
REMARK   11  A    between atoms: C_19  and  C_20
REMARK   12  A    between atoms: C_20  and  C_21
REMARK   13  A    between atoms: C_21  and  C_22
REMARK   14  A    between atoms: C_23  and  O_25
REMARK                            x       y       z     vdW  Elec       q    Type
REMARK                         _______ _______ _______ _____ _____    ______ ____
ROOT
ATOM      1  C   UNL     1       5.344  -4.805  24.050  0.00  0.00    +0.116 C 
ATOM      2  C   UNL     1       6.761  -4.472  24.539  0.00  0.00    +0.189 C 
ATOM      3  C   UNL     1       7.810  -4.537  23.412  0.00  0.00    +0.281 C 
ATOM      4  O   UNL     1       7.766  -5.794  22.738  0.00  0.00    -0.341 OA
ATOM      5  C   UNL     1       6.498  -6.241  22.229  0.00  0.00    +0.177 C 
ATOM      6  C   UNL     1       5.353  -6.127  23.257  0.00  0.00    +0.165 C 
ENDROOT
BRANCH   1   7
ATOM      7  N   UNL     1       4.676  -3.729  23.285  0.00  0.00    -0.323 NA
ATOM      8  H   UNL     1       3.757  -4.074  22.984  0.00  0.00    +0.119 HD
ATOM      9  H   UNL     1       4.450  -2.963  23.934  0.00  0.00    +0.119 HD
ENDBRANCH   1   7
BRANCH   2  10
ATOM     10  O   UNL     1       7.111  -5.406  25.580  0.00  0.00    -0.385 OA
ATOM     11  H   UNL     1       8.084  -5.400  25.664  0.00  0.00    +0.210 HD
ENDBRANCH   2  10
BRANCH   6  12
ATOM     12  O   UNL     1       4.067  -6.345  22.665  0.00  0.00    -0.388 OA
ATOM     13  H   UNL     1       4.095  -5.874  21.805  0.00  0.00    +0.210 HD
ENDBRANCH   6  12
BRANCH   3  14
ATOM     14  O   UNL     1       7.750  -3.397  22.546  0.00  0.00    -0.349 OA
BRANCH  14  15
ATOM     15  C   UNL     1       8.187  -2.220  23.244  0.00  0.00    +0.163 C 
BRANCH  15  16
ATOM     16  C   UNL     1       9.705  -2.206  23.446  0.00  0.00    +0.028 C 
BRANCH  16  17
ATOM     17  C   UNL     1      10.449  -1.266  22.484  0.00  0.00    +0.002 C 
BRANCH  17  18
ATOM     18  C   UNL     1       9.467  -0.357  21.730  0.00  0.00    +0.000 C 
BRANCH  18  19
ATOM     19  C   UNL     1       9.802   1.131  21.874  0.00  0.00    -0.000 C 
BRANCH  19  20
ATOM     20  C   UNL     1      10.337   1.437  23.278  0.00  0.00    -0.000 C 
BRANCH  20  21
ATOM     21  C   UNL     1       9.274   2.063  24.182  0.00  0.00    -0.003 C 
ATOM     22  C   UNL     1       8.669   1.033  25.121  0.00  0.00    +0.004 C 
ENDBRANCH  20  21
ENDBRANCH  19  20
ENDBRANCH  18  19
ENDBRANCH  17  18
ENDBRANCH  16  17
ENDBRANCH  15  16
ENDBRANCH  14  15
ENDBRANCH   3  14
BRANCH   5  23
ATOM     23  C   UNL     1       6.162  -5.691  20.832  0.00  0.00    +0.190 C 
BRANCH  23  24
ATOM     24  O   UNL     1       5.766  -4.318  20.924  0.00  0.00    -0.392 OA
ATOM     25  H   UNL     1       4.930  -4.232  20.435  0.00  0.00    +0.210 HD
ENDBRANCH  23  24
ENDBRANCH   5  23
TORSDOF 13
ENDMDL
MODEL 2
REMARK VINA RESULT:      -5.3      2.229      3.198
REMARK  Name = 
REMARK  14 active torsions:
REMARK  status: ('A' for Active; 'I' for Inactive)
REMARK    1  A    between atoms: C_2  and  N_3
REMARK    2  A    between atoms: C_4  and  O_6
REMARK    3  A    between atoms: C_7  and  C_9
REMARK    4  A    between atoms: C_9  and  O_10
REMARK    5  A    between atoms: C_12  and  O_14
REMARK    6  A    between atoms: O_14  and  C_15
REMARK    7  A    between atoms: C_15  and  C_16
REMARK    8  A    between atoms: C_16  and  C_17
REMARK    9  A    between atoms: C_17  and  C_18
REMARK   10  A    between atoms: C_18  and  C_19
REMARK   11  A    between atoms: C_19  and  C_20
REMARK   12  A    between atoms: C_20  and  C_21
REMARK   13  A    between atoms: C_21  and  C_22
REMARK   14  A    between atoms: C_23  and  O_25
REMARK                            x       y       z     vdW  Elec       q    Type
REMARK                         _______ _______ _______ _____ _____    ______ ____
ROOT
ATOM      1  C   UNL     1       8.708  -4.311  26.362  0.00  0.00    +0.116 C 
ATOM      2  C   UNL     1       9.251  -4.545  24.945  0.00  0.00    +0.189 C 
ATOM      3  C   UNL     1       8.146  -4.513  23.872  0.00  0.00    +0.281 C 
ATOM      4  O   UNL     1       7.091  -5.421  24.190  0.00  0.00    -0.341 OA
ATOM      5  C   UNL     1       6.489  -5.324  25.492  0.00  0.00    +0.177 C 
ATOM      6  C   UNL     1       7.519  -5.253  26.638  0.00  0.00    +0.165 C 
ENDROOT
BRANCH   1   7
ATOM      7  N   UNL     1       8.361  -2.908  26.677  0.00  0.00    -0.323 NA
ATOM      8  H   UNL     1       9.014  -2.296  26.175  0.00  0.00    +0.119 HD
ATOM      9  H   UNL     1       7.449  -2.697  26.251  0.00  0.00    +0.119 HD
ENDBRANCH   1   7
BRANCH   2  10
ATOM     10  O   UNL     1       9.913  -5.825  24.919  0.00  0.00    -0.385 OA
ATOM     11  H   UNL     1      10.867  -5.660  24.789  0.00  0.00    +0.210 HD
ENDBRANCH   2  10
BRANCH   6  12
ATOM     12  O   UNL     1       6.916  -4.917  27.893  0.00  0.00    -0.388 OA
ATOM     13  H   UNL     1       5.992  -4.668  27.676  0.00  0.00    +0.210 HD
ENDBRANCH   6  12
BRANCH   3  14
ATOM     14  O   UNL     1       7.712  -3.180  23.577  0.00  0.00    -0.349 OA
BRANCH  14  15
ATOM     15  C   UNL     1       8.781  -2.430  22.980  0.00  0.00    +0.163 C 
BRANCH  15  16
ATOM     16  C   UNL     1       8.283  -1.126  22.349  0.00  0.00    +0.028 C 
BRANCH  16  17
ATOM     17  C   UNL     1       9.321  -0.438  21.449  0.00  0.00    +0.002 C 
BRANCH  17  18
ATOM     18  C   UNL     1       9.096   1.080  21.407  0.00  0.00    +0.000 C 
BRANCH  18  19
ATOM     19  C   UNL     1      10.170   1.863  22.170  0.00  0.00    -0.000 C 
BRANCH  19  20
ATOM     20  C   UNL     1       9.590   2.482  23.448  0.00  0.00    -0.000 C 
BRANCH  20  21
ATOM     21  C   UNL     1       9.629   1.514  24.632  0.00  0.00    -0.003 C 
ATOM     22  C   UNL     1      10.912   0.700  24.639  0.00  0.00    +0.004 C 
ENDBRANCH  20  21
ENDBRANCH  19  20
ENDBRANCH  18  19
ENDBRANCH  17  18
ENDBRANCH  16  17
ENDBRANCH  15  16
ENDBRANCH  14  15
ENDBRANCH   3  14
BRANCH   5  23
ATOM     23  C   UNL     1       5.364  -4.279  25.578  0.00  0.00    +0.190 C 
BRANCH  23  24
ATOM     24  O   UNL     1       4.356  -4.712  26.497  0.00  0.00    -0.392 OA
ATOM     25  H   UNL     1       3.790  -3.943  26.680  0.00  0.00    +0.210 HD
ENDBRANCH  23  24
ENDBRANCH   5  23
TORSDOF 13
ENDMDL
MODEL 3
REMARK VINA RESULT:      -5.3      1.897      2.678
REMARK  Name = 
REMARK  14 active torsions:
REMARK  status: ('A' for Active; 'I' for Inactive)
REMARK    1  A    between atoms: C_2  and  N_3
REMARK    2  A    between atoms: C_4  and  O_6
REMARK    3  A    between atoms: C_7  and  C_9
REMARK    4  A    between atoms: C_9  and  O_10
REMARK    5  A    between atoms: C_12  and  O_14
REMARK    6  A    between atoms: O_14  and  C_15
REMARK    7  A    between atoms: C_15  and  C_16
REMARK    8  A    between atoms: C_16  and  C_17
REMARK    9  A    between atoms: C_17  and  C_18
REMARK   10  A    between atoms: C_18  and  C_19
REMARK   11  A    between atoms: C_19  and  C_20
REMARK   12  A    between atoms: C_20  and  C_21
REMARK   13  A    between atoms: C_21  and  C_22
REMARK   14  A    between atoms: C_23  and  O_25
REMARK                            x       y       z     vdW  Elec       q    Type
REMARK                         _______ _______ _______ _____ _____    ______ ____
ROOT
ATOM      1  C   UNL     1       7.735  -5.045  24.980  0.00  0.00    +0.116 C 
ATOM      2  C   UNL     1       9.008  -4.223  25.225  0.00  0.00    +0.189 C 
ATOM      3  C   UNL     1       8.986  -2.862  24.502  0.00  0.00    +0.281 C 
ATOM      4  O   UNL     1       8.722  -3.022  23.110  0.00  0.00    -0.341 OA
ATOM      5  C   UNL     1       7.561  -3.779  22.727  0.00  0.00    +0.177 C 
ATOM      6  C   UNL     1       7.438  -5.126  23.469  0.00  0.00    +0.165 C 
ENDROOT
BRANCH   1   7
ATOM      7  N   UNL     1       6.544  -4.598  25.734  0.00  0.00    -0.323 NA
ATOM      8  H   UNL     1       5.755  -4.535  25.080  0.00  0.00    +0.119 HD
ATOM      9  H   UNL     1       6.268  -5.349  26.380  0.00  0.00    +0.119 HD
ENDBRANCH   1   7
BRANCH   2  10
ATOM     10  O   UNL     1      10.139  -4.993  24.771  0.00  0.00    -0.385 OA
ATOM     11  H   UNL     1       9.877  -5.934  24.786  0.00  0.00    +0.210 HD
ENDBRANCH   2  10
BRANCH   6  12
ATOM     12  O   UNL     1       6.166  -5.750  23.258  0.00  0.00    -0.388 OA
ATOM     13  H   UNL     1       6.092  -5.862  22.286  0.00  0.00    +0.210 HD
ENDBRANCH   6  12
BRANCH   3  14
ATOM     14  O   UNL     1       8.142  -1.909  25.161  0.00  0.00    -0.349 OA
BRANCH  14  15
ATOM     15  C   UNL     1       8.437  -0.582  24.700  0.00  0.00    +0.163 C 
BRANCH  15  16
ATOM     16  C   UNL     1       9.779  -0.075  25.236  0.00  0.00    +0.028 C 
BRANCH  16  17
ATOM     17  C   UNL     1      10.752   0.381  24.137  0.00  0.00    +0.002 C 
BRANCH  17  18
ATOM     18  C   UNL     1      10.830   1.913  24.069  0.00  0.00    +0.000 C 
BRANCH  18  19
ATOM     19  C   UNL     1      10.016   2.501  22.912  0.00  0.00    -0.000 C 
BRANCH  19  20
ATOM     20  C   UNL     1       9.834   1.469  21.792  0.00  0.00    -0.000 C 
BRANCH  20  21
ATOM     21  C   UNL     1       8.384   1.377  21.316  0.00  0.00    -0.003 C 
ATOM     22  C   UNL     1       7.470   2.259  22.151  0.00  0.00    +0.004 C 
ENDBRANCH  20  21
ENDBRANCH  19  20
ENDBRANCH  18  19
ENDBRANCH  17  18
ENDBRANCH  16  17
ENDBRANCH  15  16
ENDBRANCH  14  15
ENDBRANCH   3  14
BRANCH   5  23
ATOM     23  C   UNL     1       6.265  -2.950  22.687  0.00  0.00    +0.190 C 
BRANCH  23  24
ATOM     24  O   UNL     1       5.412  -3.417  21.637  0.00  0.00    -0.392 OA
ATOM     25  H   UNL     1       5.636  -4.350  21.483  0.00  0.00    +0.210 HD
ENDBRANCH  23  24
ENDBRANCH   5  23
TORSDOF 13
ENDMDL
MODEL 4
REMARK VINA RESULT:      -5.2      3.235      6.805
REMARK  Name = 
REMARK  14 active torsions:
REMARK  status: ('A' for Active; 'I' for Inactive)
REMARK    1  A    between atoms: C_2  and  N_3
REMARK    2  A    between atoms: C_4  and  O_6
REMARK    3  A    between atoms: C_7  and  C_9
REMARK    4  A    between atoms: C_9  and  O_10
REMARK    5  A    between atoms: C_12  and  O_14
REMARK    6  A    between atoms: O_14  and  C_15
REMARK    7  A    between atoms: C_15  and  C_16
REMARK    8  A    between atoms: C_16  and  C_17
REMARK    9  A    between atoms: C_17  and  C_18
REMARK   10  A    between atoms: C_18  and  C_19
REMARK   11  A    between atoms: C_19  and  C_20
REMARK   12  A    between atoms: C_20  and  C_21
REMARK   13  A    between atoms: C_21  and  C_22
REMARK   14  A    between atoms: C_23  and  O_25
REMARK                            x       y       z     vdW  Elec       q    Type
REMARK                         _______ _______ _______ _____ _____    ______ ____
ROOT
ATOM      1  C   UNL     1       8.939  -0.156  22.177  0.00  0.00    +0.116 C 
ATOM      2  C   UNL     1       9.532  -1.202  23.131  0.00  0.00    +0.189 C 
ATOM      3  C   UNL     1      10.025  -0.587  24.456  0.00  0.00    +0.281 C 
ATOM      4  O   UNL     1      10.934   0.487  24.220  0.00  0.00    -0.341 OA
ATOM      5  C   UNL     1      10.516   1.541  23.336  0.00  0.00    +0.177 C 
ATOM      6  C   UNL     1       9.915   1.027  22.012  0.00  0.00    +0.165 C 
ENDROOT
BRANCH   1   7
ATOM      7  N   UNL     1       7.583   0.318  22.530  0.00  0.00    -0.323 NA
ATOM      8  H   UNL     1       6.945  -0.485  22.500  0.00  0.00    +0.119 HD
ATOM      9  H   UNL     1       7.584   0.594  23.521  0.00  0.00    +0.119 HD
ENDBRANCH   1   7
BRANCH   2  10
ATOM     10  O   UNL     1      10.631  -1.853  22.463  0.00  0.00    -0.385 OA
ATOM     11  H   UNL     1      10.731  -1.433  21.586  0.00  0.00    +0.210 HD
ENDBRANCH   2  10
BRANCH   6  12
ATOM     12  O   UNL     1       9.289   2.070  21.256  0.00  0.00    -0.388 OA
ATOM     13  H   UNL     1       9.326   2.864  21.832  0.00  0.00    +0.210 HD
ENDBRANCH   6  12
BRANCH   3  14
ATOM     14  O   UNL     1       8.946  -0.267  25.342  0.00  0.00    -0.349 OA
BRANCH  14  15
ATOM     15  C   UNL     1       8.515  -1.443  26.045  0.00  0.00    +0.163 C 
BRANCH  15  16
ATOM     16  C   UNL     1       7.036  -1.750  25.794  0.00  0.00    +0.028 C 
BRANCH  16  17
ATOM     17  C   UNL     1       6.799  -3.035  24.985  0.00  0.00    +0.002 C 
BRANCH  17  18
ATOM     18  C   UNL     1       6.040  -2.737  23.684  0.00  0.00    +0.000 C 
BRANCH  18  19
ATOM     19  C   UNL     1       6.630  -3.464  22.470  0.00  0.00    -0.000 C 
BRANCH  19  20
ATOM     20  C   UNL     1       7.506  -4.643  22.912  0.00  0.00    -0.000 C 
BRANCH  20  21
ATOM     21  C   UNL     1       7.210  -5.916  22.118  0.00  0.00    -0.003 C 
ATOM     22  C   UNL     1       6.234  -5.648  20.984  0.00  0.00    +0.004 C 
ENDBRANCH  20  21
ENDBRANCH  19  20
ENDBRANCH  18  19
ENDBRANCH  17  18
ENDBRANCH  16  17
ENDBRANCH  15  16
ENDBRANCH  14  15
ENDBRANCH   3  14
BRANCH   5  23
ATOM     23  C   UNL     1       9.690   2.639  24.030  0.00  0.00    +0.190 C 
BRANCH  23  24
ATOM     24  O   UNL     1       9.857   3.888  23.349  0.00  0.00    -0.392 OA
ATOM     25  H   UNL     1      10.619   3.786  22.754  0.00  0.00    +0.210 HD
ENDBRANCH  23  24
ENDBRANCH   5  23
TORSDOF 13
ENDMDL
MODEL 5
REMARK VINA RESULT:      -5.1      2.439      3.809
REMARK  Name = 
REMARK  14 active torsions:
REMARK  status: ('A' for Active; 'I' for Inactive)
REMARK    1  A    between atoms: C_2  and  N_3
REMARK    2  A    between atoms: C_4  and  O_6
REMARK    3  A    between atoms: C_7  and  C_9
REMARK    4  A    between atoms: C_9  and  O_10
REMARK    5  A    between atoms: C_12  and  O_14
REMARK    6  A    between atoms: O_14  and  C_15
REMARK    7  A    between atoms: C_15  and  C_16
REMARK    8  A    between atoms: C_16  and  C_17
REMARK    9  A    between atoms: C_17  and  C_18
REMARK   10  A    between atoms: C_18  and  C_19
REMARK   11  A    between atoms: C_19  and  C_20
REMARK   12  A    between atoms: C_20  and  C_21
REMARK   13  A    between atoms: C_21  and  C_22
REMARK   14  A    between atoms: C_23  and  O_25
REMARK                            x       y       z     vdW  Elec       q    Type
REMARK                         _______ _______ _______ _____ _____    ______ ____
ROOT
ATOM      1  C   UNL     1       8.474  -3.321  23.339  0.00  0.00    +0.116 C 
ATOM      2  C   UNL     1       7.541  -2.108  23.463  0.00  0.00    +0.189 C 
ATOM      3  C   UNL     1       7.068  -1.867  24.910  0.00  0.00    +0.281 C 
ATOM      4  O   UNL     1       6.481  -3.044  25.464  0.00  0.00    -0.341 OA
ATOM      5  C   UNL     1       7.240  -4.264  25.411  0.00  0.00    +0.177 C 
ATOM      6  C   UNL     1       7.841  -4.551  24.020  0.00  0.00    +0.165 C 
ENDROOT
BRANCH   1   7
ATOM      7  N   UNL     1       9.857  -3.100  23.816  0.00  0.00    -0.323 NA
ATOM      8  H   UNL     1      10.407  -2.718  23.038  0.00  0.00    +0.119 HD
ATOM      9  H   UNL     1       9.843  -2.337  24.506  0.00  0.00    +0.119 HD
ENDBRANCH   1   7
BRANCH   2  10
ATOM     10  O   UNL     1       6.398  -2.327  22.612  0.00  0.00    -0.385 OA
ATOM     11  H   UNL     1       5.639  -2.540  23.189  0.00  0.00    +0.210 HD
ENDBRANCH   2  10
BRANCH   6  12
ATOM     12  O   UNL     1       8.784  -5.629  24.045  0.00  0.00    -0.388 OA
ATOM     13  H   UNL     1       9.047  -5.719  24.986  0.00  0.00    +0.210 HD
ENDBRANCH   6  12
BRANCH   3  14
ATOM     14  O   UNL     1       8.086  -1.273  25.724  0.00  0.00    -0.349 OA
BRANCH  14  15
ATOM     15  C   UNL     1       8.546  -0.050  25.129  0.00  0.00    +0.163 C 
BRANCH  15  16
ATOM     16  C   UNL     1      10.050   0.157  25.336  0.00  0.00    +0.028 C 
BRANCH  16  17
ATOM     17  C   UNL     1      10.746   0.855  24.157  0.00  0.00    +0.002 C 
BRANCH  17  18
ATOM     18  C   UNL     1      10.133   0.422  22.818  0.00  0.00    +0.000 C 
BRANCH  18  19
ATOM     19  C   UNL     1       9.780   1.607  21.912  0.00  0.00    -0.000 C 
BRANCH  19  20
ATOM     20  C   UNL     1       8.266   1.688  21.684  0.00  0.00    -0.000 C 
BRANCH  20  21
ATOM     21  C   UNL     1       7.684   3.035  22.115  0.00  0.00    -0.003 C 
ATOM     22  C   UNL     1       7.695   3.183  23.628  0.00  0.00    +0.004 C 
ENDBRANCH  20  21
ENDBRANCH  19  20
ENDBRANCH  18  19
ENDBRANCH  17  18
ENDBRANCH  16  17
ENDBRANCH  15  16
ENDBRANCH  14  15
ENDBRANCH   3  14
BRANCH   5  23
ATOM     23  C   UNL     1       8.226  -4.431  26.581  0.00  0.00    +0.190 C 
BRANCH  23  24
ATOM     24  O   UNL     1       8.292  -5.804  26.981  0.00  0.00    -0.392 OA
ATOM     25  H   UNL     1       7.405  -6.050  27.294  0.00  0.00    +0.210 HD
ENDBRANCH  23  24
ENDBRANCH   5  23
TORSDOF 13
ENDMDL
MODEL 6
REMARK VINA RESULT:      -5.1      1.373      1.534
REMARK  Name = 
REMARK  14 active torsions:
REMARK  status: ('A' for Active; 'I' for Inactive)
REMARK    1  A    between atoms: C_2  and  N_3
REMARK    2  A    between atoms: C_4  and  O_6
REMARK    3  A    between atoms: C_7  and  C_9
REMARK    4  A    between atoms: C_9  and  O_10
REMARK    5  A    between atoms: C_12  and  O_14
REMARK    6  A    between atoms: O_14  and  C_15
REMARK    7  A    between atoms: C_15  and  C_16
REMARK    8  A    between atoms: C_16  and  C_17
REMARK    9  A    between atoms: C_17  and  C_18
REMARK   10  A    between atoms: C_18  and  C_19
REMARK   11  A    between atoms: C_19  and  C_20
REMARK   12  A    between atoms: C_20  and  C_21
REMARK   13  A    between atoms: C_21  and  C_22
REMARK   14  A    between atoms: C_23  and  O_25
REMARK                            x       y       z     vdW  Elec       q    Type
REMARK                         _______ _______ _______ _____ _____    ______ ____
ROOT
ATOM      1  C   UNL     1       6.366  -4.759  25.733  0.00  0.00    +0.116 C 
ATOM      2  C   UNL     1       7.866  -4.650  26.043  0.00  0.00    +0.189 C 
ATOM      3  C   UNL     1       8.697  -4.218  24.818  0.00  0.00    +0.281 C 
ATOM      4  O   UNL     1       8.449  -5.069  23.700  0.00  0.00    -0.341 OA
ATOM      5  C   UNL     1       7.084  -5.273  23.298  0.00  0.00    +0.177 C 
ATOM      6  C   UNL     1       6.146  -5.619  24.472  0.00  0.00    +0.165 C 
ENDROOT
BRANCH   1   7
ATOM      7  N   UNL     1       5.651  -3.468  25.630  0.00  0.00    -0.323 NA
ATOM      8  H   UNL     1       4.656  -3.638  25.812  0.00  0.00    +0.119 HD
ATOM      9  H   UNL     1       5.946  -2.871  26.414  0.00  0.00    +0.119 HD
ENDBRANCH   1   7
BRANCH   2  10
ATOM     10  O   UNL     1       8.326  -5.933  26.510  0.00  0.00    -0.385 OA
ATOM     11  H   UNL     1       7.904  -6.099  27.375  0.00  0.00    +0.210 HD
ENDBRANCH   2  10
BRANCH   6  12
ATOM     12  O   UNL     1       4.764  -5.580  24.095  0.00  0.00    -0.388 OA
ATOM     13  H   UNL     1       4.268  -5.518  24.940  0.00  0.00    +0.210 HD
ENDBRANCH   6  12
BRANCH   3  14
ATOM     14  O   UNL     1       8.566  -2.819  24.539  0.00  0.00    -0.349 OA
BRANCH  14  15
ATOM     15  C   UNL     1       9.608  -2.391  23.648  0.00  0.00    +0.163 C 
BRANCH  15  16
ATOM     16  C   UNL     1       9.047  -1.695  22.404  0.00  0.00    +0.028 C 
BRANCH  16  17
ATOM     17  C   UNL     1      10.019  -0.689  21.766  0.00  0.00    +0.002 C 
BRANCH  17  18
ATOM     18  C   UNL     1       9.335   0.664  21.526  0.00  0.00    +0.000 C 
BRANCH  18  19
ATOM     19  C   UNL     1      10.105   1.839  22.139  0.00  0.00    -0.000 C 
BRANCH  19  20
ATOM     20  C   UNL     1      10.127   1.738  23.669  0.00  0.00    -0.000 C 
BRANCH  20  21
ATOM     21  C   UNL     1       8.723   1.758  24.273  0.00  0.00    -0.003 C 
ATOM     22  C   UNL     1       8.583   0.729  25.383  0.00  0.00    +0.004 C 
ENDBRANCH  20  21
ENDBRANCH  19  20
ENDBRANCH  18  19
ENDBRANCH  17  18
ENDBRANCH  16  17
ENDBRANCH  15  16
ENDBRANCH  14  15
ENDBRANCH   3  14
BRANCH   5  23
ATOM     23  C   UNL     1       6.549  -4.185  22.350  0.00  0.00    +0.190 C 
BRANCH  23  24
ATOM     24  O   UNL     1       5.599  -4.747  21.439  0.00  0.00    -0.392 OA
ATOM     25  H   UNL     1       4.720  -4.448  21.727  0.00  0.00    +0.210 HD
ENDBRANCH  23  24
ENDBRANCH   5  23
TORSDOF 13
ENDMDL
MODEL 7
REMARK VINA RESULT:      -5.0      1.412      1.779
REMARK  Name = 
REMARK  14 active torsions:
REMARK  status: ('A' for Active; 'I' for Inactive)
REMARK    1  A    between atoms: C_2  and  N_3
REMARK    2  A    between atoms: C_4  and  O_6
REMARK    3  A    between atoms: C_7  and  C_9
REMARK    4  A    between atoms: C_9  and  O_10
REMARK    5  A    between atoms: C_12  and  O_14
REMARK    6  A    between atoms: O_14  and  C_15
REMARK    7  A    between atoms: C_15  and  C_16
REMARK    8  A    between atoms: C_16  and  C_17
REMARK    9  A    between atoms: C_17  and  C_18
REMARK   10  A    between atoms: C_18  and  C_19
REMARK   11  A    between atoms: C_19  and  C_20
REMARK   12  A    between atoms: C_20  and  C_21
REMARK   13  A    between atoms: C_21  and  C_22
REMARK   14  A    between atoms: C_23  and  O_25
REMARK                            x       y       z     vdW  Elec       q    Type
REMARK                         _______ _______ _______ _____ _____    ______ ____
ROOT
ATOM      1  C   UNL     1       5.652  -2.968  23.902  0.00  0.00    +0.116 C 
ATOM      2  C   UNL     1       6.849  -2.910  24.861  0.00  0.00    +0.189 C 
ATOM      3  C   UNL     1       7.997  -3.846  24.437  0.00  0.00    +0.281 C 
ATOM      4  O   UNL     1       7.533  -5.182  24.252  0.00  0.00    -0.341 OA
ATOM      5  C   UNL     1       6.407  -5.390  23.382  0.00  0.00    +0.177 C 
ATOM      6  C   UNL     1       5.231  -4.432  23.664  0.00  0.00    +0.165 C 
ENDROOT
BRANCH   1   7
ATOM      7  N   UNL     1       5.839  -2.252  22.621  0.00  0.00    -0.323 NA
ATOM      8  H   UNL     1       6.836  -2.287  22.377  0.00  0.00    +0.119 HD
ATOM      9  H   UNL     1       5.385  -2.797  21.876  0.00  0.00    +0.119 HD
ENDBRANCH   1   7
BRANCH   2  10
ATOM     10  O   UNL     1       6.391  -3.274  26.179  0.00  0.00    -0.385 OA
ATOM     11  H   UNL     1       7.008  -3.946  26.528  0.00  0.00    +0.210 HD
ENDBRANCH   2  10
BRANCH   6  12
ATOM     12  O   UNL     1       4.226  -4.488  22.645  0.00  0.00    -0.388 OA
ATOM     13  H   UNL     1       4.565  -5.129  21.983  0.00  0.00    +0.210 HD
ENDBRANCH   6  12
BRANCH   3  14
ATOM     14  O   UNL     1       8.748  -3.322  23.334  0.00  0.00    -0.349 OA
BRANCH  14  15
ATOM     15  C   UNL     1       9.570  -2.228  23.769  0.00  0.00    +0.163 C 
BRANCH  15  16
ATOM     16  C   UNL     1      10.295  -1.557  22.598  0.00  0.00    +0.028 C 
BRANCH  16  17
ATOM     17  C   UNL     1       9.348  -0.938  21.557  0.00  0.00    +0.002 C 
BRANCH  17  18
ATOM     18  C   UNL     1       9.372   0.595  21.630  0.00  0.00    +0.000 C 
BRANCH  18  19
ATOM     19  C   UNL     1       8.315   1.163  22.583  0.00  0.00    -0.000 C 
BRANCH  19  20
ATOM     20  C   UNL     1       8.971   1.983  23.701  0.00  0.00    -0.000 C 
BRANCH  20  21
ATOM     21  C   UNL     1      10.495   2.018  23.579  0.00  0.00    -0.003 C 
ATOM     22  C   UNL     1      11.005   3.440  23.413  0.00  0.00    +0.004 C 
ENDBRANCH  20  21
ENDBRANCH  19  20
ENDBRANCH  18  19
ENDBRANCH  17  18
ENDBRANCH  16  17
ENDBRANCH  15  16
ENDBRANCH  14  15
ENDBRANCH   3  14
BRANCH   5  23
ATOM     23  C   UNL     1       6.788  -5.516  21.896  0.00  0.00    +0.190 C 
BRANCH  23  24
ATOM     24  O   UNL     1       5.807  -6.291  21.199  0.00  0.00    -0.392 OA
ATOM     25  H   UNL     1       5.143  -6.563  21.854  0.00  0.00    +0.210 HD
ENDBRANCH  23  24
ENDBRANCH   5  23
TORSDOF 13
ENDMDL
MODEL 8
REMARK VINA RESULT:      -4.9      1.893      3.103
REMARK  Name = 
REMARK  14 active torsions:
REMARK  status: ('A' for Active; 'I' for Inactive)
REMARK    1  A    between atoms: C_2  and  N_3
REMARK    2  A    between atoms: C_4  and  O_6
REMARK    3  A    between atoms: C_7  and  C_9
REMARK    4  A    between atoms: C_9  and  O_10
REMARK    5  A    between atoms: C_12  and  O_14
REMARK    6  A    between atoms: O_14  and  C_15
REMARK    7  A    between atoms: C_15  and  C_16
REMARK    8  A    between atoms: C_16  and  C_17
REMARK    9  A    between atoms: C_17  and  C_18
REMARK   10  A    between atoms: C_18  and  C_19
REMARK   11  A    between atoms: C_19  and  C_20
REMARK   12  A    between atoms: C_20  and  C_21
REMARK   13  A    between atoms: C_21  and  C_22
REMARK   14  A    between atoms: C_23  and  O_25
REMARK                            x       y       z     vdW  Elec       q    Type
REMARK                         _______ _______ _______ _____ _____    ______ ____
ROOT
ATOM      1  C   UNL     1       6.426  -4.849  25.743  0.00  0.00    +0.116 C 
ATOM      2  C   UNL     1       7.353  -4.469  26.906  0.00  0.00    +0.189 C 
ATOM      3  C   UNL     1       8.432  -3.448  26.499  0.00  0.00    +0.281 C 
ATOM      4  O   UNL     1       9.169  -3.900  25.364  0.00  0.00    -0.341 OA
ATOM      5  C   UNL     1       8.430  -4.299  24.196  0.00  0.00    +0.177 C 
ATOM      6  C   UNL     1       7.260  -5.254  24.510  0.00  0.00    +0.165 C 
ENDROOT
BRANCH   1   7
ATOM      7  N   UNL     1       5.413  -3.831  25.390  0.00  0.00    -0.323 NA
ATOM      8  H   UNL     1       5.008  -3.467  26.260  0.00  0.00    +0.119 HD
ATOM      9  H   UNL     1       5.897  -3.019  24.985  0.00  0.00    +0.119 HD
ENDBRANCH   1   7
BRANCH   2  10
ATOM     10  O   UNL     1       7.984  -5.670  27.393  0.00  0.00    -0.385 OA
ATOM     11  H   UNL     1       7.839  -5.707  28.359  0.00  0.00    +0.210 HD
ENDBRANCH   2  10
BRANCH   6  12
ATOM     12  O   UNL     1       6.396  -5.446  23.384  0.00  0.00    -0.388 OA
ATOM     13  H   UNL     1       5.602  -5.899  23.742  0.00  0.00    +0.210 HD
ENDBRANCH   6  12
BRANCH   3  14
ATOM     14  O   UNL     1       7.906  -2.121  26.373  0.00  0.00    -0.349 OA
BRANCH  14  15
ATOM     15  C   UNL     1       8.892  -1.156  26.771  0.00  0.00    +0.163 C 
BRANCH  15  16
ATOM     16  C   UNL     1       9.329  -0.269  25.601  0.00  0.00    +0.028 C 
BRANCH  16  17
ATOM     17  C   UNL     1       8.247   0.721  25.138  0.00  0.00    +0.002 C 
BRANCH  17  18
ATOM     18  C   UNL     1       8.876   1.961  24.486  0.00  0.00    +0.000 C 
BRANCH  18  19
ATOM     19  C   UNL     1      10.229   1.667  23.829  0.00  0.00    -0.000 C 
BRANCH  19  20
ATOM     20  C   UNL     1      10.207   2.038  22.341  0.00  0.00    -0.000 C 
BRANCH  20  21
ATOM     21  C   UNL     1       9.143   1.260  21.565  0.00  0.00    -0.003 C 
ATOM     22  C   UNL     1       9.478  -0.221  21.501  0.00  0.00    +0.004 C 
ENDBRANCH  20  21
ENDBRANCH  19  20
ENDBRANCH  18  19
ENDBRANCH  17  18
ENDBRANCH  16  17
ENDBRANCH  15  16
ENDBRANCH  14  15
ENDBRANCH   3  14
BRANCH   5  23
ATOM     23  C   UNL     1       8.069  -3.131  23.262  0.00  0.00    +0.190 C 
BRANCH  23  24
ATOM     24  O   UNL     1       6.954  -2.403  23.788  0.00  0.00    -0.392 OA
ATOM     25  H   UNL     1       6.561  -1.913  23.047  0.00  0.00    +0.210 HD
ENDBRANCH  23  24
ENDBRANCH   5  23
TORSDOF 13
ENDMDL
MODEL 9
REMARK VINA RESULT:      -4.9      2.601      3.493
REMARK  Name = 
REMARK  14 active torsions:
REMARK  status: ('A' for Active; 'I' for Inactive)
REMARK    1  A    between atoms: C_2  and  N_3
REMARK    2  A    between atoms: C_4  and  O_6
REMARK    3  A    between atoms: C_7  and  C_9
REMARK    4  A    between atoms: C_9  and  O_10
REMARK    5  A    between atoms: C_12  and  O_14
REMARK    6  A    between atoms: O_14  and  C_15
REMARK    7  A    between atoms: C_15  and  C_16
REMARK    8  A    between atoms: C_16  and  C_17
REMARK    9  A    between atoms: C_17  and  C_18
REMARK   10  A    between atoms: C_18  and  C_19
REMARK   11  A    between atoms: C_19  and  C_20
REMARK   12  A    between atoms: C_20  and  C_21
REMARK   13  A    between atoms: C_21  and  C_22
REMARK   14  A    between atoms: C_23  and  O_25
REMARK                            x       y       z     vdW  Elec       q    Type
REMARK                         _______ _______ _______ _____ _____    ______ ____
ROOT
ATOM      1  C   UNL     1       6.196  -4.431  26.194  0.00  0.00    +0.116 C 
ATOM      2  C   UNL     1       5.989  -2.964  25.791  0.00  0.00    +0.189 C 
ATOM      3  C   UNL     1       7.183  -2.389  25.004  0.00  0.00    +0.281 C 
ATOM      4  O   UNL     1       8.406  -2.574  25.714  0.00  0.00    -0.341 OA
ATOM      5  C   UNL     1       8.731  -3.901  26.163  0.00  0.00    +0.177 C 
ATOM      6  C   UNL     1       7.563  -4.605  26.885  0.00  0.00    +0.165 C 
ENDROOT
BRANCH   1   7
ATOM      7  N   UNL     1       6.022  -5.412  25.101  0.00  0.00    -0.323 NA
ATOM      8  H   UNL     1       5.768  -4.900  24.249  0.00  0.00    +0.119 HD
ATOM      9  H   UNL     1       6.942  -5.817  24.880  0.00  0.00    +0.119 HD
ENDBRANCH   1   7
BRANCH   2  10
ATOM     10  O   UNL     1       5.784  -2.190  26.990  0.00  0.00    -0.385 OA
ATOM     11  H   UNL     1       5.934  -1.252  26.762  0.00  0.00    +0.210 HD
ENDBRANCH   2  10
BRANCH   6  12
ATOM     12  O   UNL     1       7.820  -5.996  27.108  0.00  0.00    -0.388 OA
ATOM     13  H   UNL     1       6.978  -6.361  27.457  0.00  0.00    +0.210 HD
ENDBRANCH   6  12
BRANCH   3  14
ATOM     14  O   UNL     1       7.210  -2.846  23.646  0.00  0.00    -0.349 OA
BRANCH  14  15
ATOM     15  C   UNL     1       7.584  -1.774  22.768  0.00  0.00    +0.163 C 
BRANCH  15  16
ATOM     16  C   UNL     1       9.052  -1.868  22.342  0.00  0.00    +0.028 C 
BRANCH  16  17
ATOM     17  C   UNL     1       9.831  -0.554  22.512  0.00  0.00    +0.002 C 
BRANCH  17  18
ATOM     18  C   UNL     1       9.446   0.461  21.426  0.00  0.00    +0.000 C 
BRANCH  18  19
ATOM     19  C   UNL     1       9.063   1.830  22.000  0.00  0.00    -0.000 C 
BRANCH  19  20
ATOM     20  C   UNL     1       9.642   2.014  23.407  0.00  0.00    -0.000 C 
BRANCH  20  21
ATOM     21  C   UNL     1       9.954   3.478  23.721  0.00  0.00    -0.003 C 
ATOM     22  C   UNL     1      11.385   3.831  23.348  0.00  0.00    +0.004 C 
ENDBRANCH  20  21
ENDBRANCH  19  20
ENDBRANCH  18  19
ENDBRANCH  17  18
ENDBRANCH  16  17
ENDBRANCH  15  16
ENDBRANCH  14  15
ENDBRANCH   3  14
BRANCH   5  23
ATOM     23  C   UNL     1       9.435  -4.760  25.098  0.00  0.00    +0.190 C 
BRANCH  23  24
ATOM     24  O   UNL     1      10.361  -5.658  25.720  0.00  0.00    -0.392 OA
ATOM     25  H   UNL     1      10.678  -5.221  26.529  0.00  0.00    +0.210 HD
ENDBRANCH  23  24
ENDBRANCH   5  23
TORSDOF 13
ENDMDL
