MODEL 1
REMARK VINA RESULT:      -8.4      0.000      0.000
REMARK  Name = 
REMARK  6 active torsions:
REMARK  status: ('A' for Active; 'I' for Inactive)
REMARK    1  A    between atoms: C_2  and  C_28
REMARK    2  A    between atoms: C_9  and  N_10
REMARK    3  A    between atoms: C_11  and  C_13
REMARK    4  A    between atoms: C_18  and  C_23
REMARK    5  A    between atoms: C_28  and  C_29
REMARK    6  A    between atoms: C_28  and  C_30
REMARK                            x       y       z     vdW  Elec       q    Type
REMARK                         _______ _______ _______ _____ _____    ______ ____
ROOT
ATOM      1  N   UNL     1       8.015  -2.513  24.705  0.00  0.00    -0.281 N 
ATOM      2  H   UNL     1       8.813  -2.757  24.137  0.00  0.00    +0.155 HD
ATOM      3  C   UNL     1       7.713  -1.172  24.872  0.00  0.00    +0.248 C 
ATOM      4  O   UNL     1       6.665  -0.724  25.333  0.00  0.00    -0.270 OA
ENDROOT
BRANCH   1   8
ATOM      5  C   UNL     1       4.627  -6.058  23.782  0.00  0.00    +0.087 C 
ATOM      6  C   UNL     1       5.553  -5.353  24.767  0.00  0.00    -0.025 A 
ATOM      7  C   UNL     1       6.403  -4.337  24.302  0.00  0.00    +0.028 A 
ATOM      8  C   UNL     1       7.206  -3.583  25.160  0.00  0.00    +0.034 A 
ATOM      9  C   UNL     1       7.184  -3.883  26.522  0.00  0.00    +0.023 A 
ATOM     10  C   UNL     1       6.401  -4.942  27.000  0.00  0.00    +0.006 A 
ATOM     11  C   UNL     1       5.579  -5.677  26.131  0.00  0.00    -0.041 A 
ATOM     12  C   UNL     1       4.803  -6.865  26.640  0.00  0.00    +0.050 C 
ATOM     13  C   UNL     1       3.741  -7.345  25.646  0.00  0.00    +0.086 C 
ATOM     14  N   UNL     1       4.255  -7.407  24.272  0.00  0.00    -0.309 NA
ATOM     15  H   UNL     1       5.104  -7.974  24.271  0.00  0.00    +0.123 HD
BRANCH   5  16
ATOM     16  C   UNL     1       3.358  -5.225  23.384  0.00  0.00    +0.004 C 
ATOM     17  C   UNL     1       2.151  -6.079  22.967  0.00  0.00    +0.009 C 
ATOM     18  C   UNL     1       2.904  -4.318  24.539  0.00  0.00    +0.009 C 
ENDBRANCH   5  16
ENDBRANCH   1   8
BRANCH   3  19
ATOM     19  C   UNL     1       8.715  -0.172  24.420  0.00  0.00    +0.038 A 
ATOM     20  C   UNL     1       8.317   1.173  24.467  0.00  0.00    +0.021 A 
ATOM     21  C   UNL     1       9.212   2.209  24.184  0.00  0.00    -0.017 A 
ATOM     22  C   UNL     1      10.536   1.893  23.817  0.00  0.00    -0.017 A 
ATOM     23  C   UNL     1      11.433   2.944  23.558  0.00  0.00    +0.024 A 
ATOM     24  C   UNL     1      11.021   4.280  23.673  0.00  0.00    +0.065 A 
ATOM     25  C   UNL     1       9.706   4.579  24.034  0.00  0.00    +0.016 A 
ATOM     26  C   UNL     1      10.924   0.539  23.752  0.00  0.00    +0.009 A 
ATOM     27  C   UNL     1       8.807   3.545  24.285  0.00  0.00    +0.009 A 
ATOM     28  C   UNL     1      10.024  -0.491  24.062  0.00  0.00    +0.013 A 
BRANCH  24  29
ATOM     29  C   UNL     1      11.990   5.376  23.395  0.00  0.00    +0.308 C 
ATOM     30  N   UNL     1      12.347   6.247  24.283  0.00  0.00    -0.099 NA
ATOM     31  H   UNL     1      11.927   6.049  25.195  0.00  0.00    +0.363 HD
ATOM     32  N   UNL     1      12.539   5.506  22.155  0.00  0.00    -0.247 N 
ATOM     33  H   UNL     1      12.996   6.408  22.060  0.00  0.00    +0.288 HD
ATOM     34  H   UNL     1      11.927   5.298  21.375  0.00  0.00    +0.288 HD
ENDBRANCH  24  29
ENDBRANCH   3  19
TORSDOF 4
ENDMDL
MODEL 2
REMARK VINA RESULT:      -8.1      1.610      1.828
REMARK  Name = 
REMARK  6 active torsions:
REMARK  status: ('A' for Active; 'I' for Inactive)
REMARK    1  A    between atoms: C_2  and  C_28
REMARK    2  A    between atoms: C_9  and  N_10
REMARK    3  A    between atoms: C_11  and  C_13
REMARK    4  A    between atoms: C_18  and  C_23
REMARK    5  A    between atoms: C_28  and  C_29
REMARK    6  A    between atoms: C_28  and  C_30
REMARK                            x       y       z     vdW  Elec       q    Type
REMARK                         _______ _______ _______ _____ _____    ______ ____
ROOT
ATOM      1  N   UNL     1       7.010  -2.912  24.276  0.00  0.00    -0.281 N 
ATOM      2  H   UNL     1       7.255  -2.261  25.009  0.00  0.00    +0.155 HD
ATOM      3  C   UNL     1       7.553  -2.718  23.017  0.00  0.00    +0.248 C 
ATOM      4  O   UNL     1       7.538  -3.533  22.096  0.00  0.00    -0.270 OA
ENDROOT
BRANCH   1   8
ATOM      5  C   UNL     1       3.373  -6.183  23.293  0.00  0.00    +0.087 C 
ATOM      6  C   UNL     1       4.471  -5.683  24.226  0.00  0.00    -0.025 A 
ATOM      7  C   UNL     1       5.279  -4.610  23.819  0.00  0.00    +0.028 A 
ATOM      8  C   UNL     1       6.239  -4.037  24.657  0.00  0.00    +0.034 A 
ATOM      9  C   UNL     1       6.418  -4.582  25.928  0.00  0.00    +0.023 A 
ATOM     10  C   UNL     1       5.676  -5.701  26.328  0.00  0.00    +0.006 A 
ATOM     11  C   UNL     1       4.697  -6.253  25.486  0.00  0.00    -0.041 A 
ATOM     12  C   UNL     1       3.961  -7.505  25.893  0.00  0.00    +0.050 C 
ATOM     13  C   UNL     1       2.737  -7.780  25.014  0.00  0.00    +0.086 C 
ATOM     14  N   UNL     1       3.026  -7.594  23.587  0.00  0.00    -0.309 NA
ATOM     15  H   UNL     1       3.839  -8.162  23.346  0.00  0.00    +0.123 HD
BRANCH   5  16
ATOM     16  C   UNL     1       2.093  -5.275  23.263  0.00  0.00    +0.004 C 
ATOM     17  C   UNL     1       0.864  -5.942  22.629  0.00  0.00    +0.009 C 
ATOM     18  C   UNL     1       1.696  -4.828  24.679  0.00  0.00    +0.009 C 
ENDBRANCH   5  16
ENDBRANCH   1   8
BRANCH   3  19
ATOM     19  C   UNL     1       8.256  -1.436  22.752  0.00  0.00    +0.038 A 
ATOM     20  C   UNL     1       8.016  -0.395  23.662  0.00  0.00    +0.021 A 
ATOM     21  C   UNL     1       8.712   0.814  23.586  0.00  0.00    -0.017 A 
ATOM     22  C   UNL     1       9.657   1.001  22.557  0.00  0.00    -0.017 A 
ATOM     23  C   UNL     1      10.367   2.213  22.506  0.00  0.00    +0.024 A 
ATOM     24  C   UNL     1      10.149   3.211  23.466  0.00  0.00    +0.065 A 
ATOM     25  C   UNL     1       9.208   3.015  24.479  0.00  0.00    +0.016 A 
ATOM     26  C   UNL     1       9.879  -0.041  21.633  0.00  0.00    +0.009 A 
ATOM     27  C   UNL     1       8.492   1.821  24.534  0.00  0.00    +0.009 A 
ATOM     28  C   UNL     1       9.192  -1.259  21.734  0.00  0.00    +0.013 A 
BRANCH  24  29
ATOM     29  C   UNL     1      10.915   4.486  23.392  0.00  0.00    +0.308 C 
ATOM     30  N   UNL     1      12.209   4.534  23.381  0.00  0.00    -0.099 NA
ATOM     31  H   UNL     1      12.620   3.597  23.374  0.00  0.00    +0.363 HD
ATOM     32  N   UNL     1      10.258   5.678  23.341  0.00  0.00    -0.247 N 
ATOM     33  H   UNL     1      10.900   6.446  23.514  0.00  0.00    +0.288 HD
ATOM     34  H   UNL     1       9.416   5.743  23.900  0.00  0.00    +0.288 HD
ENDBRANCH  24  29
ENDBRANCH   3  19
TORSDOF 4
ENDMDL
MODEL 3
REMARK VINA RESULT:      -8.0      1.826     10.300
REMARK  Name = 
REMARK  6 active torsions:
REMARK  status: ('A' for Active; 'I' for Inactive)
REMARK    1  A    between atoms: C_2  and  C_28
REMARK    2  A    between atoms: C_9  and  N_10
REMARK    3  A    between atoms: C_11  and  C_13
REMARK    4  A    between atoms: C_18  and  C_23
REMARK    5  A    between atoms: C_28  and  C_29
REMARK    6  A    between atoms: C_28  and  C_30
REMARK                            x       y       z     vdW  Elec       q    Type
REMARK                         _______ _______ _______ _____ _____    ______ ____
ROOT
ATOM      1  N   UNL     1       7.823  -0.341  22.960  0.00  0.00    -0.281 N 
ATOM      2  H   UNL     1       7.260  -0.421  22.125  0.00  0.00    +0.155 HD
ATOM      3  C   UNL     1       7.918  -1.439  23.797  0.00  0.00    +0.248 C 
ATOM      4  O   UNL     1       8.728  -1.577  24.711  0.00  0.00    -0.270 OA
ENDROOT
BRANCH   1   8
ATOM      5  C   UNL     1       8.178   4.338  24.657  0.00  0.00    +0.087 C 
ATOM      6  C   UNL     1       8.809   3.154  23.933  0.00  0.00    -0.025 A 
ATOM      7  C   UNL     1       8.096   1.948  23.841  0.00  0.00    +0.028 A 
ATOM      8  C   UNL     1       8.568   0.855  23.112  0.00  0.00    +0.034 A 
ATOM      9  C   UNL     1       9.810   0.962  22.486  0.00  0.00    +0.023 A 
ATOM     10  C   UNL     1      10.574   2.128  22.627  0.00  0.00    +0.006 A 
ATOM     11  C   UNL     1      10.077   3.230  23.342  0.00  0.00    -0.041 A 
ATOM     12  C   UNL     1      10.939   4.449  23.555  0.00  0.00    +0.050 C 
ATOM     13  C   UNL     1      10.142   5.649  24.076  0.00  0.00    +0.086 C 
ATOM     14  N   UNL     1       9.215   5.275  25.152  0.00  0.00    -0.309 NA
ATOM     15  H   UNL     1       9.742   4.787  25.877  0.00  0.00    +0.123 HD
BRANCH   5  16
ATOM     16  C   UNL     1       7.079   5.090  23.825  0.00  0.00    +0.004 C 
ATOM     17  C   UNL     1       7.145   4.825  22.314  0.00  0.00    +0.009 C 
ATOM     18  C   UNL     1       5.667   4.711  24.299  0.00  0.00    +0.009 C 
ENDBRANCH   5  16
ENDBRANCH   1   8
BRANCH   3  19
ATOM     19  C   UNL     1       6.995  -2.579  23.556  0.00  0.00    +0.038 A 
ATOM     20  C   UNL     1       6.884  -3.520  24.592  0.00  0.00    +0.021 A 
ATOM     21  C   UNL     1       5.959  -4.566  24.531  0.00  0.00    -0.017 A 
ATOM     22  C   UNL     1       5.139  -4.694  23.391  0.00  0.00    -0.017 A 
ATOM     23  C   UNL     1       4.197  -5.736  23.352  0.00  0.00    +0.024 A 
ATOM     24  C   UNL     1       4.067  -6.623  24.430  0.00  0.00    +0.065 A 
ATOM     25  C   UNL     1       4.888  -6.489  25.551  0.00  0.00    +0.016 A 
ATOM     26  C   UNL     1       5.269  -3.757  22.345  0.00  0.00    +0.009 A 
ATOM     27  C   UNL     1       5.831  -5.464  25.597  0.00  0.00    +0.009 A 
ATOM     28  C   UNL     1       6.184  -2.698  22.428  0.00  0.00    +0.013 A 
BRANCH  24  29
ATOM     29  C   UNL     1       3.061  -7.719  24.366  0.00  0.00    +0.308 C 
ATOM     30  N   UNL     1       2.897  -8.586  25.313  0.00  0.00    -0.099 NA
ATOM     31  H   UNL     1       3.500  -8.384  26.116  0.00  0.00    +0.363 HD
ATOM     32  N   UNL     1       2.263  -7.853  23.269  0.00  0.00    -0.247 N 
ATOM     33  H   UNL     1       1.796  -8.755  23.277  0.00  0.00    +0.288 HD
ATOM     34  H   UNL     1       2.699  -7.650  22.377  0.00  0.00    +0.288 HD
ENDBRANCH  24  29
ENDBRANCH   3  19
TORSDOF 4
ENDMDL
MODEL 4
REMARK VINA RESULT:      -8.0      1.619     10.084
REMARK  Name = 
REMARK  6 active torsions:
REMARK  status: ('A' for Active; 'I' for Inactive)
REMARK    1  A    between atoms: C_2  and  C_28
REMARK    2  A    between atoms: C_9  and  N_10
REMARK    3  A    between atoms: C_11  and  C_13
REMARK    4  A    between atoms: C_18  and  C_23
REMARK    5  A    between atoms: C_28  and  C_29
REMARK    6  A    between atoms: C_28  and  C_30
REMARK                            x       y       z     vdW  Elec       q    Type
REMARK                         _______ _______ _______ _____ _____    ______ ____
ROOT
ATOM      1  N   UNL     1       8.052  -1.477  24.398  0.00  0.00    -0.281 N 
ATOM      2  H   UNL     1       7.576  -1.836  23.583  0.00  0.00    +0.155 HD
ATOM      3  C   UNL     1       8.037  -2.235  25.556  0.00  0.00    +0.248 C 
ATOM      4  O   UNL     1       8.745  -2.052  26.543  0.00  0.00    -0.270 OA
ENDROOT
BRANCH   1   8
ATOM      5  C   UNL     1       8.224   3.479  23.846  0.00  0.00    +0.087 C 
ATOM      6  C   UNL     1       8.955   2.146  23.961  0.00  0.00    -0.025 A 
ATOM      7  C   UNL     1       8.216   0.978  24.201  0.00  0.00    +0.028 A 
ATOM      8  C   UNL     1       8.804  -0.289  24.223  0.00  0.00    +0.034 A 
ATOM      9  C   UNL     1      10.182  -0.382  24.035  0.00  0.00    +0.023 A 
ATOM     10  C   UNL     1      10.953   0.777  23.869  0.00  0.00    +0.006 A 
ATOM     11  C   UNL     1      10.346   2.043  23.824  0.00  0.00    -0.041 A 
ATOM     12  C   UNL     1      11.191   3.288  23.727  0.00  0.00    +0.050 C 
ATOM     13  C   UNL     1      10.367   4.532  23.382  0.00  0.00    +0.086 C 
ATOM     14  N   UNL     1       9.127   4.611  24.164  0.00  0.00    -0.309 NA
ATOM     15  H   UNL     1       9.365   4.539  25.154  0.00  0.00    +0.123 HD
BRANCH   5  16
ATOM     16  C   UNL     1       7.498   3.697  22.471  0.00  0.00    +0.004 C 
ATOM     17  C   UNL     1       6.178   2.926  22.328  0.00  0.00    +0.009 C 
ATOM     18  C   UNL     1       7.192   5.185  22.235  0.00  0.00    +0.009 C 
ENDBRANCH   5  16
ENDBRANCH   1   8
BRANCH   3  19
ATOM     19  C   UNL     1       7.119  -3.403  25.610  0.00  0.00    +0.038 A 
ATOM     20  C   UNL     1       6.083  -3.425  24.663  0.00  0.00    +0.021 A 
ATOM     21  C   UNL     1       5.234  -4.528  24.538  0.00  0.00    -0.017 A 
ATOM     22  C   UNL     1       5.405  -5.631  25.400  0.00  0.00    -0.017 A 
ATOM     23  C   UNL     1       4.559  -6.743  25.248  0.00  0.00    +0.024 A 
ATOM     24  C   UNL     1       3.573  -6.760  24.252  0.00  0.00    +0.065 A 
ATOM     25  C   UNL     1       3.411  -5.661  23.407  0.00  0.00    +0.016 A 
ATOM     26  C   UNL     1       6.435  -5.594  26.363  0.00  0.00    +0.009 A 
ATOM     27  C   UNL     1       4.238  -4.549  23.554  0.00  0.00    +0.009 A 
ATOM     28  C   UNL     1       7.296  -4.492  26.463  0.00  0.00    +0.013 A 
BRANCH  24  29
ATOM     29  C   UNL     1       2.690  -7.951  24.110  0.00  0.00    +0.308 C 
ATOM     30  N   UNL     1       2.591  -8.870  25.016  0.00  0.00    -0.099 NA
ATOM     31  H   UNL     1       3.147  -8.643  25.845  0.00  0.00    +0.363 HD
ATOM     32  N   UNL     1       1.943  -8.120  22.983  0.00  0.00    -0.247 N 
ATOM     33  H   UNL     1       1.573  -9.064  22.939  0.00  0.00    +0.288 HD
ATOM     34  H   UNL     1       2.380  -7.833  22.115  0.00  0.00    +0.288 HD
ENDBRANCH  24  29
ENDBRANCH   3  19
TORSDOF 4
ENDMDL
MODEL 5
REMARK VINA RESULT:      -7.9      2.050     10.079
REMARK  Name = 
REMARK  6 active torsions:
REMARK  status: ('A' for Active; 'I' for Inactive)
REMARK    1  A    between atoms: C_2  and  C_28
REMARK    2  A    between atoms: C_9  and  N_10
REMARK    3  A    between atoms: C_11  and  C_13
REMARK    4  A    between atoms: C_18  and  C_23
REMARK    5  A    between atoms: C_28  and  C_29
REMARK    6  A    between atoms: C_28  and  C_30
REMARK                            x       y       z     vdW  Elec       q    Type
REMARK                         _______ _______ _______ _____ _____    ______ ____
ROOT
ATOM      1  N   UNL     1       8.515   0.231  24.462  0.00  0.00    -0.281 N 
ATOM      2  H   UNL     1       8.100   0.058  25.366  0.00  0.00    +0.155 HD
ATOM      3  C   UNL     1       8.367  -0.731  23.476  0.00  0.00    +0.248 C 
ATOM      4  O   UNL     1       8.609  -0.576  22.281  0.00  0.00    -0.270 OA
ENDROOT
BRANCH   1   8
ATOM      5  C   UNL     1       8.168   5.203  24.682  0.00  0.00    +0.087 C 
ATOM      6  C   UNL     1       8.986   3.959  24.357  0.00  0.00    -0.025 A 
ATOM      7  C   UNL     1       8.441   2.693  24.619  0.00  0.00    +0.028 A 
ATOM      8  C   UNL     1       9.090   1.510  24.260  0.00  0.00    +0.034 A 
ATOM      9  C   UNL     1      10.342   1.600  23.652  0.00  0.00    +0.023 A 
ATOM     10  C   UNL     1      10.940   2.851  23.447  0.00  0.00    +0.006 A 
ATOM     11  C   UNL     1      10.266   4.034  23.791  0.00  0.00    -0.041 A 
ATOM     12  C   UNL     1      10.950   5.369  23.643  0.00  0.00    +0.050 C 
ATOM     13  C   UNL     1       9.977   6.546  23.766  0.00  0.00    +0.086 C 
ATOM     14  N   UNL     1       9.046   6.380  24.889  0.00  0.00    -0.309 NA
ATOM     15  H   UNL     1       9.589   6.206  25.736  0.00  0.00    +0.123 HD
BRANCH   5  16
ATOM     16  C   UNL     1       7.032   5.515  23.645  0.00  0.00    +0.004 C 
ATOM     17  C   UNL     1       7.163   4.751  22.319  0.00  0.00    +0.009 C 
ATOM     18  C   UNL     1       5.645   5.195  24.226  0.00  0.00    +0.009 C 
ENDBRANCH   5  16
ENDBRANCH   1   8
BRANCH   3  19
ATOM     19  C   UNL     1       7.831  -2.058  23.874  0.00  0.00    +0.038 A 
ATOM     20  C   UNL     1       7.501  -2.215  25.230  0.00  0.00    +0.021 A 
ATOM     21  C   UNL     1       6.876  -3.374  25.698  0.00  0.00    -0.017 A 
ATOM     22  C   UNL     1       6.595  -4.419  24.794  0.00  0.00    -0.017 A 
ATOM     23  C   UNL     1       5.946  -5.569  25.273  0.00  0.00    +0.024 A 
ATOM     24  C   UNL     1       5.574  -5.671  26.621  0.00  0.00    +0.065 A 
ATOM     25  C   UNL     1       5.861  -4.631  27.508  0.00  0.00    +0.016 A 
ATOM     26  C   UNL     1       6.948  -4.263  23.437  0.00  0.00    +0.009 A 
ATOM     27  C   UNL     1       6.512  -3.489  27.045  0.00  0.00    +0.009 A 
ATOM     28  C   UNL     1       7.553  -3.086  22.974  0.00  0.00    +0.013 A 
BRANCH  24  29
ATOM     29  C   UNL     1       4.885  -6.899  27.105  0.00  0.00    +0.308 C 
ATOM     30  N   UNL     1       3.907  -7.459  26.468  0.00  0.00    -0.099 NA
ATOM     31  H   UNL     1       3.716  -6.986  25.580  0.00  0.00    +0.363 HD
ATOM     32  N   UNL     1       5.268  -7.484  28.274  0.00  0.00    -0.247 N 
ATOM     33  H   UNL     1       4.577  -8.164  28.575  0.00  0.00    +0.288 HD
ATOM     34  H   UNL     1       5.538  -6.851  29.018  0.00  0.00    +0.288 HD
ENDBRANCH  24  29
ENDBRANCH   3  19
TORSDOF 4
ENDMDL
MODEL 6
REMARK VINA RESULT:      -7.6      1.829      2.784
REMARK  Name = 
REMARK  6 active torsions:
REMARK  status: ('A' for Active; 'I' for Inactive)
REMARK    1  A    between atoms: C_2  and  C_28
REMARK    2  A    between atoms: C_9  and  N_10
REMARK    3  A    between atoms: C_11  and  C_13
REMARK    4  A    between atoms: C_18  and  C_23
REMARK    5  A    between atoms: C_28  and  C_29
REMARK    6  A    between atoms: C_28  and  C_30
REMARK                            x       y       z     vdW  Elec       q    Type
REMARK                         _______ _______ _______ _____ _____    ______ ____
ROOT
ATOM      1  N   UNL     1       6.091  -2.658  23.346  0.00  0.00    -0.281 N 
ATOM      2  H   UNL     1       5.611  -1.771  23.307  0.00  0.00    +0.155 HD
ATOM      3  C   UNL     1       7.475  -2.660  23.318  0.00  0.00    +0.248 C 
ATOM      4  O   UNL     1       8.197  -3.618  23.583  0.00  0.00    -0.270 OA
ENDROOT
BRANCH   1   8
ATOM      5  C   UNL     1       3.090  -5.328  26.306  0.00  0.00    +0.087 C 
ATOM      6  C   UNL     1       3.797  -5.157  24.966  0.00  0.00    -0.025 A 
ATOM      7  C   UNL     1       4.537  -3.990  24.726  0.00  0.00    +0.028 A 
ATOM      8  C   UNL     1       5.288  -3.806  23.564  0.00  0.00    +0.034 A 
ATOM      9  C   UNL     1       5.266  -4.809  22.595  0.00  0.00    +0.023 A 
ATOM     10  C   UNL     1       4.474  -5.951  22.779  0.00  0.00    +0.006 A 
ATOM     11  C   UNL     1       3.743  -6.135  23.963  0.00  0.00    -0.041 A 
ATOM     12  C   UNL     1       2.832  -7.326  24.117  0.00  0.00    +0.050 C 
ATOM     13  C   UNL     1       2.364  -7.527  25.563  0.00  0.00    +0.086 C 
ATOM     14  N   UNL     1       1.948  -6.267  26.191  0.00  0.00    -0.309 NA
ATOM     15  H   UNL     1       1.251  -5.823  25.593  0.00  0.00    +0.123 HD
BRANCH   5  16
ATOM     16  C   UNL     1       4.042  -5.729  27.489  0.00  0.00    +0.004 C 
ATOM     17  C   UNL     1       5.379  -6.338  27.041  0.00  0.00    +0.009 C 
ATOM     18  C   UNL     1       4.361  -4.519  28.380  0.00  0.00    +0.009 C 
ENDBRANCH   5  16
ENDBRANCH   1   8
BRANCH   3  19
ATOM     19  C   UNL     1       8.165  -1.387  22.981  0.00  0.00    +0.038 A 
ATOM     20  C   UNL     1       7.962  -0.316  23.866  0.00  0.00    +0.021 A 
ATOM     21  C   UNL     1       8.653   0.890  23.721  0.00  0.00    -0.017 A 
ATOM     22  C   UNL     1       9.554   1.042  22.647  0.00  0.00    -0.017 A 
ATOM     23  C   UNL     1      10.260   2.252  22.526  0.00  0.00    +0.024 A 
ATOM     24  C   UNL     1      10.081   3.281  23.462  0.00  0.00    +0.065 A 
ATOM     25  C   UNL     1       9.184   3.118  24.519  0.00  0.00    +0.016 A 
ATOM     26  C   UNL     1       9.738  -0.030  21.750  0.00  0.00    +0.009 A 
ATOM     27  C   UNL     1       8.472   1.927  24.643  0.00  0.00    +0.009 A 
ATOM     28  C   UNL     1       9.056  -1.244  21.919  0.00  0.00    +0.013 A 
BRANCH  24  29
ATOM     29  C   UNL     1      10.842   4.552  23.313  0.00  0.00    +0.308 C 
ATOM     30  N   UNL     1      10.297   5.721  23.434  0.00  0.00    -0.099 NA
ATOM     31  H   UNL     1       9.310   5.650  23.696  0.00  0.00    +0.363 HD
ATOM     32  N   UNL     1      12.173   4.524  23.026  0.00  0.00    -0.247 N 
ATOM     33  H   UNL     1      12.495   5.445  22.742  0.00  0.00    +0.288 HD
ATOM     34  H   UNL     1      12.473   3.795  22.390  0.00  0.00    +0.288 HD
ENDBRANCH  24  29
ENDBRANCH   3  19
TORSDOF 4
ENDMDL
MODEL 7
REMARK VINA RESULT:      -7.5      1.957     10.277
REMARK  Name = 
REMARK  6 active torsions:
REMARK  status: ('A' for Active; 'I' for Inactive)
REMARK    1  A    between atoms: C_2  and  C_28
REMARK    2  A    between atoms: C_9  and  N_10
REMARK    3  A    between atoms: C_11  and  C_13
REMARK    4  A    between atoms: C_18  and  C_23
REMARK    5  A    between atoms: C_28  and  C_29
REMARK    6  A    between atoms: C_28  and  C_30
REMARK                            x       y       z     vdW  Elec       q    Type
REMARK                         _______ _______ _______ _____ _____    ______ ____
ROOT
ATOM      1  N   UNL     1       7.574  -1.967  23.325  0.00  0.00    -0.281 N 
ATOM      2  H   UNL     1       6.962  -2.105  22.533  0.00  0.00    +0.155 HD
ATOM      3  C   UNL     1       7.738  -3.010  24.220  0.00  0.00    +0.248 C 
ATOM      4  O   UNL     1       8.605  -3.081  25.088  0.00  0.00    -0.270 OA
ENDROOT
BRANCH   1   8
ATOM      5  C   UNL     1       7.836   2.892  24.428  0.00  0.00    +0.087 C 
ATOM      6  C   UNL     1       8.503   1.632  23.889  0.00  0.00    -0.025 A 
ATOM      7  C   UNL     1       7.800   0.418  23.919  0.00  0.00    +0.028 A 
ATOM      8  C   UNL     1       8.308  -0.755  23.356  0.00  0.00    +0.034 A 
ATOM      9  C   UNL     1       9.576  -0.717  22.779  0.00  0.00    +0.023 A 
ATOM     10  C   UNL     1      10.329   0.465  22.803  0.00  0.00    +0.006 A 
ATOM     11  C   UNL     1       9.797   1.644  23.350  0.00  0.00    -0.041 A 
ATOM     12  C   UNL     1      10.644   2.888  23.445  0.00  0.00    +0.050 C 
ATOM     13  C   UNL     1       9.820   4.137  23.773  0.00  0.00    +0.086 C 
ATOM     14  N   UNL     1       8.847   3.894  24.845  0.00  0.00    -0.309 NA
ATOM     15  H   UNL     1       9.342   3.506  25.649  0.00  0.00    +0.123 HD
BRANCH   5  16
ATOM     16  C   UNL     1       6.774   3.523  23.459  0.00  0.00    +0.004 C 
ATOM     17  C   UNL     1       6.878   3.032  22.007  0.00  0.00    +0.009 C 
ATOM     18  C   UNL     1       5.343   3.237  23.941  0.00  0.00    +0.009 C 
ENDBRANCH   5  16
ENDBRANCH   1   8
BRANCH   3  19
ATOM     19  C   UNL     1       6.821  -4.174  24.107  0.00  0.00    +0.038 A 
ATOM     20  C   UNL     1       6.114  -4.524  25.268  0.00  0.00    +0.021 A 
ATOM     21  C   UNL     1       5.135  -5.521  25.252  0.00  0.00    -0.017 A 
ATOM     22  C   UNL     1       4.871  -6.208  24.049  0.00  0.00    -0.017 A 
ATOM     23  C   UNL     1       3.868  -7.192  24.041  0.00  0.00    +0.024 A 
ATOM     24  C   UNL     1       3.136  -7.477  25.203  0.00  0.00    +0.065 A 
ATOM     25  C   UNL     1       3.409  -6.792  26.388  0.00  0.00    +0.016 A 
ATOM     26  C   UNL     1       5.600  -5.866  22.891  0.00  0.00    +0.009 A 
ATOM     27  C   UNL     1       4.407  -5.820  26.410  0.00  0.00    +0.009 A 
ATOM     28  C   UNL     1       6.563  -4.847  22.913  0.00  0.00    +0.013 A 
BRANCH  24  29
ATOM     29  C   UNL     1       2.077  -8.523  25.168  0.00  0.00    +0.308 C 
ATOM     30  N   UNL     1       2.333  -9.791  25.216  0.00  0.00    -0.099 NA
ATOM     31  H   UNL     1       3.335  -9.968  25.335  0.00  0.00    +0.363 HD
ATOM     32  N   UNL     1       0.765  -8.167  25.073  0.00  0.00    -0.247 N 
ATOM     33  H   UNL     1       0.193  -8.974  24.841  0.00  0.00    +0.288 HD
ATOM     34  H   UNL     1       0.565  -7.369  24.483  0.00  0.00    +0.288 HD
ENDBRANCH  24  29
ENDBRANCH   3  19
TORSDOF 4
ENDMDL
MODEL 8
REMARK VINA RESULT:      -7.3      1.421      1.800
REMARK  Name = 
REMARK  6 active torsions:
REMARK  status: ('A' for Active; 'I' for Inactive)
REMARK    1  A    between atoms: C_2  and  C_28
REMARK    2  A    between atoms: C_9  and  N_10
REMARK    3  A    between atoms: C_11  and  C_13
REMARK    4  A    between atoms: C_18  and  C_23
REMARK    5  A    between atoms: C_28  and  C_29
REMARK    6  A    between atoms: C_28  and  C_30
REMARK                            x       y       z     vdW  Elec       q    Type
REMARK                         _______ _______ _______ _____ _____    ______ ____
ROOT
ATOM      1  N   UNL     1       6.528  -1.500  25.181  0.00  0.00    -0.281 N 
ATOM      2  H   UNL     1       6.170  -0.741  24.619  0.00  0.00    +0.155 HD
ATOM      3  C   UNL     1       7.849  -1.448  25.592  0.00  0.00    +0.248 C 
ATOM      4  O   UNL     1       8.361  -2.161  26.452  0.00  0.00    -0.270 OA
ENDROOT
BRANCH   1   8
ATOM      5  C   UNL     1       4.948  -6.232  25.230  0.00  0.00    +0.087 C 
ATOM      6  C   UNL     1       4.770  -4.785  25.677  0.00  0.00    -0.025 A 
ATOM      7  C   UNL     1       5.735  -3.833  25.314  0.00  0.00    +0.028 A 
ATOM      8  C   UNL     1       5.590  -2.475  25.603  0.00  0.00    +0.034 A 
ATOM      9  C   UNL     1       4.461  -2.065  26.312  0.00  0.00    +0.023 A 
ATOM     10  C   UNL     1       3.521  -3.008  26.750  0.00  0.00    +0.006 A 
ATOM     11  C   UNL     1       3.665  -4.367  26.431  0.00  0.00    -0.041 A 
ATOM     12  C   UNL     1       2.694  -5.384  26.976  0.00  0.00    +0.050 C 
ATOM     13  C   UNL     1       2.818  -6.746  26.286  0.00  0.00    +0.086 C 
ATOM     14  N   UNL     1       4.217  -7.161  26.126  0.00  0.00    -0.309 NA
ATOM     15  H   UNL     1       4.672  -7.120  27.039  0.00  0.00    +0.123 HD
BRANCH   5  16
ATOM     16  C   UNL     1       4.586  -6.490  23.724  0.00  0.00    +0.004 C 
ATOM     17  C   UNL     1       3.464  -5.591  23.185  0.00  0.00    +0.009 C 
ATOM     18  C   UNL     1       5.812  -6.292  22.817  0.00  0.00    +0.009 C 
ENDBRANCH   5  16
ENDBRANCH   1   8
BRANCH   3  19
ATOM     19  C   UNL     1       8.728  -0.418  24.980  0.00  0.00    +0.038 A 
ATOM     20  C   UNL     1       8.284   0.911  25.068  0.00  0.00    +0.021 A 
ATOM     21  C   UNL     1       9.081   1.975  24.638  0.00  0.00    -0.017 A 
ATOM     22  C   UNL     1      10.347   1.706  24.080  0.00  0.00    -0.017 A 
ATOM     23  C   UNL     1      11.148   2.787  23.673  0.00  0.00    +0.024 A 
ATOM     24  C   UNL     1      10.701   4.107  23.830  0.00  0.00    +0.065 A 
ATOM     25  C   UNL     1       9.444   4.360  24.381  0.00  0.00    +0.016 A 
ATOM     26  C   UNL     1      10.779   0.368  23.976  0.00  0.00    +0.009 A 
ATOM     27  C   UNL     1       8.638   3.296  24.780  0.00  0.00    +0.009 A 
ATOM     28  C   UNL     1       9.981  -0.691  24.432  0.00  0.00    +0.013 A 
BRANCH  24  29
ATOM     29  C   UNL     1      11.569   5.235  23.393  0.00  0.00    +0.308 C 
ATOM     30  N   UNL     1      12.194   5.249  22.260  0.00  0.00    -0.099 NA
ATOM     31  H   UNL     1      11.970   4.424  21.696  0.00  0.00    +0.363 HD
ATOM     32  N   UNL     1      11.745   6.318  24.202  0.00  0.00    -0.247 N 
ATOM     33  H   UNL     1      12.519   6.886  23.872  0.00  0.00    +0.288 HD
ATOM     34  H   UNL     1      11.802   6.124  25.194  0.00  0.00    +0.288 HD
ENDBRANCH  24  29
ENDBRANCH   3  19
TORSDOF 4
ENDMDL
MODEL 9
REMARK VINA RESULT:      -7.3      1.972     10.351
REMARK  Name = 
REMARK  6 active torsions:
REMARK  status: ('A' for Active; 'I' for Inactive)
REMARK    1  A    between atoms: C_2  and  C_28
REMARK    2  A    between atoms: C_9  and  N_10
REMARK    3  A    between atoms: C_11  and  C_13
REMARK    4  A    between atoms: C_18  and  C_23
REMARK    5  A    between atoms: C_28  and  C_29
REMARK    6  A    between atoms: C_28  and  C_30
REMARK                            x       y       z     vdW  Elec       q    Type
REMARK                         _______ _______ _______ _____ _____    ______ ____
ROOT
ATOM      1  N   UNL     1       5.978  -1.217  25.126  0.00  0.00    -0.281 N 
ATOM      2  H   UNL     1       4.969  -1.253  25.140  0.00  0.00    +0.155 HD
ATOM      3  C   UNL     1       6.677  -2.406  25.007  0.00  0.00    +0.248 C 
ATOM      4  O   UNL     1       7.875  -2.512  24.750  0.00  0.00    -0.270 OA
ENDROOT
BRANCH   1   8
ATOM      5  C   UNL     1       8.422   2.348  22.633  0.00  0.00    +0.087 C 
ATOM      6  C   UNL     1       7.756   1.867  23.918  0.00  0.00    -0.025 A 
ATOM      7  C   UNL     1       7.114   0.619  23.931  0.00  0.00    +0.028 A 
ATOM      8  C   UNL     1       6.568   0.071  25.093  0.00  0.00    +0.034 A 
ATOM      9  C   UNL     1       6.636   0.814  26.271  0.00  0.00    +0.023 A 
ATOM     10  C   UNL     1       7.205   2.095  26.267  0.00  0.00    +0.006 A 
ATOM     11  C   UNL     1       7.773   2.625  25.097  0.00  0.00    -0.041 A 
ATOM     12  C   UNL     1       8.309   4.034  25.082  0.00  0.00    +0.050 C 
ATOM     13  C   UNL     1       9.155   4.328  23.839  0.00  0.00    +0.086 C 
ATOM     14  N   UNL     1       8.529   3.827  22.610  0.00  0.00    -0.309 NA
ATOM     15  H   UNL     1       7.579   4.198  22.557  0.00  0.00    +0.123 HD
BRANCH   5  16
ATOM     16  C   UNL     1       9.806   1.671  22.333  0.00  0.00    +0.004 C 
ATOM     17  C   UNL     1      10.600   1.281  23.588  0.00  0.00    +0.009 C 
ATOM     18  C   UNL     1       9.631   0.401  21.485  0.00  0.00    +0.009 C 
ENDBRANCH   5  16
ENDBRANCH   1   8
BRANCH   3  19
ATOM     19  C   UNL     1       5.921  -3.676  25.160  0.00  0.00    +0.038 A 
ATOM     20  C   UNL     1       4.722  -3.777  24.436  0.00  0.00    +0.021 A 
ATOM     21  C   UNL     1       3.988  -4.966  24.403  0.00  0.00    -0.017 A 
ATOM     22  C   UNL     1       4.448  -6.079  25.136  0.00  0.00    -0.017 A 
ATOM     23  C   UNL     1       3.713  -7.276  25.076  0.00  0.00    +0.024 A 
ATOM     24  C   UNL     1       2.552  -7.364  24.294  0.00  0.00    +0.065 A 
ATOM     25  C   UNL     1       2.105  -6.253  23.577  0.00  0.00    +0.016 A 
ATOM     26  C   UNL     1       5.643  -5.965  25.877  0.00  0.00    +0.009 A 
ATOM     27  C   UNL     1       2.821  -5.059  23.636  0.00  0.00    +0.009 A 
ATOM     28  C   UNL     1       6.383  -4.775  25.883  0.00  0.00    +0.013 A 
BRANCH  24  29
ATOM     29  C   UNL     1       1.792  -8.643  24.246  0.00  0.00    +0.308 C 
ATOM     30  N   UNL     1       0.961  -8.937  23.298  0.00  0.00    -0.099 NA
ATOM     31  H   UNL     1       0.944  -8.212  22.575  0.00  0.00    +0.363 HD
ATOM     32  N   UNL     1       1.943  -9.568  25.235  0.00  0.00    -0.247 N 
ATOM     33  H   UNL     1       1.212 -10.270  25.181  0.00  0.00    +0.288 HD
ATOM     34  H   UNL     1       2.058  -9.199  26.172  0.00  0.00    +0.288 HD
ENDBRANCH  24  29
ENDBRANCH   3  19
TORSDOF 4
ENDMDL
