MODEL 1
REMARK VINA RESULT:      -4.3      0.000      0.000
REMARK  Name = 
REMARK  3 active torsions:
REMARK  status: ('A' for Active; 'I' for Inactive)
REMARK    1  A    between atoms: N_1  and  C_2
REMARK    2  A    between atoms: C_7  and  C_8
REMARK    3  A    between atoms: C_8  and  O_9
REMARK                            x       y       z     vdW  Elec       q    Type
REMARK                         _______ _______ _______ _____ _____    ______ ____
ROOT
ATOM      1  C   UNL     1       9.845  -0.184  22.292  0.00  0.00    +0.030 A 
ATOM      2  C   UNL     1       9.803  -0.462  23.672  0.00  0.00    -0.002 A 
ATOM      3  C   UNL     1      10.023   0.597  24.580  0.00  0.00    +0.008 A 
ATOM      4  C   UNL     1      10.219   1.903  24.137  0.00  0.00    +0.000 A 
ATOM      5  C   UNL     1      10.176   2.182  22.777  0.00  0.00    +0.002 A 
ATOM      6  C   UNL     1       9.966   1.147  21.866  0.00  0.00    +0.023 A 
ENDROOT
BRANCH   1   7
ATOM      7  N   UNL     1       9.561  -1.172  21.329  0.00  0.00    -0.358 N 
ATOM      8  H   UNL     1      10.049  -2.047  21.550  0.00  0.00    +0.142 HD
ATOM      9  H   UNL     1       9.777  -0.875  20.381  0.00  0.00    +0.142 HD
ENDBRANCH   1   7
BRANCH   2  10
ATOM     10  C   UNL     1       9.563  -1.828  24.279  0.00  0.00    +0.192 C 
BRANCH  10  11
ATOM     11  O   UNL     1      10.316  -2.883  23.689  0.00  0.00    -0.390 OA
ATOM     12  H   UNL     1      10.435  -2.615  22.757  0.00  0.00    +0.210 HD
ENDBRANCH  10  11
ENDBRANCH   2  10
TORSDOF 3
ENDMDL
MODEL 2
REMARK VINA RESULT:      -4.1      2.550      3.399
REMARK  Name = 
REMARK  3 active torsions:
REMARK  status: ('A' for Active; 'I' for Inactive)
REMARK    1  A    between atoms: N_1  and  C_2
REMARK    2  A    between atoms: C_7  and  C_8
REMARK    3  A    between atoms: C_8  and  O_9
REMARK                            x       y       z     vdW  Elec       q    Type
REMARK                         _______ _______ _______ _____ _____    ______ ____
ROOT
ATOM      1  C   UNL     1       9.405   0.950  22.002  0.00  0.00    +0.030 A 
ATOM      2  C   UNL     1      10.146   1.070  23.194  0.00  0.00    -0.002 A 
ATOM      3  C   UNL     1      10.594  -0.109  23.831  0.00  0.00    +0.008 A 
ATOM      4  C   UNL     1      10.367  -1.364  23.273  0.00  0.00    +0.000 A 
ATOM      5  C   UNL     1       9.709  -1.468  22.055  0.00  0.00    +0.002 A 
ATOM      6  C   UNL     1       9.254  -0.315  21.415  0.00  0.00    +0.023 A 
ENDROOT
BRANCH   1   7
ATOM      7  N   UNL     1       8.991   2.082  21.272  0.00  0.00    -0.358 N 
ATOM      8  H   UNL     1       9.215   1.973  20.277  0.00  0.00    +0.142 HD
ATOM      9  H   UNL     1       9.380   2.949  21.631  0.00  0.00    +0.142 HD
ENDBRANCH   1   7
BRANCH   2  10
ATOM     10  C   UNL     1      10.490   2.375  23.880  0.00  0.00    +0.192 C 
BRANCH  10  11
ATOM     11  O   UNL     1      10.956   3.401  23.008  0.00  0.00    -0.390 OA
ATOM     12  H   UNL     1      10.154   3.727  22.554  0.00  0.00    +0.210 HD
ENDBRANCH  10  11
ENDBRANCH   2  10
TORSDOF 3
ENDMDL
MODEL 3
REMARK VINA RESULT:      -4.1      2.590      3.915
REMARK  Name = 
REMARK  3 active torsions:
REMARK  status: ('A' for Active; 'I' for Inactive)
REMARK    1  A    between atoms: N_1  and  C_2
REMARK    2  A    between atoms: C_7  and  C_8
REMARK    3  A    between atoms: C_8  and  O_9
REMARK                            x       y       z     vdW  Elec       q    Type
REMARK                         _______ _______ _______ _____ _____    ______ ____
ROOT
ATOM      1  C   UNL     1      10.190  -0.059  23.972  0.00  0.00    +0.030 A 
ATOM      2  C   UNL     1       9.969   0.495  22.696  0.00  0.00    -0.002 A 
ATOM      3  C   UNL     1       9.523  -0.355  21.660  0.00  0.00    +0.008 A 
ATOM      4  C   UNL     1       9.246  -1.699  21.894  0.00  0.00    +0.000 A 
ATOM      5  C   UNL     1       9.387  -2.218  23.175  0.00  0.00    +0.002 A 
ATOM      6  C   UNL     1       9.832  -1.395  24.209  0.00  0.00    +0.023 A 
ENDROOT
BRANCH   1   7
ATOM      7  N   UNL     1      10.561   0.740  25.072  0.00  0.00    -0.358 N 
ATOM      8  H   UNL     1      11.564   0.953  25.044  0.00  0.00    +0.142 HD
ATOM      9  H   UNL     1      10.311   0.324  25.965  0.00  0.00    +0.142 HD
ENDBRANCH   1   7
BRANCH   2  10
ATOM     10  C   UNL     1      10.196   1.944  22.324  0.00  0.00    +0.192 C 
BRANCH  10  11
ATOM     11  O   UNL     1       9.156   2.530  21.545  0.00  0.00    -0.390 OA
ATOM     12  H   UNL     1       9.187   2.056  20.690  0.00  0.00    +0.210 HD
ENDBRANCH  10  11
ENDBRANCH   2  10
TORSDOF 3
ENDMDL
MODEL 4
REMARK VINA RESULT:      -4.0      1.643      2.305
REMARK  Name = 
REMARK  3 active torsions:
REMARK  status: ('A' for Active; 'I' for Inactive)
REMARK    1  A    between atoms: N_1  and  C_2
REMARK    2  A    between atoms: C_7  and  C_8
REMARK    3  A    between atoms: C_8  and  O_9
REMARK                            x       y       z     vdW  Elec       q    Type
REMARK                         _______ _______ _______ _____ _____    ______ ____
ROOT
ATOM      1  C   UNL     1       9.972   0.357  24.130  0.00  0.00    +0.030 A 
ATOM      2  C   UNL     1       9.518  -0.849  23.561  0.00  0.00    -0.002 A 
ATOM      3  C   UNL     1       9.197  -0.866  22.185  0.00  0.00    +0.008 A 
ATOM      4  C   UNL     1       9.376   0.260  21.385  0.00  0.00    +0.000 A 
ATOM      5  C   UNL     1       9.903   1.420  21.938  0.00  0.00    +0.002 A 
ATOM      6  C   UNL     1      10.220   1.457  23.296  0.00  0.00    +0.023 A 
ENDROOT
BRANCH   1   7
ATOM      7  N   UNL     1      10.383   0.432  25.476  0.00  0.00    -0.358 N 
ATOM      8  H   UNL     1      10.425   1.407  25.790  0.00  0.00    +0.142 HD
ATOM      9  H   UNL     1      11.270  -0.035  25.645  0.00  0.00    +0.142 HD
ENDBRANCH   1   7
BRANCH   2  10
ATOM     10  C   UNL     1       9.317  -2.147  24.313  0.00  0.00    +0.192 C 
BRANCH  10  11
ATOM     11  O   UNL     1      10.209  -3.194  23.942  0.00  0.00    -0.390 OA
ATOM     12  H   UNL     1      10.103  -3.872  24.639  0.00  0.00    +0.210 HD
ENDBRANCH  10  11
ENDBRANCH   2  10
TORSDOF 3
ENDMDL
MODEL 5
REMARK VINA RESULT:      -4.0      5.686      6.766
REMARK  Name = 
REMARK  3 active torsions:
REMARK  status: ('A' for Active; 'I' for Inactive)
REMARK    1  A    between atoms: N_1  and  C_2
REMARK    2  A    between atoms: C_7  and  C_8
REMARK    3  A    between atoms: C_8  and  O_9
REMARK                            x       y       z     vdW  Elec       q    Type
REMARK                         _______ _______ _______ _____ _____    ______ ____
ROOT
ATOM      1  C   UNL     1       7.282  -5.528  25.962  0.00  0.00    +0.030 A 
ATOM      2  C   UNL     1       8.082  -4.927  24.970  0.00  0.00    -0.002 A 
ATOM      3  C   UNL     1       7.499  -4.643  23.714  0.00  0.00    +0.008 A 
ATOM      4  C   UNL     1       6.151  -4.890  23.469  0.00  0.00    +0.000 A 
ATOM      5  C   UNL     1       5.350  -5.405  24.480  0.00  0.00    +0.002 A 
ATOM      6  C   UNL     1       5.910  -5.697  25.724  0.00  0.00    +0.023 A 
ENDROOT
BRANCH   1   7
ATOM      7  N   UNL     1       7.771  -5.771  27.260  0.00  0.00    -0.358 N 
ATOM      8  H   UNL     1       7.457  -5.041  27.909  0.00  0.00    +0.142 HD
ATOM      9  H   UNL     1       8.783  -5.862  27.291  0.00  0.00    +0.142 HD
ENDBRANCH   1   7
BRANCH   2  10
ATOM     10  C   UNL     1       9.545  -4.576  25.125  0.00  0.00    +0.192 C 
BRANCH  10  11
ATOM     11  O   UNL     1      10.352  -5.612  25.676  0.00  0.00    -0.390 OA
ATOM     12  H   UNL     1      10.021  -5.731  26.588  0.00  0.00    +0.210 HD
ENDBRANCH  10  11
ENDBRANCH   2  10
TORSDOF 3
ENDMDL
MODEL 6
REMARK VINA RESULT:      -3.8      3.336      4.203
REMARK  Name = 
REMARK  3 active torsions:
REMARK  status: ('A' for Active; 'I' for Inactive)
REMARK    1  A    between atoms: N_1  and  C_2
REMARK    2  A    between atoms: C_7  and  C_8
REMARK    3  A    between atoms: C_8  and  O_9
REMARK                            x       y       z     vdW  Elec       q    Type
REMARK                         _______ _______ _______ _____ _____    ______ ____
ROOT
ATOM      1  C   UNL     1       7.932  -4.144  23.524  0.00  0.00    +0.030 A 
ATOM      2  C   UNL     1       9.051  -3.857  24.330  0.00  0.00    -0.002 A 
ATOM      3  C   UNL     1       9.829  -2.718  24.022  0.00  0.00    +0.008 A 
ATOM      4  C   UNL     1       9.474  -1.856  22.988  0.00  0.00    +0.000 A 
ATOM      5  C   UNL     1       8.322  -2.101  22.253  0.00  0.00    +0.002 A 
ATOM      6  C   UNL     1       7.545  -3.224  22.537  0.00  0.00    +0.023 A 
ENDROOT
BRANCH   1   7
ATOM      7  N   UNL     1       7.066  -5.217  23.814  0.00  0.00    -0.358 N 
ATOM      8  H   UNL     1       6.295  -5.255  23.139  0.00  0.00    +0.142 HD
ATOM      9  H   UNL     1       6.706  -5.189  24.764  0.00  0.00    +0.142 HD
ENDBRANCH   1   7
BRANCH   2  10
ATOM     10  C   UNL     1       9.518  -4.692  25.502  0.00  0.00    +0.192 C 
BRANCH  10  11
ATOM     11  O   UNL     1       9.883  -6.030  25.174  0.00  0.00    -0.390 OA
ATOM     12  H   UNL     1       9.326  -6.590  25.749  0.00  0.00    +0.210 HD
ENDBRANCH  10  11
ENDBRANCH   2  10
TORSDOF 3
ENDMDL
MODEL 7
REMARK VINA RESULT:      -3.8      4.044      5.125
REMARK  Name = 
REMARK  3 active torsions:
REMARK  status: ('A' for Active; 'I' for Inactive)
REMARK    1  A    between atoms: N_1  and  C_2
REMARK    2  A    between atoms: C_7  and  C_8
REMARK    3  A    between atoms: C_8  and  O_9
REMARK                            x       y       z     vdW  Elec       q    Type
REMARK                         _______ _______ _______ _____ _____    ______ ____
ROOT
ATOM      1  C   UNL     1       8.629  -3.398  23.730  0.00  0.00    +0.030 A 
ATOM      2  C   UNL     1       8.184  -4.559  24.393  0.00  0.00    -0.002 A 
ATOM      3  C   UNL     1       6.966  -5.144  23.981  0.00  0.00    +0.008 A 
ATOM      4  C   UNL     1       6.241  -4.632  22.908  0.00  0.00    +0.000 A 
ATOM      5  C   UNL     1       6.730  -3.536  22.208  0.00  0.00    +0.002 A 
ATOM      6  C   UNL     1       7.928  -2.942  22.604  0.00  0.00    +0.023 A 
ENDROOT
BRANCH   1   7
ATOM      7  N   UNL     1       9.870  -2.802  24.034  0.00  0.00    -0.358 N 
ATOM      8  H   UNL     1       9.735  -1.912  24.525  0.00  0.00    +0.142 HD
ATOM      9  H   UNL     1      10.456  -2.670  23.214  0.00  0.00    +0.142 HD
ENDBRANCH   1   7
BRANCH   2  10
ATOM     10  C   UNL     1       8.897  -5.233  25.545  0.00  0.00    +0.192 C 
BRANCH  10  11
ATOM     11  O   UNL     1      10.247  -5.601  25.276  0.00  0.00    -0.390 OA
ATOM     12  H   UNL     1      10.190  -6.497  24.890  0.00  0.00    +0.210 HD
ENDBRANCH  10  11
ENDBRANCH   2  10
TORSDOF 3
ENDMDL
MODEL 8
REMARK VINA RESULT:      -3.8      1.657      2.434
REMARK  Name = 
REMARK  3 active torsions:
REMARK  status: ('A' for Active; 'I' for Inactive)
REMARK    1  A    between atoms: N_1  and  C_2
REMARK    2  A    between atoms: C_7  and  C_8
REMARK    3  A    between atoms: C_8  and  O_9
REMARK                            x       y       z     vdW  Elec       q    Type
REMARK                         _______ _______ _______ _____ _____    ______ ____
ROOT
ATOM      1  C   UNL     1       9.561   0.202  23.835  0.00  0.00    +0.030 A 
ATOM      2  C   UNL     1       9.410   0.452  22.457  0.00  0.00    -0.002 A 
ATOM      3  C   UNL     1       9.221   1.786  22.031  0.00  0.00    +0.008 A 
ATOM      4  C   UNL     1       9.241   2.845  22.935  0.00  0.00    +0.000 A 
ATOM      5  C   UNL     1       9.474   2.596  24.282  0.00  0.00    +0.002 A 
ATOM      6  C   UNL     1       9.657   1.285  24.721  0.00  0.00    +0.023 A 
ENDROOT
BRANCH   1   7
ATOM      7  N   UNL     1       9.829  -1.091  24.327  0.00  0.00    -0.358 N 
ATOM      8  H   UNL     1      10.628  -1.508  23.837  0.00  0.00    +0.142 HD
ATOM      9  H   UNL     1       9.022  -1.707  24.279  0.00  0.00    +0.142 HD
ENDBRANCH   1   7
BRANCH   2  10
ATOM     10  C   UNL     1       9.407  -0.604  21.374  0.00  0.00    +0.192 C 
BRANCH  10  11
ATOM     11  O   UNL     1      10.378  -1.633  21.542  0.00  0.00    -0.390 OA
ATOM     12  H   UNL     1      10.189  -2.016  22.421  0.00  0.00    +0.210 HD
ENDBRANCH  10  11
ENDBRANCH   2  10
TORSDOF 3
ENDMDL
MODEL 9
REMARK VINA RESULT:      -3.8      2.843      3.848
REMARK  Name = 
REMARK  3 active torsions:
REMARK  status: ('A' for Active; 'I' for Inactive)
REMARK    1  A    between atoms: N_1  and  C_2
REMARK    2  A    between atoms: C_7  and  C_8
REMARK    3  A    between atoms: C_8  and  O_9
REMARK                            x       y       z     vdW  Elec       q    Type
REMARK                         _______ _______ _______ _____ _____    ______ ____
ROOT
ATOM      1  C   UNL     1       7.752  -0.514  22.996  0.00  0.00    +0.030 A 
ATOM      2  C   UNL     1       8.741   0.129  22.226  0.00  0.00    -0.002 A 
ATOM      3  C   UNL     1      10.015  -0.476  22.126  0.00  0.00    +0.008 A 
ATOM      4  C   UNL     1      10.281  -1.707  22.719  0.00  0.00    +0.000 A 
ATOM      5  C   UNL     1       9.274  -2.373  23.405  0.00  0.00    +0.002 A 
ATOM      6  C   UNL     1       8.013  -1.789  23.520  0.00  0.00    +0.023 A 
ENDROOT
BRANCH   1   7
ATOM      7  N   UNL     1       6.438  -0.012  23.080  0.00  0.00    -0.358 N 
ATOM      8  H   UNL     1       6.361   0.889  22.596  0.00  0.00    +0.142 HD
ATOM      9  H   UNL     1       6.107   0.070  24.038  0.00  0.00    +0.142 HD
ENDBRANCH   1   7
BRANCH   2  10
ATOM     10  C   UNL     1       8.565   1.447  21.504  0.00  0.00    +0.192 C 
BRANCH  10  11
ATOM     11  O   UNL     1       9.737   2.255  21.444  0.00  0.00    -0.390 OA
ATOM     12  H   UNL     1      10.385   1.799  22.016  0.00  0.00    +0.210 HD
ENDBRANCH  10  11
ENDBRANCH   2  10
TORSDOF 3
ENDMDL
