MODEL 1
REMARK VINA RESULT:      -6.6      0.000      0.000
REMARK  Name = 
REMARK  13 active torsions:
REMARK  status: ('A' for Active; 'I' for Inactive)
REMARK    1  A    between atoms: C_2  and  N_3
REMARK    2  A    between atoms: C_2  and  C_26
REMARK    3  A    between atoms: C_2  and  C_29
REMARK    4  A    between atoms: C_4  and  C_6
REMARK    5  A    between atoms: C_6  and  N_7
REMARK    6  A    between atoms: C_10  and  N_11
REMARK    7  A    between atoms: N_11  and  S_12
REMARK    8  A    between atoms: S_12  and  N_15
REMARK    9  A    between atoms: N_15  and  C_16
REMARK   10  A    between atoms: C_19  and  C_20
REMARK   11  A    between atoms: C_26  and  C_27
REMARK   12  A    between atoms: C_26  and  C_28
REMARK   13  A    between atoms: C_29  and  C_31
REMARK                            x       y       z     vdW  Elec       q    Type
REMARK                         _______ _______ _______ _____ _____    ______ ____
ROOT
ATOM      1  N   UNL     1       7.373  -0.505  23.147  0.00  0.00    -0.298 N 
ATOM      2  C   UNL     1       8.062  -1.581  22.579  0.00  0.00    +0.053 A 
ATOM      3  C   UNL     1       9.159  -1.366  21.832  0.00  0.00    +0.028 A 
ATOM      4  C   UNL     1       9.671  -0.037  21.614  0.00  0.00    +0.032 A 
ATOM      5  C   UNL     1       9.060   1.005  22.192  0.00  0.00    +0.113 A 
ATOM      6  C   UNL     1       7.806   0.821  22.988  0.00  0.00    +0.275 A 
ATOM      7  O   UNL     1       7.193   1.799  23.416  0.00  0.00    -0.266 OA
ENDROOT
BRANCH   2   8
ATOM      8  C   UNL     1       7.634  -2.988  22.708  0.00  0.00    -0.001 A 
ATOM      9  C   UNL     1       6.744  -3.528  21.767  0.00  0.00    +0.010 A 
ATOM     10  C   UNL     1       6.472  -4.897  21.744  0.00  0.00    +0.001 A 
ATOM     11  C   UNL     1       7.093  -5.743  22.657  0.00  0.00    +0.000 A 
ATOM     12  C   UNL     1       7.966  -5.219  23.611  0.00  0.00    +0.001 A 
ATOM     13  C   UNL     1       8.236  -3.848  23.640  0.00  0.00    +0.010 A 
ENDBRANCH   2   8
BRANCH   5  14
ATOM     14  N   UNL     1       9.647   2.299  22.067  0.00  0.00    -0.201 N 
ATOM     15  H   UNL     1      10.283   2.396  21.273  0.00  0.00    +0.175 HD
BRANCH  14  16
ATOM     16  S   UNL     1      10.509   2.754  23.436  0.00  0.00    +0.109 S 
ATOM     17  O   UNL     1      11.498   3.704  22.995  0.00  0.00    -0.138 OA
ATOM     18  O   UNL     1      10.849   1.595  24.231  0.00  0.00    -0.138 OA
BRANCH  16  19
ATOM     19  N   UNL     1       9.302   3.571  24.250  0.00  0.00    -0.180 NA
ATOM     20  H   UNL     1       9.538   3.575  25.244  0.00  0.00    +0.149 HD
ATOM     21  C   UNL     1       9.093   4.943  23.751  0.00  0.00    +0.129 C 
ENDBRANCH  16  19
ENDBRANCH  14  16
ENDBRANCH   5  14
BRANCH   1  22
ATOM     22  C   UNL     1       6.157  -0.689  23.944  0.00  0.00    +0.221 C 
BRANCH  22  25
ATOM     23  N   UNL     1       5.499  -2.127  25.841  0.00  0.00    -0.304 N 
ATOM     24  H   UNL     1       4.575  -2.011  25.439  0.00  0.00    +0.149 HD
ATOM     25  C   UNL     1       6.401  -1.183  25.379  0.00  0.00    +0.233 C 
ATOM     26  O   UNL     1       7.409  -0.844  25.990  0.00  0.00    -0.274 OA
BRANCH  23  27
ATOM     27  C   UNL     1       5.558  -2.790  27.165  0.00  0.00    +0.151 C 
BRANCH  27  28
ATOM     28  C   UNL     1       4.243  -2.648  27.981  0.00  0.00    +0.011 C 
ATOM     29  C   UNL     1       3.954  -1.173  28.323  0.00  0.00    +0.009 C 
ATOM     30  C   UNL     1       4.205  -3.421  29.300  0.00  0.00    +0.009 C 
ENDBRANCH  27  28
BRANCH  27  31
ATOM     31  C   UNL     1       6.106  -4.214  26.929  0.00  0.00    +0.256 C 
ATOM     32  O   UNL     1       7.151  -4.602  27.467  0.00  0.00    -0.286 OA
BRANCH  31  33
ATOM     33  C   UNL     1       5.242  -5.162  26.116  0.00  0.00    +0.453 C 
ATOM     34  F   UNL     1       4.055  -5.430  26.731  0.00  0.00    -0.163 F 
ATOM     35  F   UNL     1       5.844  -6.362  25.900  0.00  0.00    -0.163 F 
ATOM     36  F   UNL     1       4.901  -4.673  24.892  0.00  0.00    -0.163 F 
ENDBRANCH  31  33
ENDBRANCH  27  31
ENDBRANCH  23  27
ENDBRANCH  22  25
ENDBRANCH   1  22
TORSDOF 10
ENDMDL
MODEL 2
REMARK VINA RESULT:      -6.6      4.368      7.599
REMARK  Name = 
REMARK  13 active torsions:
REMARK  status: ('A' for Active; 'I' for Inactive)
REMARK    1  A    between atoms: C_2  and  N_3
REMARK    2  A    between atoms: C_2  and  C_26
REMARK    3  A    between atoms: C_2  and  C_29
REMARK    4  A    between atoms: C_4  and  C_6
REMARK    5  A    between atoms: C_6  and  N_7
REMARK    6  A    between atoms: C_10  and  N_11
REMARK    7  A    between atoms: N_11  and  S_12
REMARK    8  A    between atoms: S_12  and  N_15
REMARK    9  A    between atoms: N_15  and  C_16
REMARK   10  A    between atoms: C_19  and  C_20
REMARK   11  A    between atoms: C_26  and  C_27
REMARK   12  A    between atoms: C_26  and  C_28
REMARK   13  A    between atoms: C_29  and  C_31
REMARK                            x       y       z     vdW  Elec       q    Type
REMARK                         _______ _______ _______ _____ _____    ______ ____
ROOT
ATOM      1  N   UNL     1       6.895  -3.309  24.826  0.00  0.00    -0.298 N 
ATOM      2  C   UNL     1       8.245  -3.215  25.176  0.00  0.00    +0.053 A 
ATOM      3  C   UNL     1       8.786  -4.093  26.039  0.00  0.00    +0.028 A 
ATOM      4  C   UNL     1       8.008  -5.164  26.607  0.00  0.00    +0.032 A 
ATOM      5  C   UNL     1       6.727  -5.308  26.246  0.00  0.00    +0.113 A 
ATOM      6  C   UNL     1       6.067  -4.325  25.331  0.00  0.00    +0.275 A 
ATOM      7  O   UNL     1       4.860  -4.404  25.099  0.00  0.00    -0.266 OA
ENDROOT
BRANCH   2   8
ATOM      8  C   UNL     1       9.147  -2.157  24.681  0.00  0.00    -0.001 A 
ATOM      9  C   UNL     1       9.575  -2.183  23.345  0.00  0.00    +0.010 A 
ATOM     10  C   UNL     1      10.265  -1.102  22.794  0.00  0.00    +0.001 A 
ATOM     11  C   UNL     1      10.527   0.023  23.571  0.00  0.00    +0.000 A 
ATOM     12  C   UNL     1      10.125   0.056  24.905  0.00  0.00    +0.001 A 
ATOM     13  C   UNL     1       9.439  -1.027  25.462  0.00  0.00    +0.010 A 
ENDBRANCH   2   8
BRANCH   5  14
ATOM     14  N   UNL     1       6.004  -6.441  26.723  0.00  0.00    -0.201 N 
ATOM     15  H   UNL     1       5.097  -6.579  26.274  0.00  0.00    +0.175 HD
BRANCH  14  16
ATOM     16  S   UNL     1       5.720  -6.378  28.378  0.00  0.00    +0.109 S 
ATOM     17  O   UNL     1       5.383  -5.011  28.680  0.00  0.00    -0.138 OA
ATOM     18  O   UNL     1       6.745  -7.101  29.098  0.00  0.00    -0.138 OA
BRANCH  16  19
ATOM     19  N   UNL     1       4.331  -7.303  28.444  0.00  0.00    -0.180 NA
ATOM     20  H   UNL     1       4.605  -8.287  28.423  0.00  0.00    +0.149 HD
ATOM     21  C   UNL     1       3.498  -7.013  29.627  0.00  0.00    +0.129 C 
ENDBRANCH  16  19
ENDBRANCH  14  16
ENDBRANCH   5  14
BRANCH   1  22
ATOM     22  C   UNL     1       6.255  -2.359  23.913  0.00  0.00    +0.221 C 
BRANCH  22  25
ATOM     23  N   UNL     1       6.452   0.093  24.132  0.00  0.00    -0.304 N 
ATOM     24  H   UNL     1       7.410  -0.090  23.854  0.00  0.00    +0.149 HD
ATOM     25  C   UNL     1       5.799  -1.047  24.571  0.00  0.00    +0.233 C 
ATOM     26  O   UNL     1       4.834  -1.033  25.327  0.00  0.00    -0.274 OA
BRANCH  23  27
ATOM     27  C   UNL     1       6.152   1.475  24.576  0.00  0.00    +0.151 C 
BRANCH  27  28
ATOM     28  C   UNL     1       7.120   1.989  25.677  0.00  0.00    +0.011 C 
ATOM     29  C   UNL     1       6.874   1.270  27.018  0.00  0.00    +0.009 C 
ATOM     30  C   UNL     1       7.049   3.490  25.963  0.00  0.00    +0.009 C 
ENDBRANCH  27  28
BRANCH  27  31
ATOM     31  C   UNL     1       5.996   2.332  23.301  0.00  0.00    +0.256 C 
ATOM     32  O   UNL     1       4.937   2.918  23.041  0.00  0.00    -0.286 OA
BRANCH  31  33
ATOM     33  C   UNL     1       7.236   2.532  22.446  0.00  0.00    +0.453 C 
ATOM     34  F   UNL     1       7.229   3.736  21.806  0.00  0.00    -0.163 F 
ATOM     35  F   UNL     1       7.363   1.583  21.480  0.00  0.00    -0.163 F 
ATOM     36  F   UNL     1       8.395   2.519  23.158  0.00  0.00    -0.163 F 
ENDBRANCH  31  33
ENDBRANCH  27  31
ENDBRANCH  23  27
ENDBRANCH  22  25
ENDBRANCH   1  22
TORSDOF 10
ENDMDL
MODEL 3
REMARK VINA RESULT:      -6.5      4.455      7.562
REMARK  Name = 
REMARK  13 active torsions:
REMARK  status: ('A' for Active; 'I' for Inactive)
REMARK    1  A    between atoms: C_2  and  N_3
REMARK    2  A    between atoms: C_2  and  C_26
REMARK    3  A    between atoms: C_2  and  C_29
REMARK    4  A    between atoms: C_4  and  C_6
REMARK    5  A    between atoms: C_6  and  N_7
REMARK    6  A    between atoms: C_10  and  N_11
REMARK    7  A    between atoms: N_11  and  S_12
REMARK    8  A    between atoms: S_12  and  N_15
REMARK    9  A    between atoms: N_15  and  C_16
REMARK   10  A    between atoms: C_19  and  C_20
REMARK   11  A    between atoms: C_26  and  C_27
REMARK   12  A    between atoms: C_26  and  C_28
REMARK   13  A    between atoms: C_29  and  C_31
REMARK                            x       y       z     vdW  Elec       q    Type
REMARK                         _______ _______ _______ _____ _____    ______ ____
ROOT
ATOM      1  N   UNL     1       7.389  -1.644  23.775  0.00  0.00    -0.298 N 
ATOM      2  C   UNL     1       8.767  -1.484  23.951  0.00  0.00    +0.053 A 
ATOM      3  C   UNL     1       9.493  -2.451  24.540  0.00  0.00    +0.028 A 
ATOM      4  C   UNL     1       8.888  -3.682  24.981  0.00  0.00    +0.032 A 
ATOM      5  C   UNL     1       7.580  -3.882  24.773  0.00  0.00    +0.113 A 
ATOM      6  C   UNL     1       6.721  -2.814  24.172  0.00  0.00    +0.275 A 
ATOM      7  O   UNL     1       5.502  -2.968  24.093  0.00  0.00    -0.266 OA
ENDROOT
BRANCH   2   8
ATOM      8  C   UNL     1       9.506  -0.267  23.563  0.00  0.00    -0.001 A 
ATOM      9  C   UNL     1       9.533   0.124  22.216  0.00  0.00    +0.010 A 
ATOM     10  C   UNL     1      10.053   1.364  21.842  0.00  0.00    +0.001 A 
ATOM     11  C   UNL     1      10.545   2.232  22.812  0.00  0.00    +0.000 A 
ATOM     12  C   UNL     1      10.543   1.850  24.153  0.00  0.00    +0.001 A 
ATOM     13  C   UNL     1      10.028   0.606  24.531  0.00  0.00    +0.010 A 
ENDBRANCH   2   8
BRANCH   5  14
ATOM     14  N   UNL     1       7.020  -5.151  25.105  0.00  0.00    -0.201 N 
ATOM     15  H   UNL     1       6.153  -5.369  24.611  0.00  0.00    +0.175 HD
BRANCH  14  16
ATOM     16  S   UNL     1       6.693  -5.304  26.747  0.00  0.00    +0.109 S 
ATOM     17  O   UNL     1       5.991  -4.108  27.134  0.00  0.00    -0.138 OA
ATOM     18  O   UNL     1       7.860  -5.782  27.455  0.00  0.00    -0.138 OA
BRANCH  16  19
ATOM     19  N   UNL     1       5.606  -6.570  26.683  0.00  0.00    -0.180 NA
ATOM     20  H   UNL     1       6.121  -7.416  26.429  0.00  0.00    +0.149 HD
ATOM     21  C   UNL     1       4.865  -6.761  27.944  0.00  0.00    +0.129 C 
ENDBRANCH  16  19
ENDBRANCH  14  16
ENDBRANCH   5  14
BRANCH   1  22
ATOM     22  C   UNL     1       6.553  -0.607  23.165  0.00  0.00    +0.221 C 
BRANCH  22  25
ATOM     23  N   UNL     1       6.714   1.752  23.879  0.00  0.00    -0.304 N 
ATOM     24  H   UNL     1       7.646   1.671  23.486  0.00  0.00    +0.149 HD
ATOM     25  C   UNL     1       6.132   0.520  24.122  0.00  0.00    +0.233 C 
ATOM     26  O   UNL     1       5.242   0.335  24.946  0.00  0.00    -0.274 OA
BRANCH  23  27
ATOM     27  C   UNL     1       6.427   2.998  24.629  0.00  0.00    +0.151 C 
BRANCH  27  28
ATOM     28  C   UNL     1       7.455   3.285  25.758  0.00  0.00    +0.011 C 
ATOM     29  C   UNL     1       7.147   2.454  27.019  0.00  0.00    +0.009 C 
ATOM     30  C   UNL     1       7.545   4.745  26.205  0.00  0.00    +0.009 C 
ENDBRANCH  27  28
BRANCH  27  31
ATOM     31  C   UNL     1       6.184   4.106  23.581  0.00  0.00    +0.256 C 
ATOM     32  O   UNL     1       5.189   4.842  23.637  0.00  0.00    -0.286 OA
BRANCH  31  33
ATOM     33  C   UNL     1       7.279   4.341  22.556  0.00  0.00    +0.453 C 
ATOM     34  F   UNL     1       7.362   3.326  21.650  0.00  0.00    -0.163 F 
ATOM     35  F   UNL     1       8.510   4.454  23.123  0.00  0.00    -0.163 F 
ATOM     36  F   UNL     1       7.092   5.464  21.809  0.00  0.00    -0.163 F 
ENDBRANCH  31  33
ENDBRANCH  27  31
ENDBRANCH  23  27
ENDBRANCH  22  25
ENDBRANCH   1  22
TORSDOF 10
ENDMDL
MODEL 4
REMARK VINA RESULT:      -6.4      5.011      8.916
REMARK  Name = 
REMARK  13 active torsions:
REMARK  status: ('A' for Active; 'I' for Inactive)
REMARK    1  A    between atoms: C_2  and  N_3
REMARK    2  A    between atoms: C_2  and  C_26
REMARK    3  A    between atoms: C_2  and  C_29
REMARK    4  A    between atoms: C_4  and  C_6
REMARK    5  A    between atoms: C_6  and  N_7
REMARK    6  A    between atoms: C_10  and  N_11
REMARK    7  A    between atoms: N_11  and  S_12
REMARK    8  A    between atoms: S_12  and  N_15
REMARK    9  A    between atoms: N_15  and  C_16
REMARK   10  A    between atoms: C_19  and  C_20
REMARK   11  A    between atoms: C_26  and  C_27
REMARK   12  A    between atoms: C_26  and  C_28
REMARK   13  A    between atoms: C_29  and  C_31
REMARK                            x       y       z     vdW  Elec       q    Type
REMARK                         _______ _______ _______ _____ _____    ______ ____
ROOT
ATOM      1  N   UNL     1       8.861   0.850  24.185  0.00  0.00    -0.298 N 
ATOM      2  C   UNL     1       7.515   1.187  24.358  0.00  0.00    +0.053 A 
ATOM      3  C   UNL     1       6.548   0.320  24.012  0.00  0.00    +0.028 A 
ATOM      4  C   UNL     1       6.861  -0.982  23.481  0.00  0.00    +0.032 A 
ATOM      5  C   UNL     1       8.143  -1.350  23.357  0.00  0.00    +0.113 A 
ATOM      6  C   UNL     1       9.254  -0.400  23.678  0.00  0.00    +0.275 A 
ATOM      7  O   UNL     1      10.423  -0.711  23.451  0.00  0.00    -0.266 OA
ENDROOT
BRANCH   2   8
ATOM      8  C   UNL     1       7.058   2.493  24.873  0.00  0.00    -0.001 A 
ATOM      9  C   UNL     1       6.322   3.345  24.036  0.00  0.00    +0.010 A 
ATOM     10  C   UNL     1       5.710   4.492  24.544  0.00  0.00    +0.001 A 
ATOM     11  C   UNL     1       5.821   4.797  25.897  0.00  0.00    +0.000 A 
ATOM     12  C   UNL     1       6.565   3.970  26.738  0.00  0.00    +0.001 A 
ATOM     13  C   UNL     1       7.184   2.823  26.231  0.00  0.00    +0.010 A 
ENDBRANCH   2   8
BRANCH   5  14
ATOM     14  N   UNL     1       8.436  -2.683  22.944  0.00  0.00    -0.201 N 
ATOM     15  H   UNL     1       7.727  -3.100  22.339  0.00  0.00    +0.175 HD
BRANCH  14  16
ATOM     16  S   UNL     1       8.644  -3.732  24.241  0.00  0.00    +0.109 S 
ATOM     17  O   UNL     1       7.846  -3.207  25.318  0.00  0.00    -0.138 OA
ATOM     18  O   UNL     1      10.041  -4.069  24.404  0.00  0.00    -0.138 OA
BRANCH  16  19
ATOM     19  N   UNL     1       7.884  -5.081  23.615  0.00  0.00    -0.180 NA
ATOM     20  H   UNL     1       8.342  -5.909  24.001  0.00  0.00    +0.149 HD
ATOM     21  C   UNL     1       6.434  -5.105  23.884  0.00  0.00    +0.129 C 
ENDBRANCH  16  19
ENDBRANCH  14  16
ENDBRANCH   5  14
BRANCH   1  22
ATOM     22  C   UNL     1       9.948   1.773  24.521  0.00  0.00    +0.221 C 
BRANCH  22  25
ATOM     23  N   UNL     1      10.283   4.186  24.116  0.00  0.00    -0.304 N 
ATOM     24  H   UNL     1       9.789   4.269  24.999  0.00  0.00    +0.149 HD
ATOM     25  C   UNL     1      10.125   2.939  23.535  0.00  0.00    +0.233 C 
ATOM     26  O   UNL     1      10.246   2.724  22.333  0.00  0.00    -0.274 OA
BRANCH  23  27
ATOM     27  C   UNL     1      10.522   5.450  23.379  0.00  0.00    +0.151 C 
BRANCH  27  28
ATOM     28  C   UNL     1       9.411   6.512  23.605  0.00  0.00    +0.011 C 
ATOM     29  C   UNL     1       8.901   6.486  25.059  0.00  0.00    +0.009 C 
ATOM     30  C   UNL     1       8.182   6.375  22.705  0.00  0.00    +0.009 C 
ENDBRANCH  27  28
BRANCH  27  31
ATOM     31  C   UNL     1      11.981   5.865  23.665  0.00  0.00    +0.256 C 
ATOM     32  O   UNL     1      12.298   6.431  24.720  0.00  0.00    -0.286 OA
BRANCH  31  33
ATOM     33  C   UNL     1      13.034   5.435  22.658  0.00  0.00    +0.453 C 
ATOM     34  F   UNL     1      13.956   4.594  23.207  0.00  0.00    -0.163 F 
ATOM     35  F   UNL     1      13.727   6.487  22.145  0.00  0.00    -0.163 F 
ATOM     36  F   UNL     1      12.523   4.752  21.597  0.00  0.00    -0.163 F 
ENDBRANCH  31  33
ENDBRANCH  27  31
ENDBRANCH  23  27
ENDBRANCH  22  25
ENDBRANCH   1  22
TORSDOF 10
ENDMDL
MODEL 5
REMARK VINA RESULT:      -6.4      1.477      1.618
REMARK  Name = 
REMARK  13 active torsions:
REMARK  status: ('A' for Active; 'I' for Inactive)
REMARK    1  A    between atoms: C_2  and  N_3
REMARK    2  A    between atoms: C_2  and  C_26
REMARK    3  A    between atoms: C_2  and  C_29
REMARK    4  A    between atoms: C_4  and  C_6
REMARK    5  A    between atoms: C_6  and  N_7
REMARK    6  A    between atoms: C_10  and  N_11
REMARK    7  A    between atoms: N_11  and  S_12
REMARK    8  A    between atoms: S_12  and  N_15
REMARK    9  A    between atoms: N_15  and  C_16
REMARK   10  A    between atoms: C_19  and  C_20
REMARK   11  A    between atoms: C_26  and  C_27
REMARK   12  A    between atoms: C_26  and  C_28
REMARK   13  A    between atoms: C_29  and  C_31
REMARK                            x       y       z     vdW  Elec       q    Type
REMARK                         _______ _______ _______ _____ _____    ______ ____
ROOT
ATOM      1  N   UNL     1       7.688  -1.158  24.267  0.00  0.00    -0.298 N 
ATOM      2  C   UNL     1       8.264  -2.108  23.419  0.00  0.00    +0.053 A 
ATOM      3  C   UNL     1       9.481  -1.895  22.887  0.00  0.00    +0.028 A 
ATOM      4  C   UNL     1      10.235  -0.706  23.191  0.00  0.00    +0.032 A 
ATOM      5  C   UNL     1       9.728   0.193  24.044  0.00  0.00    +0.113 A 
ATOM      6  C   UNL     1       8.357   0.026  24.618  0.00  0.00    +0.275 A 
ATOM      7  O   UNL     1       7.859   0.915  25.309  0.00  0.00    -0.266 OA
ENDROOT
BRANCH   2   8
ATOM      8  C   UNL     1       7.592  -3.358  23.012  0.00  0.00    -0.001 A 
ATOM      9  C   UNL     1       6.654  -3.329  21.969  0.00  0.00    +0.010 A 
ATOM     10  C   UNL     1       6.147  -4.513  21.431  0.00  0.00    +0.001 A 
ATOM     11  C   UNL     1       6.578  -5.741  21.924  0.00  0.00    +0.000 A 
ATOM     12  C   UNL     1       7.495  -5.785  22.974  0.00  0.00    +0.001 A 
ATOM     13  C   UNL     1       8.001  -4.601  23.518  0.00  0.00    +0.010 A 
ENDBRANCH   2   8
BRANCH   5  14
ATOM     14  N   UNL     1      10.536   1.305  24.427  0.00  0.00    -0.201 N 
ATOM     15  H   UNL     1      10.383   1.623  25.386  0.00  0.00    +0.175 HD
BRANCH  14  16
ATOM     16  S   UNL     1      10.313   2.641  23.432  0.00  0.00    +0.109 S 
ATOM     17  O   UNL     1       9.714   2.147  22.219  0.00  0.00    -0.138 OA
ATOM     18  O   UNL     1      11.494   3.476  23.430  0.00  0.00    -0.138 OA
BRANCH  16  19
ATOM     19  N   UNL     1       9.148   3.442  24.322  0.00  0.00    -0.180 NA
ATOM     20  H   UNL     1       9.613   4.174  24.863  0.00  0.00    +0.149 HD
ATOM     21  C   UNL     1       8.070   4.005  23.488  0.00  0.00    +0.129 C 
ENDBRANCH  16  19
ENDBRANCH  14  16
ENDBRANCH   5  14
BRANCH   1  22
ATOM     22  C   UNL     1       6.354  -1.334  24.846  0.00  0.00    +0.221 C 
BRANCH  22  25
ATOM     23  N   UNL     1       5.157  -3.202  25.933  0.00  0.00    -0.304 N 
ATOM     24  H   UNL     1       4.344  -2.733  25.548  0.00  0.00    +0.149 HD
ATOM     25  C   UNL     1       6.275  -2.385  25.965  0.00  0.00    +0.233 C 
ATOM     26  O   UNL     1       7.218  -2.546  26.734  0.00  0.00    -0.274 OA
BRANCH  23  27
ATOM     27  C   UNL     1       4.886  -4.318  26.869  0.00  0.00    +0.151 C 
BRANCH  27  28
ATOM     28  C   UNL     1       3.473  -4.250  27.512  0.00  0.00    +0.011 C 
ATOM     29  C   UNL     1       2.611  -3.155  26.854  0.00  0.00    +0.009 C 
ATOM     30  C   UNL     1       3.452  -3.981  29.018  0.00  0.00    +0.009 C 
ENDBRANCH  27  28
BRANCH  27  31
ATOM     31  C   UNL     1       5.280  -5.621  26.139  0.00  0.00    +0.256 C 
ATOM     32  O   UNL     1       6.248  -6.300  26.505  0.00  0.00    -0.286 OA
BRANCH  31  33
ATOM     33  C   UNL     1       4.354  -6.103  25.036  0.00  0.00    +0.453 C 
ATOM     34  F   UNL     1       3.122  -6.442  25.511  0.00  0.00    -0.163 F 
ATOM     35  F   UNL     1       4.835  -7.201  24.393  0.00  0.00    -0.163 F 
ATOM     36  F   UNL     1       4.115  -5.166  24.078  0.00  0.00    -0.163 F 
ENDBRANCH  31  33
ENDBRANCH  27  31
ENDBRANCH  23  27
ENDBRANCH  22  25
ENDBRANCH   1  22
TORSDOF 10
ENDMDL
MODEL 6
REMARK VINA RESULT:      -6.3      4.166      7.703
REMARK  Name = 
REMARK  13 active torsions:
REMARK  status: ('A' for Active; 'I' for Inactive)
REMARK    1  A    between atoms: C_2  and  N_3
REMARK    2  A    between atoms: C_2  and  C_26
REMARK    3  A    between atoms: C_2  and  C_29
REMARK    4  A    between atoms: C_4  and  C_6
REMARK    5  A    between atoms: C_6  and  N_7
REMARK    6  A    between atoms: C_10  and  N_11
REMARK    7  A    between atoms: N_11  and  S_12
REMARK    8  A    between atoms: S_12  and  N_15
REMARK    9  A    between atoms: N_15  and  C_16
REMARK   10  A    between atoms: C_19  and  C_20
REMARK   11  A    between atoms: C_26  and  C_27
REMARK   12  A    between atoms: C_26  and  C_28
REMARK   13  A    between atoms: C_29  and  C_31
REMARK                            x       y       z     vdW  Elec       q    Type
REMARK                         _______ _______ _______ _____ _____    ______ ____
ROOT
ATOM      1  N   UNL     1       6.281  -3.214  25.165  0.00  0.00    -0.298 N 
ATOM      2  C   UNL     1       6.874  -3.634  23.971  0.00  0.00    +0.053 A 
ATOM      3  C   UNL     1       6.383  -4.693  23.304  0.00  0.00    +0.028 A 
ATOM      4  C   UNL     1       5.226  -5.408  23.778  0.00  0.00    +0.032 A 
ATOM      5  C   UNL     1       4.607  -4.992  24.890  0.00  0.00    +0.113 A 
ATOM      6  C   UNL     1       5.148  -3.853  25.695  0.00  0.00    +0.275 A 
ATOM      7  O   UNL     1       4.636  -3.555  26.774  0.00  0.00    -0.266 OA
ENDROOT
BRANCH   2   8
ATOM      8  C   UNL     1       8.074  -3.003  23.386  0.00  0.00    -0.001 A 
ATOM      9  C   UNL     1       7.943  -2.203  22.240  0.00  0.00    +0.010 A 
ATOM     10  C   UNL     1       9.015  -1.438  21.777  0.00  0.00    +0.001 A 
ATOM     11  C   UNL     1      10.228  -1.457  22.459  0.00  0.00    +0.000 A 
ATOM     12  C   UNL     1      10.379  -2.261  23.588  0.00  0.00    +0.001 A 
ATOM     13  C   UNL     1       9.309  -3.033  24.052  0.00  0.00    +0.010 A 
ENDBRANCH   2   8
BRANCH   5  14
ATOM     14  N   UNL     1       3.395  -5.634  25.281  0.00  0.00    -0.201 N 
ATOM     15  H   UNL     1       2.739  -5.027  25.774  0.00  0.00    +0.175 HD
BRANCH  14  16
ATOM     16  S   UNL     1       3.659  -6.967  26.271  0.00  0.00    +0.109 S 
ATOM     17  O   UNL     1       2.614  -6.949  27.262  0.00  0.00    -0.138 OA
ATOM     18  O   UNL     1       5.058  -7.070  26.622  0.00  0.00    -0.138 OA
BRANCH  16  19
ATOM     19  N   UNL     1       3.338  -8.182  25.171  0.00  0.00    -0.180 NA
ATOM     20  H   UNL     1       3.899  -8.996  25.428  0.00  0.00    +0.149 HD
ATOM     21  C   UNL     1       1.907  -8.530  25.093  0.00  0.00    +0.129 C 
ENDBRANCH  16  19
ENDBRANCH  14  16
ENDBRANCH   5  14
BRANCH   1  22
ATOM     22  C   UNL     1       6.799  -2.084  25.940  0.00  0.00    +0.221 C 
BRANCH  22  25
ATOM     23  N   UNL     1       7.526   0.179  25.270  0.00  0.00    -0.304 N 
ATOM     24  H   UNL     1       8.215   0.032  25.999  0.00  0.00    +0.149 HD
ATOM     25  C   UNL     1       6.461  -0.702  25.360  0.00  0.00    +0.233 C 
ATOM     26  O   UNL     1       5.347  -0.477  24.899  0.00  0.00    -0.274 OA
BRANCH  23  27
ATOM     27  C   UNL     1       7.461   1.545  24.697  0.00  0.00    +0.151 C 
BRANCH  27  28
ATOM     28  C   UNL     1       7.122   2.636  25.750  0.00  0.00    +0.011 C 
ATOM     29  C   UNL     1       5.623   2.990  25.726  0.00  0.00    +0.009 C 
ATOM     30  C   UNL     1       7.888   3.951  25.599  0.00  0.00    +0.009 C 
ENDBRANCH  27  28
BRANCH  27  31
ATOM     31  C   UNL     1       8.737   1.736  23.850  0.00  0.00    +0.256 C 
ATOM     32  O   UNL     1       9.858   1.455  24.296  0.00  0.00    -0.286 OA
BRANCH  31  33
ATOM     33  C   UNL     1       8.551   2.159  22.403  0.00  0.00    +0.453 C 
ATOM     34  F   UNL     1       7.523   1.495  21.803  0.00  0.00    -0.163 F 
ATOM     35  F   UNL     1       9.656   1.927  21.644  0.00  0.00    -0.163 F 
ATOM     36  F   UNL     1       8.250   3.478  22.257  0.00  0.00    -0.163 F 
ENDBRANCH  31  33
ENDBRANCH  27  31
ENDBRANCH  23  27
ENDBRANCH  22  25
ENDBRANCH   1  22
TORSDOF 10
ENDMDL
MODEL 7
REMARK VINA RESULT:      -6.2      1.713      2.283
REMARK  Name = 
REMARK  13 active torsions:
REMARK  status: ('A' for Active; 'I' for Inactive)
REMARK    1  A    between atoms: C_2  and  N_3
REMARK    2  A    between atoms: C_2  and  C_26
REMARK    3  A    between atoms: C_2  and  C_29
REMARK    4  A    between atoms: C_4  and  C_6
REMARK    5  A    between atoms: C_6  and  N_7
REMARK    6  A    between atoms: C_10  and  N_11
REMARK    7  A    between atoms: N_11  and  S_12
REMARK    8  A    between atoms: S_12  and  N_15
REMARK    9  A    between atoms: N_15  and  C_16
REMARK   10  A    between atoms: C_19  and  C_20
REMARK   11  A    between atoms: C_26  and  C_27
REMARK   12  A    between atoms: C_26  and  C_28
REMARK   13  A    between atoms: C_29  and  C_31
REMARK                            x       y       z     vdW  Elec       q    Type
REMARK                         _______ _______ _______ _____ _____    ______ ____
ROOT
ATOM      1  N   UNL     1       8.269  -2.078  24.213  0.00  0.00    -0.298 N 
ATOM      2  C   UNL     1       7.183  -2.279  23.356  0.00  0.00    +0.053 A 
ATOM      3  C   UNL     1       6.527  -1.228  22.833  0.00  0.00    +0.028 A 
ATOM      4  C   UNL     1       6.933   0.125  23.115  0.00  0.00    +0.032 A 
ATOM      5  C   UNL     1       8.003   0.343  23.889  0.00  0.00    +0.113 A 
ATOM      6  C   UNL     1       8.732  -0.792  24.536  0.00  0.00    +0.275 A 
ATOM      7  O   UNL     1       9.642  -0.572  25.336  0.00  0.00    -0.266 OA
ENDROOT
BRANCH   2   8
ATOM      8  C   UNL     1       6.655  -3.611  23.001  0.00  0.00    -0.001 A 
ATOM      9  C   UNL     1       5.308  -3.909  23.258  0.00  0.00    +0.010 A 
ATOM     10  C   UNL     1       4.728  -5.079  22.762  0.00  0.00    +0.001 A 
ATOM     11  C   UNL     1       5.486  -5.960  21.998  0.00  0.00    +0.000 A 
ATOM     12  C   UNL     1       6.831  -5.686  21.750  0.00  0.00    +0.001 A 
ATOM     13  C   UNL     1       7.417  -4.519  22.249  0.00  0.00    +0.010 A 
ENDBRANCH   2   8
BRANCH   5  14
ATOM     14  N   UNL     1       8.464   1.682  24.061  0.00  0.00    -0.201 N 
ATOM     15  H   UNL     1       7.749   2.332  24.391  0.00  0.00    +0.175 HD
BRANCH  14  16
ATOM     16  S   UNL     1       9.096   2.335  22.647  0.00  0.00    +0.109 S 
ATOM     17  O   UNL     1       7.970   2.758  21.856  0.00  0.00    -0.138 OA
ATOM     18  O   UNL     1      10.141   1.486  22.117  0.00  0.00    -0.138 OA
BRANCH  16  19
ATOM     19  N   UNL     1       9.841   3.685  23.289  0.00  0.00    -0.180 NA
ATOM     20  H   UNL     1       9.427   3.869  24.205  0.00  0.00    +0.149 HD
ATOM     21  C   UNL     1      11.306   3.544  23.391  0.00  0.00    +0.129 C 
ENDBRANCH  16  19
ENDBRANCH  14  16
ENDBRANCH   5  14
BRANCH   1  22
ATOM     22  C   UNL     1       8.996  -3.192  24.828  0.00  0.00    +0.221 C 
BRANCH  22  25
ATOM     23  N   UNL     1       7.060  -3.472  26.338  0.00  0.00    -0.304 N 
ATOM     24  H   UNL     1       6.721  -2.656  25.840  0.00  0.00    +0.149 HD
ATOM     25  C   UNL     1       8.422  -3.664  26.174  0.00  0.00    +0.233 C 
ATOM     26  O   UNL     1       9.126  -4.282  26.967  0.00  0.00    -0.274 OA
BRANCH  23  27
ATOM     27  C   UNL     1       6.273  -3.891  27.521  0.00  0.00    +0.151 C 
BRANCH  27  28
ATOM     28  C   UNL     1       4.908  -3.159  27.641  0.00  0.00    +0.011 C 
ATOM     29  C   UNL     1       5.031  -1.677  27.238  0.00  0.00    +0.009 C 
ATOM     30  C   UNL     1       4.270  -3.186  29.030  0.00  0.00    +0.009 C 
ENDBRANCH  27  28
BRANCH  27  31
ATOM     31  C   UNL     1       6.263  -5.435  27.528  0.00  0.00    +0.256 C 
ATOM     32  O   UNL     1       6.812  -6.082  28.430  0.00  0.00    -0.286 OA
BRANCH  31  33
ATOM     33  C   UNL     1       5.440  -6.126  26.455  0.00  0.00    +0.453 C 
ATOM     34  F   UNL     1       4.966  -7.335  26.870  0.00  0.00    -0.163 F 
ATOM     35  F   UNL     1       6.151  -6.360  25.320  0.00  0.00    -0.163 F 
ATOM     36  F   UNL     1       4.334  -5.426  26.082  0.00  0.00    -0.163 F 
ENDBRANCH  31  33
ENDBRANCH  27  31
ENDBRANCH  23  27
ENDBRANCH  22  25
ENDBRANCH   1  22
TORSDOF 10
ENDMDL
MODEL 8
REMARK VINA RESULT:      -6.2      4.261      7.419
REMARK  Name = 
REMARK  13 active torsions:
REMARK  status: ('A' for Active; 'I' for Inactive)
REMARK    1  A    between atoms: C_2  and  N_3
REMARK    2  A    between atoms: C_2  and  C_26
REMARK    3  A    between atoms: C_2  and  C_29
REMARK    4  A    between atoms: C_4  and  C_6
REMARK    5  A    between atoms: C_6  and  N_7
REMARK    6  A    between atoms: C_10  and  N_11
REMARK    7  A    between atoms: N_11  and  S_12
REMARK    8  A    between atoms: S_12  and  N_15
REMARK    9  A    between atoms: N_15  and  C_16
REMARK   10  A    between atoms: C_19  and  C_20
REMARK   11  A    between atoms: C_26  and  C_27
REMARK   12  A    between atoms: C_26  and  C_28
REMARK   13  A    between atoms: C_29  and  C_31
REMARK                            x       y       z     vdW  Elec       q    Type
REMARK                         _______ _______ _______ _____ _____    ______ ____
ROOT
ATOM      1  N   UNL     1       6.246  -4.200  24.689  0.00  0.00    -0.298 N 
ATOM      2  C   UNL     1       6.994  -4.121  23.510  0.00  0.00    +0.053 A 
ATOM      3  C   UNL     1       6.817  -5.026  22.532  0.00  0.00    +0.028 A 
ATOM      4  C   UNL     1       5.844  -6.081  22.652  0.00  0.00    +0.032 A 
ATOM      5  C   UNL     1       5.077  -6.146  23.748  0.00  0.00    +0.113 A 
ATOM      6  C   UNL     1       5.274  -5.194  24.886  0.00  0.00    +0.275 A 
ATOM      7  O   UNL     1       4.642  -5.336  25.932  0.00  0.00    -0.266 OA
ENDROOT
BRANCH   2   8
ATOM      8  C   UNL     1       8.035  -3.103  23.268  0.00  0.00    -0.001 A 
ATOM      9  C   UNL     1       9.232  -3.151  23.999  0.00  0.00    +0.010 A 
ATOM     10  C   UNL     1      10.309  -2.330  23.662  0.00  0.00    +0.001 A 
ATOM     11  C   UNL     1      10.206  -1.456  22.585  0.00  0.00    +0.000 A 
ATOM     12  C   UNL     1       9.016  -1.383  21.860  0.00  0.00    +0.001 A 
ATOM     13  C   UNL     1       7.933  -2.200  22.198  0.00  0.00    +0.010 A 
ENDBRANCH   2   8
BRANCH   5  14
ATOM     14  N   UNL     1       4.038  -7.121  23.801  0.00  0.00    -0.201 N 
ATOM     15  H   UNL     1       4.185  -7.924  23.187  0.00  0.00    +0.175 HD
BRANCH  14  16
ATOM     16  S   UNL     1       2.532  -6.484  23.411  0.00  0.00    +0.109 S 
ATOM     17  O   UNL     1       1.828  -7.517  22.697  0.00  0.00    -0.138 OA
ATOM     18  O   UNL     1       2.667  -5.139  22.896  0.00  0.00    -0.138 OA
BRANCH  16  19
ATOM     19  N   UNL     1       1.892  -6.359  24.948  0.00  0.00    -0.180 NA
ATOM     20  H   UNL     1       0.933  -6.016  24.864  0.00  0.00    +0.149 HD
ATOM     21  C   UNL     1       1.934  -7.629  25.698  0.00  0.00    +0.129 C 
ENDBRANCH  16  19
ENDBRANCH  14  16
ENDBRANCH   5  14
BRANCH   1  22
ATOM     22  C   UNL     1       6.425  -3.253  25.793  0.00  0.00    +0.221 C 
BRANCH  22  25
ATOM     23  N   UNL     1       6.722  -0.814  25.548  0.00  0.00    -0.304 N 
ATOM     24  H   UNL     1       7.510  -0.980  26.165  0.00  0.00    +0.149 HD
ATOM     25  C   UNL     1       5.817  -1.863  25.549  0.00  0.00    +0.233 C 
ATOM     26  O   UNL     1       4.634  -1.746  25.247  0.00  0.00    -0.274 OA
BRANCH  23  27
ATOM     27  C   UNL     1       6.385   0.605  25.283  0.00  0.00    +0.151 C 
BRANCH  27  28
ATOM     28  C   UNL     1       6.334   1.475  26.570  0.00  0.00    +0.011 C 
ATOM     29  C   UNL     1       7.077   0.792  27.735  0.00  0.00    +0.009 C 
ATOM     30  C   UNL     1       4.931   1.810  27.077  0.00  0.00    +0.009 C 
ENDBRANCH  27  28
BRANCH  27  31
ATOM     31  C   UNL     1       7.305   1.076  24.135  0.00  0.00    +0.256 C 
ATOM     32  O   UNL     1       6.875   1.229  22.984  0.00  0.00    -0.286 OA
BRANCH  31  33
ATOM     33  C   UNL     1       8.725   1.469  24.502  0.00  0.00    +0.453 C 
ATOM     34  F   UNL     1       9.340   0.519  25.263  0.00  0.00    -0.163 F 
ATOM     35  F   UNL     1       8.779   2.628  25.213  0.00  0.00    -0.163 F 
ATOM     36  F   UNL     1       9.539   1.636  23.424  0.00  0.00    -0.163 F 
ENDBRANCH  31  33
ENDBRANCH  27  31
ENDBRANCH  23  27
ENDBRANCH  22  25
ENDBRANCH   1  22
TORSDOF 10
ENDMDL
MODEL 9
REMARK VINA RESULT:      -6.2      4.281      7.336
REMARK  Name = 
REMARK  13 active torsions:
REMARK  status: ('A' for Active; 'I' for Inactive)
REMARK    1  A    between atoms: C_2  and  N_3
REMARK    2  A    between atoms: C_2  and  C_26
REMARK    3  A    between atoms: C_2  and  C_29
REMARK    4  A    between atoms: C_4  and  C_6
REMARK    5  A    between atoms: C_6  and  N_7
REMARK    6  A    between atoms: C_10  and  N_11
REMARK    7  A    between atoms: N_11  and  S_12
REMARK    8  A    between atoms: S_12  and  N_15
REMARK    9  A    between atoms: N_15  and  C_16
REMARK   10  A    between atoms: C_19  and  C_20
REMARK   11  A    between atoms: C_26  and  C_27
REMARK   12  A    between atoms: C_26  and  C_28
REMARK   13  A    between atoms: C_29  and  C_31
REMARK                            x       y       z     vdW  Elec       q    Type
REMARK                         _______ _______ _______ _____ _____    ______ ____
ROOT
ATOM      1  N   UNL     1       7.575  -1.816  24.692  0.00  0.00    -0.298 N 
ATOM      2  C   UNL     1       8.348  -1.505  23.569  0.00  0.00    +0.053 A 
ATOM      3  C   UNL     1       8.564  -2.429  22.616  0.00  0.00    +0.028 A 
ATOM      4  C   UNL     1       7.992  -3.747  22.705  0.00  0.00    +0.032 A 
ATOM      5  C   UNL     1       7.203  -4.052  23.744  0.00  0.00    +0.113 A 
ATOM      6  C   UNL     1       6.977  -3.076  24.855  0.00  0.00    +0.275 A 
ATOM      7  O   UNL     1       6.345  -3.409  25.857  0.00  0.00    -0.266 OA
ENDROOT
BRANCH   2   8
ATOM      8  C   UNL     1       9.006  -0.199  23.364  0.00  0.00    -0.001 A 
ATOM      9  C   UNL     1      10.009   0.215  24.254  0.00  0.00    +0.010 A 
ATOM     10  C   UNL     1      10.783   1.344  23.982  0.00  0.00    +0.001 A 
ATOM     11  C   UNL     1      10.570   2.068  22.813  0.00  0.00    +0.000 A 
ATOM     12  C   UNL     1       9.564   1.680  21.928  0.00  0.00    +0.001 A 
ATOM     13  C   UNL     1       8.783   0.552  22.200  0.00  0.00    +0.010 A 
ENDBRANCH   2   8
BRANCH   5  14
ATOM     14  N   UNL     1       6.547  -5.319  23.758  0.00  0.00    -0.201 N 
ATOM     15  H   UNL     1       7.168  -6.113  23.594  0.00  0.00    +0.175 HD
BRANCH  14  16
ATOM     16  S   UNL     1       5.316  -5.423  22.618  0.00  0.00    +0.109 S 
ATOM     17  O   UNL     1       5.909  -5.984  21.432  0.00  0.00    -0.138 OA
ATOM     18  O   UNL     1       4.540  -4.203  22.595  0.00  0.00    -0.138 OA
BRANCH  16  19
ATOM     19  N   UNL     1       4.374  -6.590  23.353  0.00  0.00    -0.180 NA
ATOM     20  H   UNL     1       4.518  -7.471  22.857  0.00  0.00    +0.149 HD
ATOM     21  C   UNL     1       4.658  -6.741  24.793  0.00  0.00    +0.129 C 
ENDBRANCH  16  19
ENDBRANCH  14  16
ENDBRANCH   5  14
BRANCH   1  22
ATOM     22  C   UNL     1       7.337  -0.851  25.768  0.00  0.00    +0.221 C 
BRANCH  22  25
ATOM     23  N   UNL     1       6.919   1.576  25.575  0.00  0.00    -0.304 N 
ATOM     24  H   UNL     1       7.580   1.618  26.342  0.00  0.00    +0.149 HD
ATOM     25  C   UNL     1       6.396   0.306  25.395  0.00  0.00    +0.233 C 
ATOM     26  O   UNL     1       5.318   0.081  24.854  0.00  0.00    -0.274 OA
BRANCH  23  27
ATOM     27  C   UNL     1       6.226   2.842  25.237  0.00  0.00    +0.151 C 
BRANCH  27  28
ATOM     28  C   UNL     1       5.802   3.662  26.487  0.00  0.00    +0.011 C 
ATOM     29  C   UNL     1       5.520   5.132  26.122  0.00  0.00    +0.009 C 
ATOM     30  C   UNL     1       6.815   3.679  27.632  0.00  0.00    +0.009 C 
ENDBRANCH  27  28
BRANCH  27  31
ATOM     31  C   UNL     1       7.088   3.552  24.171  0.00  0.00    +0.256 C 
ATOM     32  O   UNL     1       8.246   3.918  24.413  0.00  0.00    -0.286 OA
BRANCH  31  33
ATOM     33  C   UNL     1       6.504   3.668  22.773  0.00  0.00    +0.453 C 
ATOM     34  F   UNL     1       5.425   4.500  22.735  0.00  0.00    -0.163 F 
ATOM     35  F   UNL     1       6.087   2.471  22.281  0.00  0.00    -0.163 F 
ATOM     36  F   UNL     1       7.375   4.180  21.861  0.00  0.00    -0.163 F 
ENDBRANCH  31  33
ENDBRANCH  27  31
ENDBRANCH  23  27
ENDBRANCH  22  25
ENDBRANCH   1  22
TORSDOF 10
ENDMDL
