MODEL 1
REMARK VINA RESULT:      -5.3      0.000      0.000
REMARK  Name = 
REMARK  10 active torsions:
REMARK  status: ('A' for Active; 'I' for Inactive)
REMARK    1  A    between atoms: O_1  and  C_2
REMARK    2  A    between atoms: C_2  and  C_3
REMARK    3  A    between atoms: C_3  and  O_4
REMARK    4  A    between atoms: C_6  and  C_8
REMARK    5  A    between atoms: C_8  and  O_9
REMARK    6  A    between atoms: O_9  and  P_10
REMARK    7  A    between atoms: P_10  and  O_11
REMARK    8  A    between atoms: P_10  and  O_12
REMARK    9  A    between atoms: C_14  and  O_16
REMARK   10  A    between atoms: C_17  and  O_19
REMARK                            x       y       z     vdW  Elec       q    Type
REMARK                         _______ _______ _______ _____ _____    ______ ____
ROOT
ATOM      1  C   UNL     1       9.251  -1.607  22.730  0.00  0.00    +0.220 C 
ATOM      2  C   UNL     1       9.216  -0.166  23.252  0.00  0.00    +0.207 C 
ATOM      3  C   UNL     1       9.067  -0.316  24.761  0.00  0.00    +0.179 C 
ATOM      4  C   UNL     1       9.436  -1.771  25.052  0.00  0.00    +0.179 C 
ATOM      5  O   UNL     1       9.740  -2.419  23.797  0.00  0.00    -0.336 OA
ENDROOT
BRANCH   1   6
ATOM      6  O   UNL     1      10.208  -1.686  21.674  0.00  0.00    -0.361 OA
ATOM      7  H   UNL     1      10.147  -2.620  21.398  0.00  0.00    +0.213 HD
ENDBRANCH   1   6
BRANCH   2   8
ATOM      8  O   UNL     1      10.482   0.494  23.003  0.00  0.00    -0.384 OA
ATOM      9  H   UNL     1      10.232   1.318  22.532  0.00  0.00    +0.210 HD
ENDBRANCH   2   8
BRANCH   3  10
ATOM     10  O   UNL     1       9.953   0.568  25.457  0.00  0.00    -0.386 OA
ATOM     11  H   UNL     1      10.679  -0.011  25.783  0.00  0.00    +0.210 HD
ENDBRANCH   3  10
BRANCH   1  12
ATOM     12  C   UNL     1       7.903  -2.179  22.241  0.00  0.00    +0.223 C 
BRANCH  12  13
ATOM     13  O   UNL     1       7.787  -3.588  22.426  0.00  0.00    -0.390 OA
ATOM     14  H   UNL     1       7.199  -3.925  21.726  0.00  0.00    +0.210 HD
ENDBRANCH  12  13
ENDBRANCH   1  12
BRANCH   4  15
ATOM     15  C   UNL     1       8.277  -2.498  25.745  0.00  0.00    +0.206 C 
BRANCH  15  16
ATOM     16  O   UNL     1       8.790  -3.558  26.531  0.00  0.00    -0.284 OA
BRANCH  16  17
ATOM     17  P   UNL     1       8.519  -5.046  26.020  0.00  0.00    +0.472 P 
ATOM     18  O   UNL     1       7.598  -5.174  24.863  0.00  0.00    -0.228 OA
BRANCH  17  19
ATOM     19  O   UNL     1       8.063  -5.795  27.349  0.00  0.00    -0.303 OA
ATOM     20  H   UNL     1       8.105  -6.761  27.241  0.00  0.00    +0.222 HD
ENDBRANCH  17  19
BRANCH  17  21
ATOM     21  O   UNL     1       9.993  -5.605  25.766  0.00  0.00    -0.303 OA
ATOM     22  H   UNL     1      10.264  -6.255  26.436  0.00  0.00    +0.222 HD
ENDBRANCH  17  21
ENDBRANCH  16  17
ENDBRANCH  15  16
ENDBRANCH   4  15
TORSDOF 10
ENDMDL
MODEL 2
REMARK VINA RESULT:      -5.3      2.301      3.633
REMARK  Name = 
REMARK  10 active torsions:
REMARK  status: ('A' for Active; 'I' for Inactive)
REMARK    1  A    between atoms: O_1  and  C_2
REMARK    2  A    between atoms: C_2  and  C_3
REMARK    3  A    between atoms: C_3  and  O_4
REMARK    4  A    between atoms: C_6  and  C_8
REMARK    5  A    between atoms: C_8  and  O_9
REMARK    6  A    between atoms: O_9  and  P_10
REMARK    7  A    between atoms: P_10  and  O_11
REMARK    8  A    between atoms: P_10  and  O_12
REMARK    9  A    between atoms: C_14  and  O_16
REMARK   10  A    between atoms: C_17  and  O_19
REMARK                            x       y       z     vdW  Elec       q    Type
REMARK                         _______ _______ _______ _____ _____    ______ ____
ROOT
ATOM      1  C   UNL     1       9.506   1.769  22.288  0.00  0.00    +0.220 C 
ATOM      2  C   UNL     1       8.673   2.826  23.022  0.00  0.00    +0.207 C 
ATOM      3  C   UNL     1       8.381   2.200  24.379  0.00  0.00    +0.179 C 
ATOM      4  C   UNL     1       9.378   1.045  24.504  0.00  0.00    +0.179 C 
ATOM      5  O   UNL     1      10.159   0.992  23.290  0.00  0.00    -0.336 OA
ENDROOT
BRANCH   1   6
ATOM      6  O   UNL     1      10.528   2.431  21.543  0.00  0.00    -0.361 OA
ATOM      7  H   UNL     1      11.029   2.901  22.236  0.00  0.00    +0.213 HD
ENDBRANCH   1   6
BRANCH   2   8
ATOM      8  O   UNL     1       9.459   4.021  23.254  0.00  0.00    -0.384 OA
ATOM      9  H   UNL     1      10.132   4.005  22.539  0.00  0.00    +0.210 HD
ENDBRANCH   2   8
BRANCH   3  10
ATOM     10  O   UNL     1       8.582   3.143  25.437  0.00  0.00    -0.386 OA
ATOM     11  H   UNL     1       8.622   2.597  26.256  0.00  0.00    +0.210 HD
ENDBRANCH   3  10
BRANCH   1  12
ATOM     12  C   UNL     1       8.722   0.825  21.352  0.00  0.00    +0.223 C 
BRANCH  12  13
ATOM     13  O   UNL     1       9.464  -0.331  20.967  0.00  0.00    -0.390 OA
ATOM     14  H   UNL     1       9.748  -0.199  20.045  0.00  0.00    +0.210 HD
ENDBRANCH  12  13
ENDBRANCH   1  12
BRANCH   4  15
ATOM     15  C   UNL     1       8.644  -0.285  24.710  0.00  0.00    +0.206 C 
BRANCH  15  16
ATOM     16  O   UNL     1       9.592  -1.320  24.899  0.00  0.00    -0.284 OA
BRANCH  16  17
ATOM     17  P   UNL     1       9.617  -2.498  23.821  0.00  0.00    +0.472 P 
ATOM     18  O   UNL     1       9.849  -3.861  24.359  0.00  0.00    -0.228 OA
BRANCH  17  19
ATOM     19  O   UNL     1      10.690  -1.982  22.765  0.00  0.00    -0.303 OA
ATOM     20  H   UNL     1      10.891  -2.667  22.103  0.00  0.00    +0.222 HD
ENDBRANCH  17  19
BRANCH  17  21
ATOM     21  O   UNL     1       8.226  -2.307  23.060  0.00  0.00    -0.303 OA
ATOM     22  H   UNL     1       7.552  -1.887  23.619  0.00  0.00    +0.222 HD
ENDBRANCH  17  21
ENDBRANCH  16  17
ENDBRANCH  15  16
ENDBRANCH   4  15
TORSDOF 10
ENDMDL
MODEL 3
REMARK VINA RESULT:      -5.3      2.323      5.283
REMARK  Name = 
REMARK  10 active torsions:
REMARK  status: ('A' for Active; 'I' for Inactive)
REMARK    1  A    between atoms: O_1  and  C_2
REMARK    2  A    between atoms: C_2  and  C_3
REMARK    3  A    between atoms: C_3  and  O_4
REMARK    4  A    between atoms: C_6  and  C_8
REMARK    5  A    between atoms: C_8  and  O_9
REMARK    6  A    between atoms: O_9  and  P_10
REMARK    7  A    between atoms: P_10  and  O_11
REMARK    8  A    between atoms: P_10  and  O_12
REMARK    9  A    between atoms: C_14  and  O_16
REMARK   10  A    between atoms: C_17  and  O_19
REMARK                            x       y       z     vdW  Elec       q    Type
REMARK                         _______ _______ _______ _____ _____    ______ ____
ROOT
ATOM      1  C   UNL     1       9.098  -4.228  24.751  0.00  0.00    +0.220 C 
ATOM      2  C   UNL     1       7.808  -4.068  23.938  0.00  0.00    +0.207 C 
ATOM      3  C   UNL     1       7.958  -2.715  23.255  0.00  0.00    +0.179 C 
ATOM      4  C   UNL     1       9.446  -2.377  23.369  0.00  0.00    +0.179 C 
ATOM      5  O   UNL     1      10.095  -3.443  24.098  0.00  0.00    -0.336 OA
ENDROOT
BRANCH   1   6
ATOM      6  O   UNL     1       9.521  -5.589  24.671  0.00  0.00    -0.361 OA
ATOM      7  H   UNL     1       9.346  -5.921  25.571  0.00  0.00    +0.213 HD
ENDBRANCH   1   6
BRANCH   2   8
ATOM      8  O   UNL     1       7.737  -5.075  22.897  0.00  0.00    -0.384 OA
ATOM      9  H   UNL     1       8.676  -5.271  22.691  0.00  0.00    +0.210 HD
ENDBRANCH   2   8
BRANCH   3  10
ATOM     10  O   UNL     1       7.572  -2.786  21.878  0.00  0.00    -0.386 OA
ATOM     11  H   UNL     1       7.950  -1.973  21.469  0.00  0.00    +0.210 HD
ENDBRANCH   3  10
BRANCH   1  12
ATOM     12  C   UNL     1       9.016  -3.804  26.233  0.00  0.00    +0.223 C 
BRANCH  12  13
ATOM     13  O   UNL     1       9.386  -4.841  27.138  0.00  0.00    -0.390 OA
ATOM     14  H   UNL     1       8.780  -5.588  26.985  0.00  0.00    +0.210 HD
ENDBRANCH  12  13
ENDBRANCH   1  12
BRANCH   4  15
ATOM     15  C   UNL     1       9.646  -1.047  24.106  0.00  0.00    +0.206 C 
BRANCH  15  16
ATOM     16  O   UNL     1      10.240  -0.109  23.228  0.00  0.00    -0.284 OA
BRANCH  16  17
ATOM     17  P   UNL     1       9.300   0.559  22.123  0.00  0.00    +0.472 P 
ATOM     18  O   UNL     1       7.906   0.842  22.547  0.00  0.00    -0.228 OA
BRANCH  17  19
ATOM     19  O   UNL     1       9.458  -0.432  20.887  0.00  0.00    -0.303 OA
ATOM     20  H   UNL     1      10.322  -0.320  20.454  0.00  0.00    +0.222 HD
ENDBRANCH  17  19
BRANCH  17  21
ATOM     21  O   UNL     1      10.138   1.843  21.678  0.00  0.00    -0.303 OA
ATOM     22  H   UNL     1       9.984   2.083  20.749  0.00  0.00    +0.222 HD
ENDBRANCH  17  21
ENDBRANCH  16  17
ENDBRANCH  15  16
ENDBRANCH   4  15
TORSDOF 10
ENDMDL
MODEL 4
REMARK VINA RESULT:      -5.1      1.648      3.009
REMARK  Name = 
REMARK  10 active torsions:
REMARK  status: ('A' for Active; 'I' for Inactive)
REMARK    1  A    between atoms: O_1  and  C_2
REMARK    2  A    between atoms: C_2  and  C_3
REMARK    3  A    between atoms: C_3  and  O_4
REMARK    4  A    between atoms: C_6  and  C_8
REMARK    5  A    between atoms: C_8  and  O_9
REMARK    6  A    between atoms: O_9  and  P_10
REMARK    7  A    between atoms: P_10  and  O_11
REMARK    8  A    between atoms: P_10  and  O_12
REMARK    9  A    between atoms: C_14  and  O_16
REMARK   10  A    between atoms: C_17  and  O_19
REMARK                            x       y       z     vdW  Elec       q    Type
REMARK                         _______ _______ _______ _____ _____    ______ ____
ROOT
ATOM      1  C   UNL     1       9.836   0.984  23.613  0.00  0.00    +0.220 C 
ATOM      2  C   UNL     1       8.495   0.949  24.356  0.00  0.00    +0.207 C 
ATOM      3  C   UNL     1       8.307  -0.517  24.724  0.00  0.00    +0.179 C 
ATOM      4  C   UNL     1       9.691  -1.148  24.555  0.00  0.00    +0.179 C 
ATOM      5  O   UNL     1      10.597  -0.124  24.088  0.00  0.00    -0.336 OA
ENDROOT
BRANCH   1   6
ATOM      6  O   UNL     1      10.538   2.167  23.996  0.00  0.00    -0.361 OA
ATOM      7  H   UNL     1       9.971   2.877  23.642  0.00  0.00    +0.213 HD
ENDBRANCH   1   6
BRANCH   2   8
ATOM      8  O   UNL     1       8.580   1.701  25.592  0.00  0.00    -0.384 OA
ATOM      9  H   UNL     1       8.472   2.635  25.310  0.00  0.00    +0.210 HD
ENDBRANCH   2   8
BRANCH   3  10
ATOM     10  O   UNL     1       7.863  -0.656  26.079  0.00  0.00    -0.386 OA
ATOM     11  H   UNL     1       6.975  -1.077  26.009  0.00  0.00    +0.210 HD
ENDBRANCH   3  10
BRANCH   1  12
ATOM     12  C   UNL     1       9.754   0.915  22.073  0.00  0.00    +0.223 C 
BRANCH  12  13
ATOM     13  O   UNL     1      10.075   2.149  21.435  0.00  0.00    -0.390 OA
ATOM     14  H   UNL     1      10.656   2.645  22.040  0.00  0.00    +0.210 HD
ENDBRANCH  12  13
ENDBRANCH   1  12
BRANCH   4  15
ATOM     15  C   UNL     1       9.642  -2.300  23.545  0.00  0.00    +0.206 C 
BRANCH  15  16
ATOM     16  O   UNL     1      10.231  -3.453  24.119  0.00  0.00    -0.284 OA
BRANCH  16  17
ATOM     17  P   UNL     1       9.271  -4.437  24.933  0.00  0.00    +0.472 P 
ATOM     18  O   UNL     1       8.465  -3.809  26.009  0.00  0.00    -0.228 OA
BRANCH  17  19
ATOM     19  O   UNL     1      10.266  -5.589  25.399  0.00  0.00    -0.303 OA
ATOM     20  H   UNL     1      10.822  -5.295  26.142  0.00  0.00    +0.222 HD
ENDBRANCH  17  19
BRANCH  17  21
ATOM     21  O   UNL     1       8.417  -5.131  23.776  0.00  0.00    -0.303 OA
ATOM     22  H   UNL     1       7.693  -5.678  24.126  0.00  0.00    +0.222 HD
ENDBRANCH  17  21
ENDBRANCH  16  17
ENDBRANCH  15  16
ENDBRANCH   4  15
TORSDOF 10
ENDMDL
MODEL 5
REMARK VINA RESULT:      -5.1      2.290      5.270
REMARK  Name = 
REMARK  10 active torsions:
REMARK  status: ('A' for Active; 'I' for Inactive)
REMARK    1  A    between atoms: O_1  and  C_2
REMARK    2  A    between atoms: C_2  and  C_3
REMARK    3  A    between atoms: C_3  and  O_4
REMARK    4  A    between atoms: C_6  and  C_8
REMARK    5  A    between atoms: C_8  and  O_9
REMARK    6  A    between atoms: O_9  and  P_10
REMARK    7  A    between atoms: P_10  and  O_11
REMARK    8  A    between atoms: P_10  and  O_12
REMARK    9  A    between atoms: C_14  and  O_16
REMARK   10  A    between atoms: C_17  and  O_19
REMARK                            x       y       z     vdW  Elec       q    Type
REMARK                         _______ _______ _______ _____ _____    ______ ____
ROOT
ATOM      1  C   UNL     1       9.149  -4.787  24.989  0.00  0.00    +0.220 C 
ATOM      2  C   UNL     1       7.889  -4.772  24.115  0.00  0.00    +0.207 C 
ATOM      3  C   UNL     1       7.828  -3.352  23.567  0.00  0.00    +0.179 C 
ATOM      4  C   UNL     1       9.226  -2.777  23.804  0.00  0.00    +0.179 C 
ATOM      5  O   UNL     1      10.020  -3.782  24.472  0.00  0.00    -0.336 OA
ENDROOT
BRANCH   1   6
ATOM      6  O   UNL     1       9.810  -6.041  24.814  0.00  0.00    -0.361 OA
ATOM      7  H   UNL     1       9.067  -6.670  24.766  0.00  0.00    +0.213 HD
ENDBRANCH   1   6
BRANCH   2   8
ATOM      8  O   UNL     1       8.044  -5.668  22.986  0.00  0.00    -0.384 OA
ATOM      9  H   UNL     1       8.950  -5.482  22.658  0.00  0.00    +0.210 HD
ENDBRANCH   2   8
BRANCH   3  10
ATOM     10  O   UNL     1       7.524  -3.352  22.168  0.00  0.00    -0.386 OA
ATOM     11  H   UNL     1       7.789  -4.247  21.854  0.00  0.00    +0.210 HD
ENDBRANCH   3  10
BRANCH   1  12
ATOM     12  C   UNL     1       8.927  -4.533  26.495  0.00  0.00    +0.223 C 
BRANCH  12  13
ATOM     13  O   UNL     1       8.315  -5.631  27.168  0.00  0.00    -0.390 OA
ATOM     14  H   UNL     1       8.079  -5.327  28.063  0.00  0.00    +0.210 HD
ENDBRANCH  12  13
ENDBRANCH   1  12
BRANCH   4  15
ATOM     15  C   UNL     1       9.154  -1.512  24.668  0.00  0.00    +0.206 C 
BRANCH  15  16
ATOM     16  O   UNL     1       9.109  -0.372  23.829  0.00  0.00    -0.284 OA
BRANCH  16  17
ATOM     17  P   UNL     1       9.943   0.910  24.291  0.00  0.00    +0.472 P 
ATOM     18  O   UNL     1      11.321   0.645  24.773  0.00  0.00    -0.228 OA
BRANCH  17  19
ATOM     19  O   UNL     1       8.966   1.601  25.342  0.00  0.00    -0.303 OA
ATOM     20  H   UNL     1       9.235   2.519  25.522  0.00  0.00    +0.222 HD
ENDBRANCH  17  19
BRANCH  17  21
ATOM     21  O   UNL     1       9.852   1.867  23.016  0.00  0.00    -0.303 OA
ATOM     22  H   UNL     1      10.723   2.050  22.627  0.00  0.00    +0.222 HD
ENDBRANCH  17  21
ENDBRANCH  16  17
ENDBRANCH  15  16
ENDBRANCH   4  15
TORSDOF 10
ENDMDL
MODEL 6
REMARK VINA RESULT:      -4.9      2.565      3.830
REMARK  Name = 
REMARK  10 active torsions:
REMARK  status: ('A' for Active; 'I' for Inactive)
REMARK    1  A    between atoms: O_1  and  C_2
REMARK    2  A    between atoms: C_2  and  C_3
REMARK    3  A    between atoms: C_3  and  O_4
REMARK    4  A    between atoms: C_6  and  C_8
REMARK    5  A    between atoms: C_8  and  O_9
REMARK    6  A    between atoms: O_9  and  P_10
REMARK    7  A    between atoms: P_10  and  O_11
REMARK    8  A    between atoms: P_10  and  O_12
REMARK    9  A    between atoms: C_14  and  O_16
REMARK   10  A    between atoms: C_17  and  O_19
REMARK                            x       y       z     vdW  Elec       q    Type
REMARK                         _______ _______ _______ _____ _____    ______ ____
ROOT
ATOM      1  C   UNL     1       8.367  -2.099  22.859  0.00  0.00    +0.220 C 
ATOM      2  C   UNL     1       9.455  -2.388  23.900  0.00  0.00    +0.207 C 
ATOM      3  C   UNL     1       9.010  -3.687  24.560  0.00  0.00    +0.179 C 
ATOM      4  C   UNL     1       7.962  -4.272  23.612  0.00  0.00    +0.179 C 
ATOM      5  O   UNL     1       7.792  -3.356  22.507  0.00  0.00    -0.336 OA
ENDROOT
BRANCH   1   6
ATOM      6  O   UNL     1       8.989  -1.582  21.682  0.00  0.00    -0.361 OA
ATOM      7  H   UNL     1       8.416  -0.827  21.451  0.00  0.00    +0.213 HD
ENDBRANCH   1   6
BRANCH   2   8
ATOM      8  O   UNL     1      10.725  -2.642  23.250  0.00  0.00    -0.384 OA
ATOM      9  H   UNL     1      11.312  -2.933  23.980  0.00  0.00    +0.210 HD
ENDBRANCH   2   8
BRANCH   3  10
ATOM     10  O   UNL     1      10.108  -4.594  24.704  0.00  0.00    -0.386 OA
ATOM     11  H   UNL     1      10.289  -4.916  23.791  0.00  0.00    +0.210 HD
ENDBRANCH   3  10
BRANCH   1  12
ATOM     12  C   UNL     1       7.244  -1.140  23.307  0.00  0.00    +0.223 C 
BRANCH  12  13
ATOM     13  O   UNL     1       5.977  -1.447  22.729  0.00  0.00    -0.390 OA
ATOM     14  H   UNL     1       6.110  -1.534  21.768  0.00  0.00    +0.210 HD
ENDBRANCH  12  13
ENDBRANCH   1  12
BRANCH   4  15
ATOM     15  C   UNL     1       6.624  -4.468  24.335  0.00  0.00    +0.206 C 
BRANCH  15  16
ATOM     16  O   UNL     1       6.048  -5.698  23.934  0.00  0.00    -0.284 OA
BRANCH  16  17
ATOM     17  P   UNL     1       4.878  -5.639  22.849  0.00  0.00    +0.472 P 
ATOM     18  O   UNL     1       3.578  -6.220  23.268  0.00  0.00    -0.228 OA
BRANCH  17  19
ATOM     19  O   UNL     1       5.553  -6.310  21.572  0.00  0.00    -0.303 OA
ATOM     20  H   UNL     1       6.421  -6.692  21.792  0.00  0.00    +0.222 HD
ENDBRANCH  17  19
BRANCH  17  21
ATOM     21  O   UNL     1       4.828  -4.089  22.470  0.00  0.00    -0.303 OA
ATOM     22  H   UNL     1       4.015  -3.657  22.782  0.00  0.00    +0.222 HD
ENDBRANCH  17  21
ENDBRANCH  16  17
ENDBRANCH  15  16
ENDBRANCH   4  15
TORSDOF 10
ENDMDL
MODEL 7
REMARK VINA RESULT:      -4.9      1.358      2.867
REMARK  Name = 
REMARK  10 active torsions:
REMARK  status: ('A' for Active; 'I' for Inactive)
REMARK    1  A    between atoms: O_1  and  C_2
REMARK    2  A    between atoms: C_2  and  C_3
REMARK    3  A    between atoms: C_3  and  O_4
REMARK    4  A    between atoms: C_6  and  C_8
REMARK    5  A    between atoms: C_8  and  O_9
REMARK    6  A    between atoms: O_9  and  P_10
REMARK    7  A    between atoms: P_10  and  O_11
REMARK    8  A    between atoms: P_10  and  O_12
REMARK    9  A    between atoms: C_14  and  O_16
REMARK   10  A    between atoms: C_17  and  O_19
REMARK                            x       y       z     vdW  Elec       q    Type
REMARK                         _______ _______ _______ _____ _____    ______ ____
ROOT
ATOM      1  C   UNL     1       8.222  -0.168  23.762  0.00  0.00    +0.220 C 
ATOM      2  C   UNL     1       9.695  -0.248  23.340  0.00  0.00    +0.207 C 
ATOM      3  C   UNL     1       9.849  -1.654  22.778  0.00  0.00    +0.179 C 
ATOM      4  C   UNL     1       8.420  -2.139  22.525  0.00  0.00    +0.179 C 
ATOM      5  O   UNL     1       7.511  -1.098  22.947  0.00  0.00    -0.336 OA
ENDROOT
BRANCH   1   6
ATOM      6  O   UNL     1       7.727   1.132  23.440  0.00  0.00    -0.361 OA
ATOM      7  H   UNL     1       8.483   1.709  23.652  0.00  0.00    +0.213 HD
ENDBRANCH   1   6
BRANCH   2   8
ATOM      8  O   UNL     1       9.965   0.684  22.263  0.00  0.00    -0.384 OA
ATOM      9  H   UNL     1       9.308   1.400  22.398  0.00  0.00    +0.210 HD
ENDBRANCH   2   8
BRANCH   3  10
ATOM     10  O   UNL     1      10.591  -1.642  21.553  0.00  0.00    -0.386 OA
ATOM     11  H   UNL     1       9.925  -1.846  20.855  0.00  0.00    +0.210 HD
ENDBRANCH   3  10
BRANCH   1  12
ATOM     12  C   UNL     1       7.930  -0.473  25.246  0.00  0.00    +0.223 C 
BRANCH  12  13
ATOM     13  O   UNL     1       9.030  -1.073  25.926  0.00  0.00    -0.390 OA
ATOM     14  H   UNL     1       9.651  -1.393  25.246  0.00  0.00    +0.210 HD
ENDBRANCH  12  13
ENDBRANCH   1  12
BRANCH   4  15
ATOM     15  C   UNL     1       8.137  -3.426  23.309  0.00  0.00    +0.206 C 
BRANCH  15  16
ATOM     16  O   UNL     1       9.244  -3.725  24.139  0.00  0.00    -0.284 OA
BRANCH  16  17
ATOM     17  P   UNL     1       8.982  -4.670  25.398  0.00  0.00    +0.472 P 
ATOM     18  O   UNL     1       8.978  -3.998  26.721  0.00  0.00    -0.228 OA
BRANCH  17  19
ATOM     19  O   UNL     1      10.072  -5.814  25.210  0.00  0.00    -0.303 OA
ATOM     20  H   UNL     1      10.582  -5.953  26.028  0.00  0.00    +0.222 HD
ENDBRANCH  17  19
BRANCH  17  21
ATOM     21  O   UNL     1       7.613  -5.397  25.013  0.00  0.00    -0.303 OA
ATOM     22  H   UNL     1       7.674  -5.884  24.175  0.00  0.00    +0.222 HD
ENDBRANCH  17  21
ENDBRANCH  16  17
ENDBRANCH  15  16
ENDBRANCH   4  15
TORSDOF 10
ENDMDL
MODEL 8
REMARK VINA RESULT:      -4.9      1.680      2.622
REMARK  Name = 
REMARK  10 active torsions:
REMARK  status: ('A' for Active; 'I' for Inactive)
REMARK    1  A    between atoms: O_1  and  C_2
REMARK    2  A    between atoms: C_2  and  C_3
REMARK    3  A    between atoms: C_3  and  O_4
REMARK    4  A    between atoms: C_6  and  C_8
REMARK    5  A    between atoms: C_8  and  O_9
REMARK    6  A    between atoms: O_9  and  P_10
REMARK    7  A    between atoms: P_10  and  O_11
REMARK    8  A    between atoms: P_10  and  O_12
REMARK    9  A    between atoms: C_14  and  O_16
REMARK   10  A    between atoms: C_17  and  O_19
REMARK                            x       y       z     vdW  Elec       q    Type
REMARK                         _______ _______ _______ _____ _____    ______ ____
ROOT
ATOM      1  C   UNL     1       9.416   1.205  22.261  0.00  0.00    +0.220 C 
ATOM      2  C   UNL     1       9.482   1.619  23.736  0.00  0.00    +0.207 C 
ATOM      3  C   UNL     1       9.740   0.316  24.482  0.00  0.00    +0.179 C 
ATOM      4  C   UNL     1      10.212  -0.667  23.409  0.00  0.00    +0.179 C 
ATOM      5  O   UNL     1      10.190   0.013  22.135  0.00  0.00    -0.336 OA
ENDROOT
BRANCH   1   6
ATOM      6  O   UNL     1      10.063   2.207  21.477  0.00  0.00    -0.361 OA
ATOM      7  H   UNL     1       9.874   1.921  20.564  0.00  0.00    +0.213 HD
ENDBRANCH   1   6
BRANCH   2   8
ATOM      8  O   UNL     1      10.620   2.486  23.969  0.00  0.00    -0.384 OA
ATOM      9  H   UNL     1      10.425   2.908  24.833  0.00  0.00    +0.210 HD
ENDBRANCH   2   8
BRANCH   3  10
ATOM     10  O   UNL     1      10.755   0.484  25.479  0.00  0.00    -0.386 OA
ATOM     11  H   UNL     1      11.233  -0.377  25.497  0.00  0.00    +0.210 HD
ENDBRANCH   3  10
BRANCH   1  12
ATOM     12  C   UNL     1       8.002   0.948  21.698  0.00  0.00    +0.223 C 
BRANCH  12  13
ATOM     13  O   UNL     1       6.962   1.241  22.628  0.00  0.00    -0.390 OA
ATOM     14  H   UNL     1       7.154   0.742  23.443  0.00  0.00    +0.210 HD
ENDBRANCH  12  13
ENDBRANCH   1  12
BRANCH   4  15
ATOM     15  C   UNL     1       9.296  -1.896  23.358  0.00  0.00    +0.206 C 
BRANCH  15  16
ATOM     16  O   UNL     1       9.987  -3.019  23.874  0.00  0.00    -0.284 OA
BRANCH  16  17
ATOM     17  P   UNL     1       9.125  -4.113  24.656  0.00  0.00    +0.472 P 
ATOM     18  O   UNL     1       7.961  -4.665  23.920  0.00  0.00    -0.228 OA
BRANCH  17  19
ATOM     19  O   UNL     1       8.788  -3.378  26.027  0.00  0.00    -0.303 OA
ATOM     20  H   UNL     1       8.195  -2.620  25.884  0.00  0.00    +0.222 HD
ENDBRANCH  17  19
BRANCH  17  21
ATOM     21  O   UNL     1      10.224  -5.193  25.075  0.00  0.00    -0.303 OA
ATOM     22  H   UNL     1      10.755  -4.906  25.837  0.00  0.00    +0.222 HD
ENDBRANCH  17  21
ENDBRANCH  16  17
ENDBRANCH  15  16
ENDBRANCH   4  15
TORSDOF 10
ENDMDL
MODEL 9
REMARK VINA RESULT:      -4.8      3.117      5.733
REMARK  Name = 
REMARK  10 active torsions:
REMARK  status: ('A' for Active; 'I' for Inactive)
REMARK    1  A    between atoms: O_1  and  C_2
REMARK    2  A    between atoms: C_2  and  C_3
REMARK    3  A    between atoms: C_3  and  O_4
REMARK    4  A    between atoms: C_6  and  C_8
REMARK    5  A    between atoms: C_8  and  O_9
REMARK    6  A    between atoms: O_9  and  P_10
REMARK    7  A    between atoms: P_10  and  O_11
REMARK    8  A    between atoms: P_10  and  O_12
REMARK    9  A    between atoms: C_14  and  O_16
REMARK   10  A    between atoms: C_17  and  O_19
REMARK                            x       y       z     vdW  Elec       q    Type
REMARK                         _______ _______ _______ _____ _____    ______ ____
ROOT
ATOM      1  C   UNL     1       7.824  -4.581  26.591  0.00  0.00    +0.220 C 
ATOM      2  C   UNL     1       6.826  -5.197  27.579  0.00  0.00    +0.207 C 
ATOM      3  C   UNL     1       5.683  -5.690  26.702  0.00  0.00    +0.179 C 
ATOM      4  C   UNL     1       6.254  -5.712  25.283  0.00  0.00    +0.179 C 
ATOM      5  O   UNL     1       7.615  -5.231  25.338  0.00  0.00    -0.336 OA
ENDROOT
BRANCH   1   6
ATOM      6  O   UNL     1       9.147  -4.909  27.015  0.00  0.00    -0.361 OA
ATOM      7  H   UNL     1       9.069  -4.900  27.987  0.00  0.00    +0.213 HD
ENDBRANCH   1   6
BRANCH   2   8
ATOM      8  O   UNL     1       7.407  -6.356  28.229  0.00  0.00    -0.384 OA
ATOM      9  H   UNL     1       8.205  -6.553  27.694  0.00  0.00    +0.210 HD
ENDBRANCH   2   8
BRANCH   3  10
ATOM     10  O   UNL     1       5.266  -7.005  27.088  0.00  0.00    -0.386 OA
ATOM     11  H   UNL     1       5.224  -6.976  28.072  0.00  0.00    +0.210 HD
ENDBRANCH   3  10
BRANCH   1  12
ATOM     12  C   UNL     1       7.715  -3.055  26.389  0.00  0.00    +0.223 C 
BRANCH  12  13
ATOM     13  O   UNL     1       8.153  -2.624  25.102  0.00  0.00    -0.390 OA
ATOM     14  H   UNL     1       7.574  -1.889  24.831  0.00  0.00    +0.210 HD
ENDBRANCH  12  13
ENDBRANCH   1  12
BRANCH   4  15
ATOM     15  C   UNL     1       5.425  -4.821  24.350  0.00  0.00    +0.206 C 
BRANCH  15  16
ATOM     16  O   UNL     1       5.330  -5.433  23.077  0.00  0.00    -0.284 OA
BRANCH  16  17
ATOM     17  P   UNL     1       6.422  -5.026  21.985  0.00  0.00    +0.472 P 
ATOM     18  O   UNL     1       5.922  -4.884  20.594  0.00  0.00    -0.228 OA
BRANCH  17  19
ATOM     19  O   UNL     1       7.558  -6.120  22.201  0.00  0.00    -0.303 OA
ATOM     20  H   UNL     1       7.921  -6.076  23.103  0.00  0.00    +0.222 HD
ENDBRANCH  17  19
BRANCH  17  21
ATOM     21  O   UNL     1       7.061  -3.700  22.604  0.00  0.00    -0.303 OA
ATOM     22  H   UNL     1       7.983  -3.568  22.328  0.00  0.00    +0.222 HD
ENDBRANCH  17  21
ENDBRANCH  16  17
ENDBRANCH  15  16
ENDBRANCH   4  15
TORSDOF 10
ENDMDL
