MODEL 1
REMARK VINA RESULT:      -6.1      0.000      0.000
REMARK  Name = 
REMARK  5 active torsions:
REMARK  status: ('A' for Active; 'I' for Inactive)
REMARK    1  A    between atoms: C_1  and  N_2
REMARK    2  A    between atoms: N_2  and  C_3
REMARK    3  A    between atoms: N_2  and  C_4
REMARK    4  A    between atoms: C_8  and  S_14
REMARK    5  A    between atoms: S_14  and  O_15
REMARK                            x       y       z     vdW  Elec       q    Type
REMARK                         _______ _______ _______ _____ _____    ______ ____
ROOT
ATOM      1  C   UNL     1       9.408   0.988  23.382  0.00  0.00    +0.037 A 
ATOM      2  C   UNL     1       9.428   1.137  21.982  0.00  0.00    +0.024 A 
ATOM      3  C   UNL     1       9.355   0.039  21.123  0.00  0.00    +0.002 A 
ATOM      4  C   UNL     1       9.272  -1.246  21.643  0.00  0.00    +0.009 A 
ATOM      5  C   UNL     1       9.222  -1.449  23.026  0.00  0.00    -0.014 A 
ATOM      6  C   UNL     1       9.100  -2.755  23.528  0.00  0.00    +0.038 A 
ATOM      7  C   UNL     1       8.989  -2.968  24.902  0.00  0.00    +0.117 A 
ATOM      8  C   UNL     1       8.977  -1.897  25.788  0.00  0.00    +0.030 A 
ATOM      9  C   UNL     1       9.103  -0.601  25.289  0.00  0.00    +0.012 A 
ATOM     10  C   UNL     1       9.259  -0.334  23.911  0.00  0.00    +0.003 A 
ENDROOT
BRANCH   1  12
ATOM     11  C   UNL     1       8.331   2.691  24.797  0.00  0.00    +0.129 C 
ATOM     12  N   UNL     1       9.551   2.105  24.246  0.00  0.00    -0.336 N 
ATOM     13  C   UNL     1      10.541   3.079  23.763  0.00  0.00    +0.129 C 
ENDBRANCH   1  12
BRANCH   7  14
ATOM     14  S   UNL     1       8.733  -4.605  25.522  0.00  0.00    +0.110 S 
ATOM     15  O   UNL     1       7.610  -5.172  24.812  0.00  0.00    -0.142 OA
ATOM     16  O   UNL     1       8.793  -4.540  26.967  0.00  0.00    -0.142 OA
BRANCH  14  17
ATOM     17  O   UNL     1      10.069  -5.402  25.091  0.00  0.00    -0.250 OA
ATOM     18  H   UNL     1       9.902  -6.359  25.230  0.00  0.00    +0.245 HD
ENDBRANCH  14  17
ENDBRANCH   7  14
TORSDOF 3
ENDMDL
MODEL 2
REMARK VINA RESULT:      -5.9      1.076      2.523
REMARK  Name = 
REMARK  5 active torsions:
REMARK  status: ('A' for Active; 'I' for Inactive)
REMARK    1  A    between atoms: C_1  and  N_2
REMARK    2  A    between atoms: N_2  and  C_3
REMARK    3  A    between atoms: N_2  and  C_4
REMARK    4  A    between atoms: C_8  and  S_14
REMARK    5  A    between atoms: S_14  and  O_15
REMARK                            x       y       z     vdW  Elec       q    Type
REMARK                         _______ _______ _______ _____ _____    ______ ____
ROOT
ATOM      1  C   UNL     1       9.090   1.061  24.237  0.00  0.00    +0.037 A 
ATOM      2  C   UNL     1       8.328   1.833  25.133  0.00  0.00    +0.024 A 
ATOM      3  C   UNL     1       7.549   1.246  26.133  0.00  0.00    +0.002 A 
ATOM      4  C   UNL     1       7.500  -0.136  26.255  0.00  0.00    +0.009 A 
ATOM      5  C   UNL     1       8.259  -0.949  25.405  0.00  0.00    -0.014 A 
ATOM      6  C   UNL     1       8.223  -2.344  25.571  0.00  0.00    +0.038 A 
ATOM      7  C   UNL     1       9.020  -3.163  24.771  0.00  0.00    +0.117 A 
ATOM      8  C   UNL     1       9.870  -2.615  23.818  0.00  0.00    +0.030 A 
ATOM      9  C   UNL     1       9.901  -1.231  23.650  0.00  0.00    +0.012 A 
ATOM     10  C   UNL     1       9.086  -0.360  24.406  0.00  0.00    +0.003 A 
ENDROOT
BRANCH   1  12
ATOM     11  C   UNL     1      10.720   2.766  23.530  0.00  0.00    +0.129 C 
ATOM     12  N   UNL     1       9.824   1.665  23.182  0.00  0.00    -0.336 N 
ATOM     13  C   UNL     1       9.016   1.884  21.974  0.00  0.00    +0.129 C 
ENDBRANCH   1  12
BRANCH   7  14
ATOM     14  S   UNL     1       9.048  -4.909  25.052  0.00  0.00    +0.110 S 
ATOM     15  O   UNL     1       8.533  -5.553  23.866  0.00  0.00    -0.142 OA
ATOM     16  O   UNL     1       8.503  -5.149  26.372  0.00  0.00    -0.142 OA
BRANCH  14  17
ATOM     17  O   UNL     1      10.618  -5.261  25.186  0.00  0.00    -0.250 OA
ATOM     18  H   UNL     1      10.919  -5.610  24.320  0.00  0.00    +0.245 HD
ENDBRANCH  14  17
ENDBRANCH   7  14
TORSDOF 3
ENDMDL
MODEL 3
REMARK VINA RESULT:      -5.8      4.433      5.732
REMARK  Name = 
REMARK  5 active torsions:
REMARK  status: ('A' for Active; 'I' for Inactive)
REMARK    1  A    between atoms: C_1  and  N_2
REMARK    2  A    between atoms: N_2  and  C_3
REMARK    3  A    between atoms: N_2  and  C_4
REMARK    4  A    between atoms: C_8  and  S_14
REMARK    5  A    between atoms: S_14  and  O_15
REMARK                            x       y       z     vdW  Elec       q    Type
REMARK                         _______ _______ _______ _____ _____    ______ ____
ROOT
ATOM      1  C   UNL     1       8.423  -3.510  24.514  0.00  0.00    +0.037 A 
ATOM      2  C   UNL     1       7.663  -4.263  23.599  0.00  0.00    +0.024 A 
ATOM      3  C   UNL     1       7.161  -3.704  22.422  0.00  0.00    +0.002 A 
ATOM      4  C   UNL     1       7.395  -2.366  22.133  0.00  0.00    +0.009 A 
ATOM      5  C   UNL     1       8.165  -1.579  22.996  0.00  0.00    -0.014 A 
ATOM      6  C   UNL     1       8.421  -0.238  22.665  0.00  0.00    +0.038 A 
ATOM      7  C   UNL     1       9.236   0.541  23.486  0.00  0.00    +0.117 A 
ATOM      8  C   UNL     1       9.821   0.001  24.625  0.00  0.00    +0.030 A 
ATOM      9  C   UNL     1       9.563  -1.329  24.956  0.00  0.00    +0.012 A 
ATOM     10  C   UNL     1       8.714  -2.149  24.181  0.00  0.00    +0.003 A 
ENDROOT
BRANCH   1  12
ATOM     11  C   UNL     1       9.868  -5.136  25.669  0.00  0.00    +0.129 C 
ATOM     12  N   UNL     1       8.870  -4.071  25.739  0.00  0.00    -0.336 N 
ATOM     13  C   UNL     1       7.777  -4.311  26.693  0.00  0.00    +0.129 C 
ENDBRANCH   1  12
BRANCH   7  14
ATOM     14  S   UNL     1       9.637   2.198  23.012  0.00  0.00    +0.110 S 
ATOM     15  O   UNL     1      10.848   2.571  23.704  0.00  0.00    -0.142 OA
ATOM     16  O   UNL     1       8.421   2.980  23.084  0.00  0.00    -0.142 OA
BRANCH  14  17
ATOM     17  O   UNL     1       9.962   2.088  21.434  0.00  0.00    -0.250 OA
ATOM     18  H   UNL     1      10.532   1.301  21.302  0.00  0.00    +0.245 HD
ENDBRANCH  14  17
ENDBRANCH   7  14
TORSDOF 3
ENDMDL
MODEL 4
REMARK VINA RESULT:      -5.8      4.627      6.026
REMARK  Name = 
REMARK  5 active torsions:
REMARK  status: ('A' for Active; 'I' for Inactive)
REMARK    1  A    between atoms: C_1  and  N_2
REMARK    2  A    between atoms: N_2  and  C_3
REMARK    3  A    between atoms: N_2  and  C_4
REMARK    4  A    between atoms: C_8  and  S_14
REMARK    5  A    between atoms: S_14  and  O_15
REMARK                            x       y       z     vdW  Elec       q    Type
REMARK                         _______ _______ _______ _____ _____    ______ ____
ROOT
ATOM      1  C   UNL     1       7.076  -4.475  23.541  0.00  0.00    +0.037 A 
ATOM      2  C   UNL     1       8.296  -3.789  23.398  0.00  0.00    +0.024 A 
ATOM      3  C   UNL     1       9.141  -3.553  24.484  0.00  0.00    +0.002 A 
ATOM      4  C   UNL     1       8.780  -3.988  25.753  0.00  0.00    +0.009 A 
ATOM      5  C   UNL     1       7.590  -4.698  25.946  0.00  0.00    -0.014 A 
ATOM      6  C   UNL     1       7.263  -5.161  27.232  0.00  0.00    +0.038 A 
ATOM      7  C   UNL     1       6.110  -5.921  27.428  0.00  0.00    +0.117 A 
ATOM      8  C   UNL     1       5.283  -6.246  26.359  0.00  0.00    +0.030 A 
ATOM      9  C   UNL     1       5.605  -5.782  25.084  0.00  0.00    +0.012 A 
ATOM     10  C   UNL     1       6.738  -4.976  24.838  0.00  0.00    +0.003 A 
ENDROOT
BRANCH   1  12
ATOM     11  C   UNL     1       6.549  -5.658  21.446  0.00  0.00    +0.129 C 
ATOM     12  N   UNL     1       6.194  -4.649  22.442  0.00  0.00    -0.336 N 
ATOM     13  C   UNL     1       5.711  -3.377  21.888  0.00  0.00    +0.129 C 
ENDBRANCH   1  12
BRANCH   7  14
ATOM     14  S   UNL     1       5.757  -6.587  29.028  0.00  0.00    +0.110 S 
ATOM     15  O   UNL     1       5.382  -5.488  29.888  0.00  0.00    -0.142 OA
ATOM     16  O   UNL     1       6.818  -7.515  29.360  0.00  0.00    -0.142 OA
BRANCH  14  17
ATOM     17  O   UNL     1       4.459  -7.517  28.790  0.00  0.00    -0.250 OA
ATOM     18  H   UNL     1       4.418  -8.165  29.525  0.00  0.00    +0.245 HD
ENDBRANCH  14  17
ENDBRANCH   7  14
TORSDOF 3
ENDMDL
MODEL 5
REMARK VINA RESULT:      -5.8      4.235      5.869
REMARK  Name = 
REMARK  5 active torsions:
REMARK  status: ('A' for Active; 'I' for Inactive)
REMARK    1  A    between atoms: C_1  and  N_2
REMARK    2  A    between atoms: N_2  and  C_3
REMARK    3  A    between atoms: N_2  and  C_4
REMARK    4  A    between atoms: C_8  and  S_14
REMARK    5  A    between atoms: S_14  and  O_15
REMARK                            x       y       z     vdW  Elec       q    Type
REMARK                         _______ _______ _______ _____ _____    ______ ____
ROOT
ATOM      1  C   UNL     1       7.283  -4.155  23.148  0.00  0.00    +0.037 A 
ATOM      2  C   UNL     1       7.752  -5.251  23.896  0.00  0.00    +0.024 A 
ATOM      3  C   UNL     1       8.866  -5.150  24.733  0.00  0.00    +0.002 A 
ATOM      4  C   UNL     1       9.553  -3.948  24.833  0.00  0.00    +0.009 A 
ATOM      5  C   UNL     1       9.114  -2.821  24.131  0.00  0.00    -0.014 A 
ATOM      6  C   UNL     1       9.803  -1.605  24.277  0.00  0.00    +0.038 A 
ATOM      7  C   UNL     1       9.342  -0.458  23.630  0.00  0.00    +0.117 A 
ATOM      8  C   UNL     1       8.191  -0.496  22.851  0.00  0.00    +0.030 A 
ATOM      9  C   UNL     1       7.511  -1.705  22.702  0.00  0.00    +0.012 A 
ATOM     10  C   UNL     1       7.958  -2.902  23.303  0.00  0.00    +0.003 A 
ENDROOT
BRANCH   1  12
ATOM     11  C   UNL     1       4.845  -4.170  22.804  0.00  0.00    +0.129 C 
ATOM     12  N   UNL     1       6.192  -4.287  22.249  0.00  0.00    -0.336 N 
ATOM     13  C   UNL     1       6.371  -5.384  21.288  0.00  0.00    +0.129 C 
ENDBRANCH   1  12
BRANCH   7  14
ATOM     14  S   UNL     1      10.153   1.091  23.898  0.00  0.00    +0.110 S 
ATOM     15  O   UNL     1      10.037   1.863  22.682  0.00  0.00    -0.142 OA
ATOM     16  O   UNL     1      11.425   0.815  24.533  0.00  0.00    -0.142 OA
BRANCH  14  17
ATOM     17  O   UNL     1       9.268   1.805  25.044  0.00  0.00    -0.250 OA
ATOM     18  H   UNL     1       9.746   1.703  25.895  0.00  0.00    +0.245 HD
ENDBRANCH  14  17
ENDBRANCH   7  14
TORSDOF 3
ENDMDL
MODEL 6
REMARK VINA RESULT:      -5.8      2.986      4.035
REMARK  Name = 
REMARK  5 active torsions:
REMARK  status: ('A' for Active; 'I' for Inactive)
REMARK    1  A    between atoms: C_1  and  N_2
REMARK    2  A    between atoms: N_2  and  C_3
REMARK    3  A    between atoms: N_2  and  C_4
REMARK    4  A    between atoms: C_8  and  S_14
REMARK    5  A    between atoms: S_14  and  O_15
REMARK                            x       y       z     vdW  Elec       q    Type
REMARK                         _______ _______ _______ _____ _____    ______ ____
ROOT
ATOM      1  C   UNL     1       8.764   4.474  23.676  0.00  0.00    +0.037 A 
ATOM      2  C   UNL     1       7.672   5.117  23.065  0.00  0.00    +0.024 A 
ATOM      3  C   UNL     1       6.789   4.433  22.226  0.00  0.00    +0.002 A 
ATOM      4  C   UNL     1       6.985   3.084  21.963  0.00  0.00    +0.009 A 
ATOM      5  C   UNL     1       8.041   2.391  22.565  0.00  0.00    -0.014 A 
ATOM      6  C   UNL     1       8.197   1.017  22.314  0.00  0.00    +0.038 A 
ATOM      7  C   UNL     1       9.209   0.301  22.953  0.00  0.00    +0.117 A 
ATOM      8  C   UNL     1      10.059   0.926  23.857  0.00  0.00    +0.030 A 
ATOM      9  C   UNL     1       9.907   2.290  24.102  0.00  0.00    +0.012 A 
ATOM     10  C   UNL     1       8.925   3.069  23.452  0.00  0.00    +0.003 A 
ENDROOT
BRANCH   1  12
ATOM     11  C   UNL     1       9.165   5.957  25.601  0.00  0.00    +0.129 C 
ATOM     12  N   UNL     1       9.694   5.194  24.472  0.00  0.00    -0.336 N 
ATOM     13  C   UNL     1      10.710   5.894  23.675  0.00  0.00    +0.129 C 
ENDBRANCH   1  12
BRANCH   7  14
ATOM     14  S   UNL     1       9.338  -1.447  22.712  0.00  0.00    +0.110 S 
ATOM     15  O   UNL     1       8.042  -1.928  22.290  0.00  0.00    -0.142 OA
ATOM     16  O   UNL     1      10.043  -1.995  23.852  0.00  0.00    -0.142 OA
BRANCH  14  17
ATOM     17  O   UNL     1      10.368  -1.600  21.479  0.00  0.00    -0.250 OA
ATOM     18  H   UNL     1      10.867  -2.434  21.610  0.00  0.00    +0.245 HD
ENDBRANCH  14  17
ENDBRANCH   7  14
TORSDOF 3
ENDMDL
MODEL 7
REMARK VINA RESULT:      -5.7      2.733      4.346
REMARK  Name = 
REMARK  5 active torsions:
REMARK  status: ('A' for Active; 'I' for Inactive)
REMARK    1  A    between atoms: C_1  and  N_2
REMARK    2  A    between atoms: N_2  and  C_3
REMARK    3  A    between atoms: N_2  and  C_4
REMARK    4  A    between atoms: C_8  and  S_14
REMARK    5  A    between atoms: S_14  and  O_15
REMARK                            x       y       z     vdW  Elec       q    Type
REMARK                         _______ _______ _______ _____ _____    ______ ____
ROOT
ATOM      1  C   UNL     1       8.983   4.286  24.338  0.00  0.00    +0.037 A 
ATOM      2  C   UNL     1       8.216   4.580  25.481  0.00  0.00    +0.024 A 
ATOM      3  C   UNL     1       7.527   3.588  26.182  0.00  0.00    +0.002 A 
ATOM      4  C   UNL     1       7.576   2.269  25.749  0.00  0.00    +0.009 A 
ATOM      5  C   UNL     1       8.344   1.919  24.633  0.00  0.00    -0.014 A 
ATOM      6  C   UNL     1       8.408   0.572  24.235  0.00  0.00    +0.038 A 
ATOM      7  C   UNL     1       9.217   0.200  23.162  0.00  0.00    +0.117 A 
ATOM      8  C   UNL     1       9.981   1.144  22.487  0.00  0.00    +0.030 A 
ATOM      9  C   UNL     1       9.913   2.480  22.878  0.00  0.00    +0.012 A 
ATOM     10  C   UNL     1       9.080   2.916  23.933  0.00  0.00    +0.003 A 
ENDROOT
BRANCH   1  12
ATOM     11  C   UNL     1      10.863   5.862  24.136  0.00  0.00    +0.129 C 
ATOM     12  N   UNL     1       9.623   5.311  23.594  0.00  0.00    -0.336 N 
ATOM     13  C   UNL     1       8.682   6.310  23.068  0.00  0.00    +0.129 C 
ENDBRANCH   1  12
BRANCH   7  14
ATOM     14  S   UNL     1       9.373  -1.509  22.729  0.00  0.00    +0.110 S 
ATOM     15  O   UNL     1       8.086  -1.961  22.254  0.00  0.00    -0.142 OA
ATOM     16  O   UNL     1      10.087  -2.168  23.803  0.00  0.00    -0.142 OA
BRANCH  14  17
ATOM     17  O   UNL     1      10.407  -1.508  21.489  0.00  0.00    -0.250 OA
ATOM     18  H   UNL     1       9.884  -1.393  20.667  0.00  0.00    +0.245 HD
ENDBRANCH  14  17
ENDBRANCH   7  14
TORSDOF 3
ENDMDL
MODEL 8
REMARK VINA RESULT:      -5.6      5.837      6.961
REMARK  Name = 
REMARK  5 active torsions:
REMARK  status: ('A' for Active; 'I' for Inactive)
REMARK    1  A    between atoms: C_1  and  N_2
REMARK    2  A    between atoms: N_2  and  C_3
REMARK    3  A    between atoms: N_2  and  C_4
REMARK    4  A    between atoms: C_8  and  S_14
REMARK    5  A    between atoms: S_14  and  O_15
REMARK                            x       y       z     vdW  Elec       q    Type
REMARK                         _______ _______ _______ _____ _____    ______ ____
ROOT
ATOM      1  C   UNL     1       8.459  -0.126  23.455  0.00  0.00    +0.037 A 
ATOM      2  C   UNL     1       9.607  -0.592  24.124  0.00  0.00    +0.024 A 
ATOM      3  C   UNL     1      10.597   0.280  24.582  0.00  0.00    +0.002 A 
ATOM      4  C   UNL     1      10.472   1.647  24.370  0.00  0.00    +0.009 A 
ATOM      5  C   UNL     1       9.340   2.164  23.734  0.00  0.00    -0.014 A 
ATOM      6  C   UNL     1       9.217   3.554  23.564  0.00  0.00    +0.038 A 
ATOM      7  C   UNL     1       8.067   4.088  22.985  0.00  0.00    +0.117 A 
ATOM      8  C   UNL     1       7.022   3.262  22.588  0.00  0.00    +0.030 A 
ATOM      9  C   UNL     1       7.146   1.883  22.751  0.00  0.00    +0.012 A 
ATOM     10  C   UNL     1       8.306   1.288  23.295  0.00  0.00    +0.003 A 
ENDROOT
BRANCH   1  12
ATOM     11  C   UNL     1       6.381  -1.400  23.807  0.00  0.00    +0.129 C 
ATOM     12  N   UNL     1       7.492  -1.026  22.935  0.00  0.00    -0.336 N 
ATOM     13  C   UNL     1       8.091  -2.139  22.185  0.00  0.00    +0.129 C 
ENDBRANCH   1  12
BRANCH   7  14
ATOM     14  S   UNL     1       7.874   5.843  22.866  0.00  0.00    +0.110 S 
ATOM     15  O   UNL     1       9.158   6.444  23.141  0.00  0.00    -0.142 OA
ATOM     16  O   UNL     1       6.671   6.201  23.589  0.00  0.00    -0.142 OA
BRANCH  14  17
ATOM     17  O   UNL     1       7.511   6.095  21.314  0.00  0.00    -0.250 OA
ATOM     18  H   UNL     1       7.319   7.051  21.205  0.00  0.00    +0.245 HD
ENDBRANCH  14  17
ENDBRANCH   7  14
TORSDOF 3
ENDMDL
MODEL 9
REMARK VINA RESULT:      -5.5      1.691      2.637
REMARK  Name = 
REMARK  5 active torsions:
REMARK  status: ('A' for Active; 'I' for Inactive)
REMARK    1  A    between atoms: C_1  and  N_2
REMARK    2  A    between atoms: N_2  and  C_3
REMARK    3  A    between atoms: N_2  and  C_4
REMARK    4  A    between atoms: C_8  and  S_14
REMARK    5  A    between atoms: S_14  and  O_15
REMARK                            x       y       z     vdW  Elec       q    Type
REMARK                         _______ _______ _______ _____ _____    ______ ____
ROOT
ATOM      1  C   UNL     1       8.280   1.388  23.620  0.00  0.00    +0.037 A 
ATOM      2  C   UNL     1       9.490   2.050  23.904  0.00  0.00    +0.024 A 
ATOM      3  C   UNL     1      10.620   1.362  24.350  0.00  0.00    +0.002 A 
ATOM      4  C   UNL     1      10.566  -0.013  24.539  0.00  0.00    +0.009 A 
ATOM      5  C   UNL     1       9.397  -0.723  24.247  0.00  0.00    -0.014 A 
ATOM      6  C   UNL     1       9.378  -2.119  24.410  0.00  0.00    +0.038 A 
ATOM      7  C   UNL     1       8.239  -2.846  24.066  0.00  0.00    +0.117 A 
ATOM      8  C   UNL     1       7.120  -2.210  23.543  0.00  0.00    +0.030 A 
ATOM      9  C   UNL     1       7.137  -0.824  23.387  0.00  0.00    +0.012 A 
ATOM     10  C   UNL     1       8.250  -0.037  23.756  0.00  0.00    +0.003 A 
ENDROOT
BRANCH   1  12
ATOM     11  C   UNL     1       7.146   2.784  21.938  0.00  0.00    +0.129 C 
ATOM     12  N   UNL     1       7.119   2.107  23.233  0.00  0.00    -0.336 N 
ATOM     13  C   UNL     1       6.540   2.894  24.330  0.00  0.00    +0.129 C 
ENDBRANCH   1  12
BRANCH   7  14
ATOM     14  S   UNL     1       8.255  -4.612  24.177  0.00  0.00    +0.110 S 
ATOM     15  O   UNL     1       9.568  -5.011  24.631  0.00  0.00    -0.142 OA
ATOM     16  O   UNL     1       7.654  -5.132  22.966  0.00  0.00    -0.142 OA
BRANCH  14  17
ATOM     17  O   UNL     1       7.187  -4.944  25.341  0.00  0.00    -0.250 OA
ATOM     18  H   UNL     1       7.684  -5.305  26.106  0.00  0.00    +0.245 HD
ENDBRANCH  14  17
ENDBRANCH   7  14
TORSDOF 3
ENDMDL
