MODEL 1
REMARK VINA RESULT:      -7.1      0.000      0.000
REMARK  Name = 
REMARK  15 active torsions:
REMARK  status: ('A' for Active; 'I' for Inactive)
REMARK    1  A    between atoms: C_2  and  C_3
REMARK    2  A    between atoms: C_3  and  O_4
REMARK    3  A    between atoms: O_4  and  P_5
REMARK    4  A    between atoms: P_5  and  O_6
REMARK    5  A    between atoms: P_5  and  O_7
REMARK    6  A    between atoms: C_10  and  N_12
REMARK    7  A    between atoms: C_18  and  S_19
REMARK    8  A    between atoms: S_19  and  C_20
REMARK    9  A    between atoms: N_23  and  C_24
REMARK   10  A    between atoms: C_24  and  C_25
REMARK   11  A    between atoms: C_25  and  C_26
REMARK   12  A    between atoms: C_26  and  C_27
REMARK   13  A    between atoms: C_26  and  C_28
REMARK   14  A    between atoms: C_29  and  O_31
REMARK   15  A    between atoms: C_32  and  O_34
REMARK                            x       y       z     vdW  Elec       q    Type
REMARK                         _______ _______ _______ _____ _____    ______ ____
ROOT
ATOM      1  N   UNL     1       7.552  -1.438  22.496  0.00  0.00    -0.285 N 
ATOM      2  C   UNL     1       7.583  -0.150  22.964  0.00  0.00    +0.169 A 
ATOM      3  N   UNL     1       6.631   0.490  23.663  0.00  0.00    -0.202 NA
ATOM      4  C   UNL     1       7.035   1.745  23.994  0.00  0.00    +0.192 A 
ATOM      5  N   UNL     1       8.219   2.333  23.702  0.00  0.00    -0.205 NA
ATOM      6  C   UNL     1       9.143   1.658  22.970  0.00  0.00    +0.151 A 
ATOM      7  N   UNL     1      10.363   2.255  22.617  0.00  0.00    -0.327 N 
ATOM      8  H   UNL     1      10.974   1.556  22.197  0.00  0.00    +0.148 HD
ATOM      9  C   UNL     1       8.817   0.349  22.570  0.00  0.00    +0.148 A 
ATOM     10  N   UNL     1       9.529  -0.605  21.872  0.00  0.00    -0.231 NA
ATOM     11  C   UNL     1       8.745  -1.664  21.859  0.00  0.00    +0.203 A 
ENDROOT
BRANCH   1  15
ATOM     12  C   UNL     1       5.987  -4.121  24.226  0.00  0.00    +0.178 C 
ATOM     13  C   UNL     1       6.302  -4.837  22.921  0.00  0.00    +0.178 C 
ATOM     14  C   UNL     1       6.595  -3.709  21.923  0.00  0.00    +0.195 C 
ATOM     15  C   UNL     1       6.522  -2.424  22.765  0.00  0.00    +0.253 C 
ATOM     16  O   UNL     1       6.629  -2.841  24.135  0.00  0.00    -0.346 OA
BRANCH  13  17
ATOM     17  O   UNL     1       5.211  -5.661  22.522  0.00  0.00    -0.386 OA
ATOM     18  H   UNL     1       4.900  -5.297  21.664  0.00  0.00    +0.210 HD
ENDBRANCH  13  17
BRANCH  14  19
ATOM     19  O   UNL     1       5.629  -3.735  20.864  0.00  0.00    -0.385 OA
ATOM     20  H   UNL     1       5.129  -2.895  20.928  0.00  0.00    +0.210 HD
ENDBRANCH  14  19
BRANCH  12  21
ATOM     21  C   UNL     1       6.481  -4.870  25.462  0.00  0.00    +0.206 C 
BRANCH  21  22
ATOM     22  O   UNL     1       7.722  -5.482  25.134  0.00  0.00    -0.284 OA
BRANCH  22  23
ATOM     23  P   UNL     1       9.056  -4.781  25.649  0.00  0.00    +0.472 P 
ATOM     24  O   UNL     1       8.989  -4.067  26.951  0.00  0.00    -0.228 OA
BRANCH  23  25
ATOM     25  O   UNL     1       9.542  -3.926  24.393  0.00  0.00    -0.303 OA
ATOM     26  H   UNL     1      10.318  -3.389  24.630  0.00  0.00    +0.222 HD
ENDBRANCH  23  25
BRANCH  23  27
ATOM     27  O   UNL     1      10.129  -5.964  25.636  0.00  0.00    -0.303 OA
ATOM     28  H   UNL     1      10.572  -6.032  26.503  0.00  0.00    +0.222 HD
ENDBRANCH  23  27
ENDBRANCH  22  23
ENDBRANCH  21  22
ENDBRANCH  12  21
ENDBRANCH   1  15
BRANCH   4  29
ATOM     29  S   UNL     1       5.878   2.785  24.863  0.00  0.00    -0.089 S 
ATOM     30  C   UNL     1       6.146   4.348  24.003  0.00  0.00    +0.093 C 
ENDBRANCH   4  29
BRANCH   7  31
ATOM     31  C   UNL     1      10.978   3.076  23.656  0.00  0.00    +0.103 C 
BRANCH  31  32
ATOM     32  C   UNL     1      11.129   4.520  23.149  0.00  0.00    +0.021 C 
BRANCH  32  33
ATOM     33  C   UNL     1      12.507   5.146  23.443  0.00  0.00    -0.016 C 
ATOM     34  C   UNL     1      12.357   6.339  24.392  0.00  0.00    +0.007 C 
ATOM     35  C   UNL     1      13.234   5.596  22.175  0.00  0.00    +0.007 C 
ENDBRANCH  32  33
ENDBRANCH  31  32
ENDBRANCH   7  31
TORSDOF 12
ENDMDL
MODEL 2
REMARK VINA RESULT:      -6.9      2.311      3.137
REMARK  Name = 
REMARK  15 active torsions:
REMARK  status: ('A' for Active; 'I' for Inactive)
REMARK    1  A    between atoms: C_2  and  C_3
REMARK    2  A    between atoms: C_3  and  O_4
REMARK    3  A    between atoms: O_4  and  P_5
REMARK    4  A    between atoms: P_5  and  O_6
REMARK    5  A    between atoms: P_5  and  O_7
REMARK    6  A    between atoms: C_10  and  N_12
REMARK    7  A    between atoms: C_18  and  S_19
REMARK    8  A    between atoms: S_19  and  C_20
REMARK    9  A    between atoms: N_23  and  C_24
REMARK   10  A    between atoms: C_24  and  C_25
REMARK   11  A    between atoms: C_25  and  C_26
REMARK   12  A    between atoms: C_26  and  C_27
REMARK   13  A    between atoms: C_26  and  C_28
REMARK   14  A    between atoms: C_29  and  O_31
REMARK   15  A    between atoms: C_32  and  O_34
REMARK                            x       y       z     vdW  Elec       q    Type
REMARK                         _______ _______ _______ _____ _____    ______ ____
ROOT
ATOM      1  N   UNL     1       8.621  -2.238  23.336  0.00  0.00    -0.285 N 
ATOM      2  C   UNL     1       8.347  -1.074  24.006  0.00  0.00    +0.169 A 
ATOM      3  N   UNL     1       7.725  -0.938  25.189  0.00  0.00    -0.202 NA
ATOM      4  C   UNL     1       7.673   0.369  25.561  0.00  0.00    +0.192 A 
ATOM      5  N   UNL     1       8.166   1.436  24.890  0.00  0.00    -0.205 NA
ATOM      6  C   UNL     1       8.765   1.255  23.684  0.00  0.00    +0.151 A 
ATOM      7  N   UNL     1       9.248   2.346  22.945  0.00  0.00    -0.327 N 
ATOM      8  H   UNL     1       9.783   2.006  22.147  0.00  0.00    +0.148 HD
ATOM      9  C   UNL     1       8.861  -0.064  23.204  0.00  0.00    +0.148 A 
ATOM     10  N   UNL     1       9.436  -0.590  22.065  0.00  0.00    -0.231 NA
ATOM     11  C   UNL     1       9.283  -1.893  22.185  0.00  0.00    +0.203 A 
ENDROOT
BRANCH   1  15
ATOM     12  C   UNL     1       6.953  -4.814  25.130  0.00  0.00    +0.178 C 
ATOM     13  C   UNL     1       8.230  -4.745  25.954  0.00  0.00    +0.178 C 
ATOM     14  C   UNL     1       9.222  -3.984  25.065  0.00  0.00    +0.195 C 
ATOM     15  C   UNL     1       8.400  -3.584  23.829  0.00  0.00    +0.253 C 
ATOM     16  O   UNL     1       7.022  -3.716  24.209  0.00  0.00    -0.346 OA
BRANCH  13  17
ATOM     17  O   UNL     1       8.682  -6.052  26.295  0.00  0.00    -0.386 OA
ATOM     18  H   UNL     1       9.246  -5.942  27.092  0.00  0.00    +0.210 HD
ENDBRANCH  13  17
BRANCH  14  19
ATOM     19  O   UNL     1      10.335  -4.830  24.743  0.00  0.00    -0.385 OA
ATOM     20  H   UNL     1      11.133  -4.266  24.794  0.00  0.00    +0.210 HD
ENDBRANCH  14  19
BRANCH  12  21
ATOM     21  C   UNL     1       5.683  -4.715  25.973  0.00  0.00    +0.206 C 
BRANCH  21  22
ATOM     22  O   UNL     1       6.064  -4.753  27.342  0.00  0.00    -0.284 OA
BRANCH  22  23
ATOM     23  P   UNL     1       5.567  -5.985  28.219  0.00  0.00    +0.472 P 
ATOM     24  O   UNL     1       4.469  -5.730  29.188  0.00  0.00    -0.228 OA
BRANCH  23  25
ATOM     25  O   UNL     1       6.916  -6.591  28.817  0.00  0.00    -0.303 OA
ATOM     26  H   UNL     1       6.920  -6.514  29.786  0.00  0.00    +0.222 HD
ENDBRANCH  23  25
BRANCH  23  27
ATOM     27  O   UNL     1       5.199  -7.094  27.130  0.00  0.00    -0.303 OA
ATOM     28  H   UNL     1       5.813  -7.044  26.373  0.00  0.00    +0.222 HD
ENDBRANCH  23  27
ENDBRANCH  22  23
ENDBRANCH  21  22
ENDBRANCH  12  21
ENDBRANCH   1  15
BRANCH   4  29
ATOM     29  S   UNL     1       6.818   0.766  27.073  0.00  0.00    -0.089 S 
ATOM     30  C   UNL     1       5.791  -0.706  27.254  0.00  0.00    +0.093 C 
ENDBRANCH   4  29
BRANCH   7  31
ATOM     31  C   UNL     1       9.899   3.390  23.731  0.00  0.00    +0.103 C 
BRANCH  31  32
ATOM     32  C   UNL     1      11.363   3.534  23.283  0.00  0.00    +0.021 C 
BRANCH  32  33
ATOM     33  C   UNL     1      11.961   4.933  23.537  0.00  0.00    -0.016 C 
ATOM     34  C   UNL     1      10.842   5.963  23.725  0.00  0.00    +0.007 C 
ATOM     35  C   UNL     1      12.888   5.393  22.410  0.00  0.00    +0.007 C 
ENDBRANCH  32  33
ENDBRANCH  31  32
ENDBRANCH   7  31
TORSDOF 12
ENDMDL
MODEL 3
REMARK VINA RESULT:      -6.8      1.750      3.059
REMARK  Name = 
REMARK  15 active torsions:
REMARK  status: ('A' for Active; 'I' for Inactive)
REMARK    1  A    between atoms: C_2  and  C_3
REMARK    2  A    between atoms: C_3  and  O_4
REMARK    3  A    between atoms: O_4  and  P_5
REMARK    4  A    between atoms: P_5  and  O_6
REMARK    5  A    between atoms: P_5  and  O_7
REMARK    6  A    between atoms: C_10  and  N_12
REMARK    7  A    between atoms: C_18  and  S_19
REMARK    8  A    between atoms: S_19  and  C_20
REMARK    9  A    between atoms: N_23  and  C_24
REMARK   10  A    between atoms: C_24  and  C_25
REMARK   11  A    between atoms: C_25  and  C_26
REMARK   12  A    between atoms: C_26  and  C_27
REMARK   13  A    between atoms: C_26  and  C_28
REMARK   14  A    between atoms: C_29  and  O_31
REMARK   15  A    between atoms: C_32  and  O_34
REMARK                            x       y       z     vdW  Elec       q    Type
REMARK                         _______ _______ _______ _____ _____    ______ ____
ROOT
ATOM      1  N   UNL     1       8.732  -0.564  22.415  0.00  0.00    -0.285 N 
ATOM      2  C   UNL     1       8.132   0.487  23.059  0.00  0.00    +0.169 A 
ATOM      3  N   UNL     1       7.076   0.444  23.889  0.00  0.00    -0.202 NA
ATOM      4  C   UNL     1       6.791   1.682  24.375  0.00  0.00    +0.192 A 
ATOM      5  N   UNL     1       7.441   2.839  24.111  0.00  0.00    -0.205 NA
ATOM      6  C   UNL     1       8.488   2.841  23.245  0.00  0.00    +0.151 A 
ATOM      7  N   UNL     1       9.156   4.032  22.920  0.00  0.00    -0.327 N 
ATOM      8  H   UNL     1       9.990   3.816  22.376  0.00  0.00    +0.148 HD
ATOM      9  C   UNL     1       8.859   1.607  22.680  0.00  0.00    +0.148 A 
ATOM     10  N   UNL     1       9.880   1.258  21.819  0.00  0.00    -0.231 NA
ATOM     11  C   UNL     1       9.779  -0.050  21.694  0.00  0.00    +0.203 A 
ENDROOT
BRANCH   1  15
ATOM     12  C   UNL     1       6.664  -3.383  23.063  0.00  0.00    +0.178 C 
ATOM     13  C   UNL     1       7.535  -3.441  24.309  0.00  0.00    +0.178 C 
ATOM     14  C   UNL     1       8.742  -2.553  23.978  0.00  0.00    +0.195 C 
ATOM     15  C   UNL     1       8.419  -1.970  22.592  0.00  0.00    +0.253 C 
ATOM     16  O   UNL     1       7.009  -2.157  22.402  0.00  0.00    -0.346 OA
BRANCH  13  17
ATOM     17  O   UNL     1       7.901  -4.785  24.607  0.00  0.00    -0.386 OA
ATOM     18  H   UNL     1       8.276  -4.765  25.515  0.00  0.00    +0.210 HD
ENDBRANCH  13  17
BRANCH  14  19
ATOM     19  O   UNL     1       9.941  -3.341  23.984  0.00  0.00    -0.385 OA
ATOM     20  H   UNL     1      10.174  -3.479  24.925  0.00  0.00    +0.210 HD
ENDBRANCH  14  19
BRANCH  12  21
ATOM     21  C   UNL     1       5.168  -3.413  23.368  0.00  0.00    +0.206 C 
BRANCH  21  22
ATOM     22  O   UNL     1       4.587  -4.460  22.602  0.00  0.00    -0.284 OA
BRANCH  22  23
ATOM     23  P   UNL     1       4.750  -5.951  23.136  0.00  0.00    +0.472 P 
ATOM     24  O   UNL     1       5.140  -6.123  24.561  0.00  0.00    -0.228 OA
BRANCH  23  25
ATOM     25  O   UNL     1       5.697  -6.639  22.053  0.00  0.00    -0.303 OA
ATOM     26  H   UNL     1       5.183  -7.249  21.495  0.00  0.00    +0.222 HD
ENDBRANCH  23  25
BRANCH  23  27
ATOM     27  O   UNL     1       3.349  -6.630  22.782  0.00  0.00    -0.303 OA
ATOM     28  H   UNL     1       2.943  -6.192  22.011  0.00  0.00    +0.222 HD
ENDBRANCH  23  27
ENDBRANCH  22  23
ENDBRANCH  21  22
ENDBRANCH  12  21
ENDBRANCH   1  15
BRANCH   4  29
ATOM     29  S   UNL     1       5.371   1.846  25.439  0.00  0.00    -0.089 S 
ATOM     30  C   UNL     1       5.178   0.136  25.978  0.00  0.00    +0.093 C 
ENDBRANCH   4  29
BRANCH   7  31
ATOM     31  C   UNL     1       9.362   4.954  24.034  0.00  0.00    +0.103 C 
BRANCH  31  32
ATOM     32  C   UNL     1      10.399   6.017  23.638  0.00  0.00    +0.021 C 
BRANCH  32  33
ATOM     33  C   UNL     1      11.835   5.694  24.097  0.00  0.00    -0.016 C 
ATOM     34  C   UNL     1      12.349   6.785  25.043  0.00  0.00    +0.007 C 
ATOM     35  C   UNL     1      12.809   5.537  22.928  0.00  0.00    +0.007 C 
ENDBRANCH  32  33
ENDBRANCH  31  32
ENDBRANCH   7  31
TORSDOF 12
ENDMDL
MODEL 4
REMARK VINA RESULT:      -6.6      2.348      3.601
REMARK  Name = 
REMARK  15 active torsions:
REMARK  status: ('A' for Active; 'I' for Inactive)
REMARK    1  A    between atoms: C_2  and  C_3
REMARK    2  A    between atoms: C_3  and  O_4
REMARK    3  A    between atoms: O_4  and  P_5
REMARK    4  A    between atoms: P_5  and  O_6
REMARK    5  A    between atoms: P_5  and  O_7
REMARK    6  A    between atoms: C_10  and  N_12
REMARK    7  A    between atoms: C_18  and  S_19
REMARK    8  A    between atoms: S_19  and  C_20
REMARK    9  A    between atoms: N_23  and  C_24
REMARK   10  A    between atoms: C_24  and  C_25
REMARK   11  A    between atoms: C_25  and  C_26
REMARK   12  A    between atoms: C_26  and  C_27
REMARK   13  A    between atoms: C_26  and  C_28
REMARK   14  A    between atoms: C_29  and  O_31
REMARK   15  A    between atoms: C_32  and  O_34
REMARK                            x       y       z     vdW  Elec       q    Type
REMARK                         _______ _______ _______ _____ _____    ______ ____
ROOT
ATOM      1  N   UNL     1       8.015  -2.454  23.180  0.00  0.00    -0.285 N 
ATOM      2  C   UNL     1       7.350  -1.374  23.701  0.00  0.00    +0.169 A 
ATOM      3  N   UNL     1       6.503  -1.359  24.744  0.00  0.00    -0.202 NA
ATOM      4  C   UNL     1       6.072  -0.095  25.000  0.00  0.00    +0.192 A 
ATOM      5  N   UNL     1       6.413   1.039  24.344  0.00  0.00    -0.205 NA
ATOM      6  C   UNL     1       7.253   0.975  23.279  0.00  0.00    +0.151 A 
ATOM      7  N   UNL     1       7.593   2.127  22.554  0.00  0.00    -0.327 N 
ATOM      8  H   UNL     1       8.333   1.906  21.890  0.00  0.00    +0.148 HD
ATOM      9  C   UNL     1       7.749  -0.294  22.926  0.00  0.00    +0.148 A 
ATOM     10  N   UNL     1       8.636  -0.696  21.948  0.00  0.00    -0.231 NA
ATOM     11  C   UNL     1       8.779  -1.992  22.139  0.00  0.00    +0.203 A 
ENDROOT
BRANCH   1  15
ATOM     12  C   UNL     1       6.790  -5.228  25.036  0.00  0.00    +0.178 C 
ATOM     13  C   UNL     1       7.994  -4.882  25.899  0.00  0.00    +0.178 C 
ATOM     14  C   UNL     1       8.860  -3.981  25.011  0.00  0.00    +0.195 C 
ATOM     15  C   UNL     1       8.032  -3.797  23.729  0.00  0.00    +0.253 C 
ATOM     16  O   UNL     1       6.689  -4.175  24.067  0.00  0.00    -0.346 OA
BRANCH  13  17
ATOM     17  O   UNL     1       8.671  -6.064  26.318  0.00  0.00    -0.386 OA
ATOM     18  H   UNL     1       8.024  -6.795  26.213  0.00  0.00    +0.210 HD
ENDBRANCH  13  17
BRANCH  14  19
ATOM     19  O   UNL     1      10.127  -4.610  24.768  0.00  0.00    -0.385 OA
ATOM     20  H   UNL     1      10.715  -4.334  25.500  0.00  0.00    +0.210 HD
ENDBRANCH  14  19
BRANCH  12  21
ATOM     21  C   UNL     1       5.489  -5.341  25.828  0.00  0.00    +0.206 C 
BRANCH  21  22
ATOM     22  O   UNL     1       5.548  -6.536  26.596  0.00  0.00    -0.284 OA
BRANCH  22  23
ATOM     23  P   UNL     1       5.563  -6.400  28.183  0.00  0.00    +0.472 P 
ATOM     24  O   UNL     1       6.889  -6.432  28.854  0.00  0.00    -0.228 OA
BRANCH  23  25
ATOM     25  O   UNL     1       4.495  -7.482  28.664  0.00  0.00    -0.303 OA
ATOM     26  H   UNL     1       4.295  -8.102  27.943  0.00  0.00    +0.222 HD
ENDBRANCH  23  25
BRANCH  23  27
ATOM     27  O   UNL     1       4.757  -5.047  28.449  0.00  0.00    -0.303 OA
ATOM     28  H   UNL     1       3.796  -5.214  28.434  0.00  0.00    +0.222 HD
ENDBRANCH  23  27
ENDBRANCH  22  23
ENDBRANCH  21  22
ENDBRANCH  12  21
ENDBRANCH   1  15
BRANCH   4  29
ATOM     29  S   UNL     1       4.878   0.124  26.305  0.00  0.00    -0.089 S 
ATOM     30  C   UNL     1       4.528  -1.599  26.708  0.00  0.00    +0.093 C 
ENDBRANCH   4  29
BRANCH   7  31
ATOM     31  C   UNL     1       7.817   3.325  23.359  0.00  0.00    +0.103 C 
BRANCH  31  32
ATOM     32  C   UNL     1       9.065   3.130  24.236  0.00  0.00    +0.021 C 
BRANCH  32  33
ATOM     33  C   UNL     1      10.314   2.671  23.456  0.00  0.00    -0.016 C 
ATOM     34  C   UNL     1      10.903   1.409  24.093  0.00  0.00    +0.007 C 
ATOM     35  C   UNL     1      11.393   3.753  23.381  0.00  0.00    +0.007 C 
ENDBRANCH  32  33
ENDBRANCH  31  32
ENDBRANCH   7  31
TORSDOF 12
ENDMDL
MODEL 5
REMARK VINA RESULT:      -6.6      2.625      3.496
REMARK  Name = 
REMARK  15 active torsions:
REMARK  status: ('A' for Active; 'I' for Inactive)
REMARK    1  A    between atoms: C_2  and  C_3
REMARK    2  A    between atoms: C_3  and  O_4
REMARK    3  A    between atoms: O_4  and  P_5
REMARK    4  A    between atoms: P_5  and  O_6
REMARK    5  A    between atoms: P_5  and  O_7
REMARK    6  A    between atoms: C_10  and  N_12
REMARK    7  A    between atoms: C_18  and  S_19
REMARK    8  A    between atoms: S_19  and  C_20
REMARK    9  A    between atoms: N_23  and  C_24
REMARK   10  A    between atoms: C_24  and  C_25
REMARK   11  A    between atoms: C_25  and  C_26
REMARK   12  A    between atoms: C_26  and  C_27
REMARK   13  A    between atoms: C_26  and  C_28
REMARK   14  A    between atoms: C_29  and  O_31
REMARK   15  A    between atoms: C_32  and  O_34
REMARK                            x       y       z     vdW  Elec       q    Type
REMARK                         _______ _______ _______ _____ _____    ______ ____
ROOT
ATOM      1  N   UNL     1       6.111  -3.686  23.498  0.00  0.00    -0.285 N 
ATOM      2  C   UNL     1       6.289  -2.423  24.000  0.00  0.00    +0.169 A 
ATOM      3  N   UNL     1       5.415  -1.696  24.717  0.00  0.00    -0.202 NA
ATOM      4  C   UNL     1       5.961  -0.505  25.082  0.00  0.00    +0.192 A 
ATOM      5  N   UNL     1       7.206  -0.051  24.806  0.00  0.00    -0.205 NA
ATOM      6  C   UNL     1       8.048  -0.809  24.056  0.00  0.00    +0.151 A 
ATOM      7  N   UNL     1       9.330  -0.348  23.719  0.00  0.00    -0.327 N 
ATOM      8  H   UNL     1       9.858  -1.101  23.282  0.00  0.00    +0.148 HD
ATOM      9  C   UNL     1       7.574  -2.060  23.621  0.00  0.00    +0.148 A 
ATOM     10  N   UNL     1       8.173  -3.071  22.898  0.00  0.00    -0.231 NA
ATOM     11  C   UNL     1       7.272  -4.031  22.856  0.00  0.00    +0.203 A 
ENDROOT
BRANCH   1  15
ATOM     12  C   UNL     1       3.965  -5.786  25.404  0.00  0.00    +0.178 C 
ATOM     13  C   UNL     1       4.533  -6.831  24.455  0.00  0.00    +0.178 C 
ATOM     14  C   UNL     1       5.149  -6.018  23.309  0.00  0.00    +0.195 C 
ATOM     15  C   UNL     1       4.973  -4.553  23.741  0.00  0.00    +0.253 C 
ATOM     16  O   UNL     1       4.708  -4.584  25.152  0.00  0.00    -0.346 OA
BRANCH  13  17
ATOM     17  O   UNL     1       3.512  -7.722  24.017  0.00  0.00    -0.386 OA
ATOM     18  H   UNL     1       3.225  -7.390  23.139  0.00  0.00    +0.210 HD
ENDBRANCH  13  17
BRANCH  14  19
ATOM     19  O   UNL     1       4.472  -6.321  22.081  0.00  0.00    -0.385 OA
ATOM     20  H   UNL     1       5.071  -6.037  21.360  0.00  0.00    +0.210 HD
ENDBRANCH  14  19
BRANCH  12  21
ATOM     21  C   UNL     1       4.082  -6.176  26.876  0.00  0.00    +0.206 C 
BRANCH  21  22
ATOM     22  O   UNL     1       5.108  -5.381  27.458  0.00  0.00    -0.284 OA
BRANCH  22  23
ATOM     23  P   UNL     1       6.048  -6.061  28.548  0.00  0.00    +0.472 P 
ATOM     24  O   UNL     1       6.015  -5.494  29.922  0.00  0.00    -0.228 OA
BRANCH  23  25
ATOM     25  O   UNL     1       7.474  -6.116  27.836  0.00  0.00    -0.303 OA
ATOM     26  H   UNL     1       7.415  -5.755  26.934  0.00  0.00    +0.222 HD
ENDBRANCH  23  25
BRANCH  23  27
ATOM     27  O   UNL     1       5.628  -7.602  28.494  0.00  0.00    -0.303 OA
ATOM     28  H   UNL     1       4.800  -7.746  28.989  0.00  0.00    +0.222 HD
ENDBRANCH  23  27
ENDBRANCH  22  23
ENDBRANCH  21  22
ENDBRANCH  12  21
ENDBRANCH   1  15
BRANCH   4  29
ATOM     29  S   UNL     1       4.929   0.638  25.978  0.00  0.00    -0.089 S 
ATOM     30  C   UNL     1       4.884  -0.170  27.590  0.00  0.00    +0.093 C 
ENDBRANCH   4  29
BRANCH   7  31
ATOM     31  C   UNL     1      10.032   0.368  24.780  0.00  0.00    +0.103 C 
BRANCH  31  32
ATOM     32  C   UNL     1      10.995   1.394  24.160  0.00  0.00    +0.021 C 
BRANCH  32  33
ATOM     33  C   UNL     1      10.293   2.620  23.541  0.00  0.00    -0.016 C 
ATOM     34  C   UNL     1      11.287   3.773  23.373  0.00  0.00    +0.007 C 
ATOM     35  C   UNL     1       9.099   3.096  24.370  0.00  0.00    +0.007 C 
ENDBRANCH  32  33
ENDBRANCH  31  32
ENDBRANCH   7  31
TORSDOF 12
ENDMDL
MODEL 6
REMARK VINA RESULT:      -6.5      1.570      2.098
REMARK  Name = 
REMARK  15 active torsions:
REMARK  status: ('A' for Active; 'I' for Inactive)
REMARK    1  A    between atoms: C_2  and  C_3
REMARK    2  A    between atoms: C_3  and  O_4
REMARK    3  A    between atoms: O_4  and  P_5
REMARK    4  A    between atoms: P_5  and  O_6
REMARK    5  A    between atoms: P_5  and  O_7
REMARK    6  A    between atoms: C_10  and  N_12
REMARK    7  A    between atoms: C_18  and  S_19
REMARK    8  A    between atoms: S_19  and  C_20
REMARK    9  A    between atoms: N_23  and  C_24
REMARK   10  A    between atoms: C_24  and  C_25
REMARK   11  A    between atoms: C_25  and  C_26
REMARK   12  A    between atoms: C_26  and  C_27
REMARK   13  A    between atoms: C_26  and  C_28
REMARK   14  A    between atoms: C_29  and  O_31
REMARK   15  A    between atoms: C_32  and  O_34
REMARK                            x       y       z     vdW  Elec       q    Type
REMARK                         _______ _______ _______ _____ _____    ______ ____
ROOT
ATOM      1  N   UNL     1       7.754  -1.347  22.730  0.00  0.00    -0.285 N 
ATOM      2  C   UNL     1       7.803  -0.087  23.267  0.00  0.00    +0.169 A 
ATOM      3  N   UNL     1       6.962   0.453  24.166  0.00  0.00    -0.202 NA
ATOM      4  C   UNL     1       7.353   1.711  24.500  0.00  0.00    +0.192 A 
ATOM      5  N   UNL     1       8.432   2.387  24.040  0.00  0.00    -0.205 NA
ATOM      6  C   UNL     1       9.241   1.813  23.112  0.00  0.00    +0.151 A 
ATOM      7  N   UNL     1      10.343   2.504  22.585  0.00  0.00    -0.327 N 
ATOM      8  H   UNL     1      10.904   1.869  22.019  0.00  0.00    +0.148 HD
ATOM      9  C   UNL     1       8.916   0.510  22.692  0.00  0.00    +0.148 A 
ATOM     10  N   UNL     1       9.538  -0.359  21.818  0.00  0.00    -0.231 NA
ATOM     11  C   UNL     1       8.822  -1.462  21.877  0.00  0.00    +0.203 A 
ENDROOT
BRANCH   1  15
ATOM     12  C   UNL     1       6.644  -4.172  24.583  0.00  0.00    +0.178 C 
ATOM     13  C   UNL     1       6.810  -4.834  23.224  0.00  0.00    +0.178 C 
ATOM     14  C   UNL     1       6.877  -3.667  22.231  0.00  0.00    +0.195 C 
ATOM     15  C   UNL     1       6.844  -2.410  23.115  0.00  0.00    +0.253 C 
ATOM     16  O   UNL     1       7.179  -2.848  24.440  0.00  0.00    -0.346 OA
BRANCH  13  17
ATOM     17  O   UNL     1       5.730  -5.724  22.961  0.00  0.00    -0.386 OA
ATOM     18  H   UNL     1       6.131  -6.617  22.881  0.00  0.00    +0.210 HD
ENDBRANCH  13  17
BRANCH  14  19
ATOM     19  O   UNL     1       5.769  -3.738  21.323  0.00  0.00    -0.385 OA
ATOM     20  H   UNL     1       5.264  -2.907  21.441  0.00  0.00    +0.210 HD
ENDBRANCH  14  19
BRANCH  12  21
ATOM     21  C   UNL     1       7.365  -4.911  25.709  0.00  0.00    +0.206 C 
BRANCH  21  22
ATOM     22  O   UNL     1       6.538  -5.993  26.119  0.00  0.00    -0.284 OA
BRANCH  22  23
ATOM     23  P   UNL     1       5.746  -5.846  27.492  0.00  0.00    +0.472 P 
ATOM     24  O   UNL     1       6.415  -5.093  28.585  0.00  0.00    -0.228 OA
BRANCH  23  25
ATOM     25  O   UNL     1       5.295  -7.338  27.829  0.00  0.00    -0.303 OA
ATOM     26  H   UNL     1       4.369  -7.352  28.126  0.00  0.00    +0.222 HD
ENDBRANCH  23  25
BRANCH  23  27
ATOM     27  O   UNL     1       4.350  -5.206  27.051  0.00  0.00    -0.303 OA
ATOM     28  H   UNL     1       3.820  -5.855  26.551  0.00  0.00    +0.222 HD
ENDBRANCH  23  27
ENDBRANCH  22  23
ENDBRANCH  21  22
ENDBRANCH  12  21
ENDBRANCH   1  15
BRANCH   4  29
ATOM     29  S   UNL     1       6.321   2.627  25.627  0.00  0.00    -0.089 S 
ATOM     30  C   UNL     1       7.438   3.978  26.055  0.00  0.00    +0.093 C 
ENDBRANCH   4  29
BRANCH   7  31
ATOM     31  C   UNL     1      11.093   3.304  23.549  0.00  0.00    +0.103 C 
BRANCH  31  32
ATOM     32  C   UNL     1      10.637   4.770  23.466  0.00  0.00    +0.021 C 
BRANCH  32  33
ATOM     33  C   UNL     1      11.795   5.789  23.469  0.00  0.00    -0.016 C 
ATOM     34  C   UNL     1      13.100   5.109  23.041  0.00  0.00    +0.007 C 
ATOM     35  C   UNL     1      11.993   6.455  24.831  0.00  0.00    +0.007 C 
ENDBRANCH  32  33
ENDBRANCH  31  32
ENDBRANCH   7  31
TORSDOF 12
ENDMDL
MODEL 7
REMARK VINA RESULT:      -6.4      2.200      3.329
REMARK  Name = 
REMARK  15 active torsions:
REMARK  status: ('A' for Active; 'I' for Inactive)
REMARK    1  A    between atoms: C_2  and  C_3
REMARK    2  A    between atoms: C_3  and  O_4
REMARK    3  A    between atoms: O_4  and  P_5
REMARK    4  A    between atoms: P_5  and  O_6
REMARK    5  A    between atoms: P_5  and  O_7
REMARK    6  A    between atoms: C_10  and  N_12
REMARK    7  A    between atoms: C_18  and  S_19
REMARK    8  A    between atoms: S_19  and  C_20
REMARK    9  A    between atoms: N_23  and  C_24
REMARK   10  A    between atoms: C_24  and  C_25
REMARK   11  A    between atoms: C_25  and  C_26
REMARK   12  A    between atoms: C_26  and  C_27
REMARK   13  A    between atoms: C_26  and  C_28
REMARK   14  A    between atoms: C_29  and  O_31
REMARK   15  A    between atoms: C_32  and  O_34
REMARK                            x       y       z     vdW  Elec       q    Type
REMARK                         _______ _______ _______ _____ _____    ______ ____
ROOT
ATOM      1  N   UNL     1       8.719  -2.197  23.297  0.00  0.00    -0.285 N 
ATOM      2  C   UNL     1       8.553  -1.035  24.006  0.00  0.00    +0.169 A 
ATOM      3  N   UNL     1       7.998  -0.891  25.222  0.00  0.00    -0.202 NA
ATOM      4  C   UNL     1       8.049   0.406  25.626  0.00  0.00    +0.192 A 
ATOM      5  N   UNL     1       8.577   1.457  24.956  0.00  0.00    -0.205 NA
ATOM      6  C   UNL     1       9.105   1.270  23.718  0.00  0.00    +0.151 A 
ATOM      7  N   UNL     1       9.622   2.346  22.981  0.00  0.00    -0.327 N 
ATOM      8  H   UNL     1      10.095   1.994  22.151  0.00  0.00    +0.148 HD
ATOM      9  C   UNL     1       9.093  -0.040  23.204  0.00  0.00    +0.148 A 
ATOM     10  N   UNL     1       9.577  -0.572  22.026  0.00  0.00    -0.231 NA
ATOM     11  C   UNL     1       9.347  -1.865  22.124  0.00  0.00    +0.203 A 
ENDROOT
BRANCH   1  15
ATOM     12  C   UNL     1       6.857  -4.746  24.933  0.00  0.00    +0.178 C 
ATOM     13  C   UNL     1       8.054  -4.692  25.871  0.00  0.00    +0.178 C 
ATOM     14  C   UNL     1       9.134  -3.946  25.077  0.00  0.00    +0.195 C 
ATOM     15  C   UNL     1       8.435  -3.539  23.769  0.00  0.00    +0.253 C 
ATOM     16  O   UNL     1       7.026  -3.651  24.021  0.00  0.00    -0.346 OA
BRANCH  13  17
ATOM     17  O   UNL     1       8.454  -6.004  26.255  0.00  0.00    -0.386 OA
ATOM     18  H   UNL     1       9.278  -5.891  26.778  0.00  0.00    +0.210 HD
ENDBRANCH  13  17
BRANCH  14  19
ATOM     19  O   UNL     1      10.260  -4.808  24.860  0.00  0.00    -0.385 OA
ATOM     20  H   UNL     1      10.113  -5.238  23.993  0.00  0.00    +0.210 HD
ENDBRANCH  14  19
BRANCH  12  21
ATOM     21  C   UNL     1       5.516  -4.627  25.654  0.00  0.00    +0.206 C 
BRANCH  21  22
ATOM     22  O   UNL     1       5.502  -3.386  26.348  0.00  0.00    -0.284 OA
BRANCH  22  23
ATOM     23  P   UNL     1       4.398  -2.315  25.935  0.00  0.00    +0.472 P 
ATOM     24  O   UNL     1       3.066  -2.836  25.531  0.00  0.00    -0.228 OA
BRANCH  23  25
ATOM     25  O   UNL     1       5.149  -1.387  24.878  0.00  0.00    -0.303 OA
ATOM     26  H   UNL     1       5.388  -0.536  25.286  0.00  0.00    +0.222 HD
ENDBRANCH  23  25
BRANCH  23  27
ATOM     27  O   UNL     1       4.335  -1.339  27.198  0.00  0.00    -0.303 OA
ATOM     28  H   UNL     1       4.979  -1.616  27.876  0.00  0.00    +0.222 HD
ENDBRANCH  23  27
ENDBRANCH  22  23
ENDBRANCH  21  22
ENDBRANCH  12  21
ENDBRANCH   1  15
BRANCH   4  29
ATOM     29  S   UNL     1       7.294   0.817  27.187  0.00  0.00    -0.089 S 
ATOM     30  C   UNL     1       6.839   2.535  26.877  0.00  0.00    +0.093 C 
ENDBRANCH   4  29
BRANCH   7  31
ATOM     31  C   UNL     1      10.376   3.326  23.758  0.00  0.00    +0.103 C 
BRANCH  31  32
ATOM     32  C   UNL     1       9.664   4.688  23.701  0.00  0.00    +0.021 C 
BRANCH  32  33
ATOM     33  C   UNL     1      10.618   5.898  23.763  0.00  0.00    -0.016 C 
ATOM     34  C   UNL     1      12.064   5.446  23.531  0.00  0.00    +0.007 C 
ATOM     35  C   UNL     1      10.529   6.653  25.090  0.00  0.00    +0.007 C 
ENDBRANCH  32  33
ENDBRANCH  31  32
ENDBRANCH   7  31
TORSDOF 12
ENDMDL
MODEL 8
REMARK VINA RESULT:      -6.3      4.505      8.044
REMARK  Name = 
REMARK  15 active torsions:
REMARK  status: ('A' for Active; 'I' for Inactive)
REMARK    1  A    between atoms: C_2  and  C_3
REMARK    2  A    between atoms: C_3  and  O_4
REMARK    3  A    between atoms: O_4  and  P_5
REMARK    4  A    between atoms: P_5  and  O_6
REMARK    5  A    between atoms: P_5  and  O_7
REMARK    6  A    between atoms: C_10  and  N_12
REMARK    7  A    between atoms: C_18  and  S_19
REMARK    8  A    between atoms: S_19  and  C_20
REMARK    9  A    between atoms: N_23  and  C_24
REMARK   10  A    between atoms: C_24  and  C_25
REMARK   11  A    between atoms: C_25  and  C_26
REMARK   12  A    between atoms: C_26  and  C_27
REMARK   13  A    between atoms: C_26  and  C_28
REMARK   14  A    between atoms: C_29  and  O_31
REMARK   15  A    between atoms: C_32  and  O_34
REMARK                            x       y       z     vdW  Elec       q    Type
REMARK                         _______ _______ _______ _____ _____    ______ ____
ROOT
ATOM      1  N   UNL     1       9.404  -1.897  24.160  0.00  0.00    -0.285 N 
ATOM      2  C   UNL     1       8.229  -2.039  24.851  0.00  0.00    +0.169 A 
ATOM      3  N   UNL     1       7.344  -1.077  25.166  0.00  0.00    -0.202 NA
ATOM      4  C   UNL     1       6.271  -1.601  25.817  0.00  0.00    +0.192 A 
ATOM      5  N   UNL     1       6.053  -2.900  26.130  0.00  0.00    -0.205 NA
ATOM      6  C   UNL     1       6.986  -3.836  25.815  0.00  0.00    +0.151 A 
ATOM      7  N   UNL     1       6.807  -5.183  26.163  0.00  0.00    -0.327 N 
ATOM      8  H   UNL     1       7.533  -5.747  25.724  0.00  0.00    +0.148 HD
ATOM      9  C   UNL     1       8.141  -3.392  25.145  0.00  0.00    +0.148 A 
ATOM     10  N   UNL     1       9.238  -4.070  24.652  0.00  0.00    -0.231 NA
ATOM     11  C   UNL     1       9.964  -3.145  24.059  0.00  0.00    +0.203 A 
ENDROOT
BRANCH   1  15
ATOM     12  C   UNL     1       9.765   1.607  23.676  0.00  0.00    +0.178 C 
ATOM     13  C   UNL     1       8.972   1.278  22.420  0.00  0.00    +0.178 C 
ATOM     14  C   UNL     1       9.100  -0.244  22.270  0.00  0.00    +0.195 C 
ATOM     15  C   UNL     1       9.882  -0.687  23.518  0.00  0.00    +0.253 C 
ATOM     16  O   UNL     1       9.788   0.400  24.452  0.00  0.00    -0.346 OA
BRANCH  13  17
ATOM     17  O   UNL     1       9.485   1.991  21.298  0.00  0.00    -0.386 OA
ATOM     18  H   UNL     1       9.471   1.357  20.548  0.00  0.00    +0.210 HD
ENDBRANCH  13  17
BRANCH  14  19
ATOM     19  O   UNL     1       9.783  -0.555  21.047  0.00  0.00    -0.385 OA
ATOM     20  H   UNL     1      10.687  -0.192  21.137  0.00  0.00    +0.210 HD
ENDBRANCH  14  19
BRANCH  12  21
ATOM     21  C   UNL     1       9.159   2.746  24.494  0.00  0.00    +0.206 C 
BRANCH  21  22
ATOM     22  O   UNL     1       9.584   3.973  23.914  0.00  0.00    -0.284 OA
BRANCH  22  23
ATOM     23  P   UNL     1       8.464   5.029  23.507  0.00  0.00    +0.472 P 
ATOM     24  O   UNL     1       7.478   5.410  24.551  0.00  0.00    -0.228 OA
BRANCH  23  25
ATOM     25  O   UNL     1       7.870   4.444  22.147  0.00  0.00    -0.303 OA
ATOM     26  H   UNL     1       8.589   4.146  21.565  0.00  0.00    +0.222 HD
ENDBRANCH  23  25
BRANCH  23  27
ATOM     27  O   UNL     1       9.305   6.270  22.955  0.00  0.00    -0.303 OA
ATOM     28  H   UNL     1      10.188   5.978  22.656  0.00  0.00    +0.222 HD
ENDBRANCH  23  27
ENDBRANCH  22  23
ENDBRANCH  21  22
ENDBRANCH  12  21
ENDBRANCH   1  15
BRANCH   4  29
ATOM     29  S   UNL     1       5.017  -0.472  26.388  0.00  0.00    -0.089 S 
ATOM     30  C   UNL     1       5.410   0.974  25.385  0.00  0.00    +0.093 C 
ENDBRANCH   4  29
BRANCH   7  31
ATOM     31  C   UNL     1       5.446  -5.690  26.007  0.00  0.00    +0.103 C 
BRANCH  31  32
ATOM     32  C   UNL     1       5.213  -6.096  24.542  0.00  0.00    +0.021 C 
BRANCH  32  33
ATOM     33  C   UNL     1       4.148  -5.248  23.818  0.00  0.00    -0.016 C 
ATOM     34  C   UNL     1       4.820  -4.173  22.957  0.00  0.00    +0.007 C 
ATOM     35  C   UNL     1       3.166  -4.583  24.784  0.00  0.00    +0.007 C 
ENDBRANCH  32  33
ENDBRANCH  31  32
ENDBRANCH   7  31
TORSDOF 12
ENDMDL
MODEL 9
REMARK VINA RESULT:      -6.3      4.589      8.965
REMARK  Name = 
REMARK  15 active torsions:
REMARK  status: ('A' for Active; 'I' for Inactive)
REMARK    1  A    between atoms: C_2  and  C_3
REMARK    2  A    between atoms: C_3  and  O_4
REMARK    3  A    between atoms: O_4  and  P_5
REMARK    4  A    between atoms: P_5  and  O_6
REMARK    5  A    between atoms: P_5  and  O_7
REMARK    6  A    between atoms: C_10  and  N_12
REMARK    7  A    between atoms: C_18  and  S_19
REMARK    8  A    between atoms: S_19  and  C_20
REMARK    9  A    between atoms: N_23  and  C_24
REMARK   10  A    between atoms: C_24  and  C_25
REMARK   11  A    between atoms: C_25  and  C_26
REMARK   12  A    between atoms: C_26  and  C_27
REMARK   13  A    between atoms: C_26  and  C_28
REMARK   14  A    between atoms: C_29  and  O_31
REMARK   15  A    between atoms: C_32  and  O_34
REMARK                            x       y       z     vdW  Elec       q    Type
REMARK                         _______ _______ _______ _____ _____    ______ ____
ROOT
ATOM      1  N   UNL     1       6.656  -3.810  23.435  0.00  0.00    -0.285 N 
ATOM      2  C   UNL     1       6.038  -4.717  24.256  0.00  0.00    +0.169 A 
ATOM      3  N   UNL     1       6.242  -4.902  25.571  0.00  0.00    -0.202 NA
ATOM      4  C   UNL     1       5.413  -5.863  26.059  0.00  0.00    +0.192 A 
ATOM      5  N   UNL     1       4.482  -6.571  25.377  0.00  0.00    -0.205 NA
ATOM      6  C   UNL     1       4.328  -6.370  24.042  0.00  0.00    +0.151 A 
ATOM      7  N   UNL     1       3.401  -7.117  23.300  0.00  0.00    -0.327 N 
ATOM      8  H   UNL     1       3.328  -6.732  22.360  0.00  0.00    +0.148 HD
ATOM      9  C   UNL     1       5.148  -5.399  23.438  0.00  0.00    +0.148 A 
ATOM     10  N   UNL     1       5.215  -4.927  22.143  0.00  0.00    -0.231 NA
ATOM     11  C   UNL     1       6.119  -3.969  22.183  0.00  0.00    +0.203 A 
ENDROOT
BRANCH   1  15
ATOM     12  C   UNL     1       8.167  -0.591  23.387  0.00  0.00    +0.178 C 
ATOM     13  C   UNL     1       9.346  -1.411  22.884  0.00  0.00    +0.178 C 
ATOM     14  C   UNL     1       8.993  -2.859  23.246  0.00  0.00    +0.195 C 
ATOM     15  C   UNL     1       7.580  -2.770  23.847  0.00  0.00    +0.253 C 
ATOM     16  O   UNL     1       7.055  -1.497  23.438  0.00  0.00    -0.346 OA
BRANCH  13  17
ATOM     17  O   UNL     1      10.560  -0.969  23.484  0.00  0.00    -0.386 OA
ATOM     18  H   UNL     1      10.759  -1.617  24.194  0.00  0.00    +0.210 HD
ENDBRANCH  13  17
BRANCH  14  19
ATOM     19  O   UNL     1       9.958  -3.377  24.172  0.00  0.00    -0.385 OA
ATOM     20  H   UNL     1      10.828  -3.036  23.881  0.00  0.00    +0.210 HD
ENDBRANCH  14  19
BRANCH  12  21
ATOM     21  C   UNL     1       7.833   0.601  22.493  0.00  0.00    +0.206 C 
BRANCH  21  22
ATOM     22  O   UNL     1       8.110   1.787  23.227  0.00  0.00    -0.284 OA
BRANCH  22  23
ATOM     23  P   UNL     1       9.553   2.441  23.067  0.00  0.00    +0.472 P 
ATOM     24  O   UNL     1      10.607   1.999  24.018  0.00  0.00    -0.228 OA
BRANCH  23  25
ATOM     25  O   UNL     1       9.255   4.006  23.013  0.00  0.00    -0.303 OA
ATOM     26  H   UNL     1       8.401   4.202  23.436  0.00  0.00    +0.222 HD
ENDBRANCH  23  25
BRANCH  23  27
ATOM     27  O   UNL     1       9.925   2.155  21.540  0.00  0.00    -0.303 OA
ATOM     28  H   UNL     1       9.653   2.905  20.977  0.00  0.00    +0.222 HD
ENDBRANCH  23  27
ENDBRANCH  22  23
ENDBRANCH  21  22
ENDBRANCH  12  21
ENDBRANCH   1  15
BRANCH   4  29
ATOM     29  S   UNL     1       5.581  -6.308  27.776  0.00  0.00    -0.089 S 
ATOM     30  C   UNL     1       5.034  -4.776  28.557  0.00  0.00    +0.093 C 
ENDBRANCH   4  29
BRANCH   7  31
ATOM     31  C   UNL     1       2.127  -7.369  23.968  0.00  0.00    +0.103 C 
BRANCH  31  32
ATOM     32  C   UNL     1       1.156  -6.212  23.679  0.00  0.00    +0.021 C 
BRANCH  32  33
ATOM     33  C   UNL     1       0.790  -5.375  24.921  0.00  0.00    -0.016 C 
ATOM     34  C   UNL     1       1.610  -4.081  24.950  0.00  0.00    +0.007 C 
ATOM     35  C   UNL     1       0.999  -6.137  26.230  0.00  0.00    +0.007 C 
ENDBRANCH  32  33
ENDBRANCH  31  32
ENDBRANCH   7  31
TORSDOF 12
ENDMDL
