MODEL 1
REMARK VINA RESULT:      -4.7      0.000      0.000
REMARK  Name = 
REMARK  10 active torsions:
REMARK  status: ('A' for Active; 'I' for Inactive)
REMARK    1  A    between atoms: C_2  and  C_3
REMARK    2  A    between atoms: C_2  and  N_7
REMARK    3  A    between atoms: C_2  and  C_12
REMARK    4  A    between atoms: C_3  and  C_4
REMARK    5  A    between atoms: C_4  and  C_5
REMARK    6  A    between atoms: C_4  and  C_6
REMARK    7  A    between atoms: N_7  and  O_8
REMARK    8  A    between atoms: C_9  and  C_10
REMARK    9  A    between atoms: C_12  and  O_14
REMARK   10  A    between atoms: O_14  and  C_15
REMARK                            x       y       z     vdW  Elec       q    Type
REMARK                         _______ _______ _______ _____ _____    ______ ____
ROOT
ATOM      1  C   UNL     1       7.768  -4.513  24.569  0.00  0.00    +0.214 C 
ENDROOT
BRANCH   1   2
ATOM      2  N   UNL     1       7.274  -5.140  25.809  0.00  0.00    -0.170 N 
ATOM      3  C   UNL     1       5.944  -5.362  26.069  0.00  0.00    +0.236 C 
ATOM      4  O   UNL     1       5.045  -4.939  25.339  0.00  0.00    -0.274 OA
ATOM      5  C   UNL     1       5.596  -6.114  27.333  0.00  0.00    +0.111 C 
BRANCH   2   6
ATOM      6  O   UNL     1       8.241  -5.901  26.495  0.00  0.00    -0.292 OA
ATOM      7  H   UNL     1       9.050  -5.370  26.356  0.00  0.00    +0.242 HD
ENDBRANCH   2   6
ENDBRANCH   1   2
BRANCH   1   8
ATOM      8  C   UNL     1       9.211  -4.001  24.700  0.00  0.00    +0.330 C 
ATOM      9  O   UNL     1      10.183  -4.743  24.804  0.00  0.00    -0.249 OA
BRANCH   8  10
ATOM     10  O   UNL     1       9.294  -2.642  24.626  0.00  0.00    -0.467 OA
ATOM     11  C   UNL     1       9.913  -2.134  23.439  0.00  0.00    +0.280 C 
ENDBRANCH   8  10
ENDBRANCH   1   8
BRANCH   1  12
ATOM     12  C   UNL     1       7.646  -5.428  23.335  0.00  0.00    +0.039 C 
BRANCH  12  13
ATOM     13  C   UNL     1       7.162  -4.733  22.047  0.00  0.00    -0.015 C 
ATOM     14  C   UNL     1       6.305  -3.518  22.418  0.00  0.00    +0.007 C 
ATOM     15  C   UNL     1       6.350  -5.667  21.147  0.00  0.00    +0.007 C 
ENDBRANCH  12  13
ENDBRANCH   1  12
TORSDOF 6
ENDMDL
MODEL 2
REMARK VINA RESULT:      -4.6      1.970      4.274
REMARK  Name = 
REMARK  10 active torsions:
REMARK  status: ('A' for Active; 'I' for Inactive)
REMARK    1  A    between atoms: C_2  and  C_3
REMARK    2  A    between atoms: C_2  and  N_7
REMARK    3  A    between atoms: C_2  and  C_12
REMARK    4  A    between atoms: C_3  and  C_4
REMARK    5  A    between atoms: C_4  and  C_5
REMARK    6  A    between atoms: C_4  and  C_6
REMARK    7  A    between atoms: N_7  and  O_8
REMARK    8  A    between atoms: C_9  and  C_10
REMARK    9  A    between atoms: C_12  and  O_14
REMARK   10  A    between atoms: O_14  and  C_15
REMARK                            x       y       z     vdW  Elec       q    Type
REMARK                         _______ _______ _______ _____ _____    ______ ____
ROOT
ATOM      1  C   UNL     1       8.994  -3.501  23.952  0.00  0.00    +0.214 C 
ENDROOT
BRANCH   1   2
ATOM      2  N   UNL     1       9.337  -2.084  24.177  0.00  0.00    -0.170 N 
ATOM      3  C   UNL     1      10.084  -1.336  23.302  0.00  0.00    +0.236 C 
ATOM      4  O   UNL     1      10.637  -1.825  22.314  0.00  0.00    -0.274 OA
ATOM      5  C   UNL     1      10.262   0.132  23.614  0.00  0.00    +0.111 C 
BRANCH   2   6
ATOM      6  O   UNL     1       8.490  -1.425  25.091  0.00  0.00    -0.292 OA
ATOM      7  H   UNL     1       7.973  -2.169  25.459  0.00  0.00    +0.242 HD
ENDBRANCH   2   6
ENDBRANCH   1   2
BRANCH   1   8
ATOM      8  C   UNL     1       9.260  -4.377  25.186  0.00  0.00    +0.330 C 
ATOM      9  O   UNL     1      10.130  -5.243  25.224  0.00  0.00    -0.249 OA
BRANCH   8  10
ATOM     10  O   UNL     1       8.468  -4.047  26.245  0.00  0.00    -0.467 OA
ATOM     11  C   UNL     1       7.874  -5.155  26.930  0.00  0.00    +0.280 C 
ENDBRANCH   8  10
ENDBRANCH   1   8
BRANCH   1  12
ATOM     12  C   UNL     1       7.546  -3.705  23.465  0.00  0.00    +0.039 C 
BRANCH  12  13
ATOM     13  C   UNL     1       7.128  -5.173  23.249  0.00  0.00    -0.015 C 
ATOM     14  C   UNL     1       7.111  -5.480  21.748  0.00  0.00    +0.007 C 
ATOM     15  C   UNL     1       5.752  -5.483  23.842  0.00  0.00    +0.007 C 
ENDBRANCH  12  13
ENDBRANCH   1  12
TORSDOF 6
ENDMDL
MODEL 3
REMARK VINA RESULT:      -4.5      2.262      3.997
REMARK  Name = 
REMARK  10 active torsions:
REMARK  status: ('A' for Active; 'I' for Inactive)
REMARK    1  A    between atoms: C_2  and  C_3
REMARK    2  A    between atoms: C_2  and  N_7
REMARK    3  A    between atoms: C_2  and  C_12
REMARK    4  A    between atoms: C_3  and  C_4
REMARK    5  A    between atoms: C_4  and  C_5
REMARK    6  A    between atoms: C_4  and  C_6
REMARK    7  A    between atoms: N_7  and  O_8
REMARK    8  A    between atoms: C_9  and  C_10
REMARK    9  A    between atoms: C_12  and  O_14
REMARK   10  A    between atoms: O_14  and  C_15
REMARK                            x       y       z     vdW  Elec       q    Type
REMARK                         _______ _______ _______ _____ _____    ______ ____
ROOT
ATOM      1  C   UNL     1       8.703  -3.284  23.696  0.00  0.00    +0.214 C 
ENDROOT
BRANCH   1   2
ATOM      2  N   UNL     1       7.660  -3.636  22.714  0.00  0.00    -0.170 N 
ATOM      3  C   UNL     1       7.363  -4.926  22.353  0.00  0.00    +0.236 C 
ATOM      4  O   UNL     1       8.031  -5.892  22.728  0.00  0.00    -0.274 OA
ATOM      5  C   UNL     1       6.195  -5.137  21.417  0.00  0.00    +0.111 C 
BRANCH   2   6
ATOM      6  O   UNL     1       6.695  -2.629  22.513  0.00  0.00    -0.292 OA
ATOM      7  H   UNL     1       6.960  -1.960  23.176  0.00  0.00    +0.242 HD
ENDBRANCH   2   6
ENDBRANCH   1   2
BRANCH   1   8
ATOM      8  C   UNL     1       9.477  -2.015  23.308  0.00  0.00    +0.330 C 
ATOM      9  O   UNL     1      10.070  -1.311  24.121  0.00  0.00    -0.249 OA
BRANCH   8  10
ATOM     10  O   UNL     1       9.482  -1.794  21.962  0.00  0.00    -0.467 OA
ATOM     11  C   UNL     1       9.416  -0.418  21.572  0.00  0.00    +0.280 C 
ENDBRANCH   8  10
ENDBRANCH   1   8
BRANCH   1  12
ATOM     12  C   UNL     1       8.162  -3.150  25.133  0.00  0.00    +0.039 C 
BRANCH  12  13
ATOM     13  C   UNL     1       8.515  -4.316  26.078  0.00  0.00    -0.015 C 
ATOM     14  C   UNL     1       9.781  -5.015  25.572  0.00  0.00    +0.007 C 
ATOM     15  C   UNL     1       7.384  -5.341  26.191  0.00  0.00    +0.007 C 
ENDBRANCH  12  13
ENDBRANCH   1  12
TORSDOF 6
ENDMDL
MODEL 4
REMARK VINA RESULT:      -4.5      2.323      3.789
REMARK  Name = 
REMARK  10 active torsions:
REMARK  status: ('A' for Active; 'I' for Inactive)
REMARK    1  A    between atoms: C_2  and  C_3
REMARK    2  A    between atoms: C_2  and  N_7
REMARK    3  A    between atoms: C_2  and  C_12
REMARK    4  A    between atoms: C_3  and  C_4
REMARK    5  A    between atoms: C_4  and  C_5
REMARK    6  A    between atoms: C_4  and  C_6
REMARK    7  A    between atoms: N_7  and  O_8
REMARK    8  A    between atoms: C_9  and  C_10
REMARK    9  A    between atoms: C_12  and  O_14
REMARK   10  A    between atoms: O_14  and  C_15
REMARK                            x       y       z     vdW  Elec       q    Type
REMARK                         _______ _______ _______ _____ _____    ______ ____
ROOT
ATOM      1  C   UNL     1       8.428  -2.923  24.025  0.00  0.00    +0.214 C 
ENDROOT
BRANCH   1   2
ATOM      2  N   UNL     1       8.056  -4.284  23.597  0.00  0.00    -0.170 N 
ATOM      3  C   UNL     1       7.266  -4.547  22.506  0.00  0.00    +0.236 C 
ATOM      4  O   UNL     1       6.699  -3.658  21.866  0.00  0.00    -0.274 OA
ATOM      5  C   UNL     1       7.060  -5.995  22.126  0.00  0.00    +0.111 C 
BRANCH   2   6
ATOM      6  O   UNL     1       8.909  -5.295  24.083  0.00  0.00    -0.292 OA
ATOM      7  H   UNL     1       8.613  -5.379  25.011  0.00  0.00    +0.242 HD
ENDBRANCH   2   6
ENDBRANCH   1   2
BRANCH   1   8
ATOM      8  C   UNL     1       8.013  -2.624  25.474  0.00  0.00    +0.330 C 
ATOM      9  O   UNL     1       7.865  -3.495  26.327  0.00  0.00    -0.249 OA
BRANCH   8  10
ATOM     10  O   UNL     1       7.887  -1.288  25.719  0.00  0.00    -0.467 OA
ATOM     11  C   UNL     1       8.622  -0.806  26.849  0.00  0.00    +0.280 C 
ENDBRANCH   8  10
ENDBRANCH   1   8
BRANCH   1  12
ATOM     12  C   UNL     1       9.926  -2.615  23.834  0.00  0.00    +0.039 C 
BRANCH  12  13
ATOM     13  C   UNL     1      10.243  -1.493  22.826  0.00  0.00    -0.015 C 
ATOM     14  C   UNL     1      10.450  -0.176  23.581  0.00  0.00    +0.007 C 
ATOM     15  C   UNL     1       9.135  -1.310  21.787  0.00  0.00    +0.007 C 
ENDBRANCH  12  13
ENDBRANCH   1  12
TORSDOF 6
ENDMDL
MODEL 5
REMARK VINA RESULT:      -4.5      2.082      4.139
REMARK  Name = 
REMARK  10 active torsions:
REMARK  status: ('A' for Active; 'I' for Inactive)
REMARK    1  A    between atoms: C_2  and  C_3
REMARK    2  A    between atoms: C_2  and  N_7
REMARK    3  A    between atoms: C_2  and  C_12
REMARK    4  A    between atoms: C_3  and  C_4
REMARK    5  A    between atoms: C_4  and  C_5
REMARK    6  A    between atoms: C_4  and  C_6
REMARK    7  A    between atoms: N_7  and  O_8
REMARK    8  A    between atoms: C_9  and  C_10
REMARK    9  A    between atoms: C_12  and  O_14
REMARK   10  A    between atoms: O_14  and  C_15
REMARK                            x       y       z     vdW  Elec       q    Type
REMARK                         _______ _______ _______ _____ _____    ______ ____
ROOT
ATOM      1  C   UNL     1       7.505  -3.628  22.903  0.00  0.00    +0.214 C 
ENDROOT
BRANCH   1   2
ATOM      2  N   UNL     1       7.386  -4.002  24.325  0.00  0.00    -0.170 N 
ATOM      3  C   UNL     1       8.343  -4.713  25.004  0.00  0.00    +0.236 C 
ATOM      4  O   UNL     1       9.325  -5.208  24.446  0.00  0.00    -0.274 OA
ATOM      5  C   UNL     1       8.133  -4.927  26.485  0.00  0.00    +0.111 C 
BRANCH   2   6
ATOM      6  O   UNL     1       6.473  -3.213  25.053  0.00  0.00    -0.292 OA
ATOM      7  H   UNL     1       5.788  -3.868  25.294  0.00  0.00    +0.242 HD
ENDBRANCH   2   6
ENDBRANCH   1   2
BRANCH   1   8
ATOM      8  C   UNL     1       6.263  -4.016  22.084  0.00  0.00    +0.330 C 
ATOM      9  O   UNL     1       5.194  -3.416  22.155  0.00  0.00    -0.249 OA
BRANCH   8  10
ATOM     10  O   UNL     1       6.499  -5.054  21.232  0.00  0.00    -0.467 OA
ATOM     11  C   UNL     1       6.683  -6.327  21.862  0.00  0.00    +0.280 C 
ENDBRANCH   8  10
ENDBRANCH   1   8
BRANCH   1  12
ATOM     12  C   UNL     1       7.827  -2.136  22.692  0.00  0.00    +0.039 C 
BRANCH  12  13
ATOM     13  C   UNL     1       9.327  -1.798  22.587  0.00  0.00    -0.015 C 
ATOM     14  C   UNL     1       9.862  -1.428  23.975  0.00  0.00    +0.007 C 
ATOM     15  C   UNL     1       9.601  -0.645  21.619  0.00  0.00    +0.007 C 
ENDBRANCH  12  13
ENDBRANCH   1  12
TORSDOF 6
ENDMDL
MODEL 6
REMARK VINA RESULT:      -4.5      3.254      4.610
REMARK  Name = 
REMARK  10 active torsions:
REMARK  status: ('A' for Active; 'I' for Inactive)
REMARK    1  A    between atoms: C_2  and  C_3
REMARK    2  A    between atoms: C_2  and  N_7
REMARK    3  A    between atoms: C_2  and  C_12
REMARK    4  A    between atoms: C_3  and  C_4
REMARK    5  A    between atoms: C_4  and  C_5
REMARK    6  A    between atoms: C_4  and  C_6
REMARK    7  A    between atoms: N_7  and  O_8
REMARK    8  A    between atoms: C_9  and  C_10
REMARK    9  A    between atoms: C_12  and  O_14
REMARK   10  A    between atoms: O_14  and  C_15
REMARK                            x       y       z     vdW  Elec       q    Type
REMARK                         _______ _______ _______ _____ _____    ______ ____
ROOT
ATOM      1  C   UNL     1       8.577  -1.212  23.075  0.00  0.00    +0.214 C 
ENDROOT
BRANCH   1   2
ATOM      2  N   UNL     1       7.533  -2.249  22.976  0.00  0.00    -0.170 N 
ATOM      3  C   UNL     1       6.257  -2.089  23.458  0.00  0.00    +0.236 C 
ATOM      4  O   UNL     1       5.918  -1.111  24.127  0.00  0.00    -0.274 OA
ATOM      5  C   UNL     1       5.265  -3.196  23.187  0.00  0.00    +0.111 C 
BRANCH   2   6
ATOM      6  O   UNL     1       7.770  -3.213  21.975  0.00  0.00    -0.292 OA
ATOM      7  H   UNL     1       7.422  -4.026  22.392  0.00  0.00    +0.242 HD
ENDBRANCH   2   6
ENDBRANCH   1   2
BRANCH   1   8
ATOM      8  C   UNL     1       9.802  -1.682  23.875  0.00  0.00    +0.330 C 
ATOM      9  O   UNL     1      10.309  -2.792  23.742  0.00  0.00    -0.249 OA
BRANCH   8  10
ATOM     10  O   UNL     1      10.295  -0.712  24.697  0.00  0.00    -0.467 OA
ATOM     11  C   UNL     1       9.306   0.058  25.389  0.00  0.00    +0.280 C 
ENDBRANCH   8  10
ENDBRANCH   1   8
BRANCH   1  12
ATOM     12  C   UNL     1       9.023  -0.667  21.704  0.00  0.00    +0.039 C 
BRANCH  12  13
ATOM     13  C   UNL     1       8.818   0.848  21.502  0.00  0.00    -0.015 C 
ATOM     14  C   UNL     1      10.055   1.598  22.009  0.00  0.00    +0.007 C 
ATOM     15  C   UNL     1       7.577   1.373  22.227  0.00  0.00    +0.007 C 
ENDBRANCH  12  13
ENDBRANCH   1  12
TORSDOF 6
ENDMDL
MODEL 7
REMARK VINA RESULT:      -4.3      4.614      6.949
REMARK  Name = 
REMARK  10 active torsions:
REMARK  status: ('A' for Active; 'I' for Inactive)
REMARK    1  A    between atoms: C_2  and  C_3
REMARK    2  A    between atoms: C_2  and  N_7
REMARK    3  A    between atoms: C_2  and  C_12
REMARK    4  A    between atoms: C_3  and  C_4
REMARK    5  A    between atoms: C_4  and  C_5
REMARK    6  A    between atoms: C_4  and  C_6
REMARK    7  A    between atoms: N_7  and  O_8
REMARK    8  A    between atoms: C_9  and  C_10
REMARK    9  A    between atoms: C_12  and  O_14
REMARK   10  A    between atoms: O_14  and  C_15
REMARK                            x       y       z     vdW  Elec       q    Type
REMARK                         _______ _______ _______ _____ _____    ______ ____
ROOT
ATOM      1  C   UNL     1       8.632   0.519  22.881  0.00  0.00    +0.214 C 
ENDROOT
BRANCH   1   2
ATOM      2  N   UNL     1       9.426   1.758  22.778  0.00  0.00    -0.170 N 
ATOM      3  C   UNL     1      10.456   2.071  23.629  0.00  0.00    +0.236 C 
ATOM      4  O   UNL     1      10.719   1.399  24.629  0.00  0.00    -0.274 OA
ATOM      5  C   UNL     1      11.250   3.323  23.334  0.00  0.00    +0.111 C 
BRANCH   2   6
ATOM      6  O   UNL     1       9.375   2.371  21.510  0.00  0.00    -0.292 OA
ATOM      7  H   UNL     1       8.422   2.318  21.299  0.00  0.00    +0.242 HD
ENDBRANCH   2   6
ENDBRANCH   1   2
BRANCH   1   8
ATOM      8  C   UNL     1       7.118   0.786  22.892  0.00  0.00    +0.330 C 
ATOM      9  O   UNL     1       6.572   1.606  22.159  0.00  0.00    -0.249 OA
BRANCH   8  10
ATOM     10  O   UNL     1       6.448  -0.026  23.758  0.00  0.00    -0.467 OA
ATOM     11  C   UNL     1       6.993  -0.085  25.081  0.00  0.00    +0.280 C 
ENDBRANCH   8  10
ENDBRANCH   1   8
BRANCH   1  12
ATOM     12  C   UNL     1       8.974  -0.514  21.789  0.00  0.00    +0.039 C 
BRANCH  12  13
ATOM     13  C   UNL     1       9.298  -1.930  22.304  0.00  0.00    -0.015 C 
ATOM     14  C   UNL     1       8.010  -2.759  22.350  0.00  0.00    +0.007 C 
ATOM     15  C   UNL     1       9.938  -1.916  23.693  0.00  0.00    +0.007 C 
ENDBRANCH  12  13
ENDBRANCH   1  12
TORSDOF 6
ENDMDL
MODEL 8
REMARK VINA RESULT:      -4.3      1.614      1.921
REMARK  Name = 
REMARK  10 active torsions:
REMARK  status: ('A' for Active; 'I' for Inactive)
REMARK    1  A    between atoms: C_2  and  C_3
REMARK    2  A    between atoms: C_2  and  N_7
REMARK    3  A    between atoms: C_2  and  C_12
REMARK    4  A    between atoms: C_3  and  C_4
REMARK    5  A    between atoms: C_4  and  C_5
REMARK    6  A    between atoms: C_4  and  C_6
REMARK    7  A    between atoms: N_7  and  O_8
REMARK    8  A    between atoms: C_9  and  C_10
REMARK    9  A    between atoms: C_12  and  O_14
REMARK   10  A    between atoms: O_14  and  C_15
REMARK                            x       y       z     vdW  Elec       q    Type
REMARK                         _______ _______ _______ _____ _____    ______ ____
ROOT
ATOM      1  C   UNL     1       7.895  -3.550  23.538  0.00  0.00    +0.214 C 
ENDROOT
BRANCH   1   2
ATOM      2  N   UNL     1       8.210  -4.331  24.748  0.00  0.00    -0.170 N 
ATOM      3  C   UNL     1       7.361  -4.441  25.822  0.00  0.00    +0.236 C 
ATOM      4  O   UNL     1       6.318  -3.790  25.913  0.00  0.00    -0.274 OA
ATOM      5  C   UNL     1       7.772  -5.365  26.945  0.00  0.00    +0.111 C 
BRANCH   2   6
ATOM      6  O   UNL     1       9.204  -5.312  24.559  0.00  0.00    -0.292 OA
ATOM      7  H   UNL     1       9.378  -5.240  23.600  0.00  0.00    +0.242 HD
ENDBRANCH   2   6
ENDBRANCH   1   2
BRANCH   1   8
ATOM      8  C   UNL     1       9.023  -2.579  23.151  0.00  0.00    +0.330 C 
ATOM      9  O   UNL     1      10.173  -2.681  23.569  0.00  0.00    -0.249 OA
BRANCH   8  10
ATOM     10  O   UNL     1       8.619  -1.637  22.253  0.00  0.00    -0.467 OA
ATOM     11  C   UNL     1       9.674  -0.871  21.660  0.00  0.00    +0.280 C 
ENDBRANCH   8  10
ENDBRANCH   1   8
BRANCH   1  12
ATOM     12  C   UNL     1       7.522  -4.428  22.328  0.00  0.00    +0.039 C 
BRANCH  12  13
ATOM     13  C   UNL     1       6.010  -4.640  22.113  0.00  0.00    -0.015 C 
ATOM     14  C   UNL     1       5.249  -3.406  22.608  0.00  0.00    +0.007 C 
ATOM     15  C   UNL     1       5.484  -5.881  22.838  0.00  0.00    +0.007 C 
ENDBRANCH  12  13
ENDBRANCH   1  12
TORSDOF 6
ENDMDL
MODEL 9
REMARK VINA RESULT:      -4.3      2.625      4.601
REMARK  Name = 
REMARK  10 active torsions:
REMARK  status: ('A' for Active; 'I' for Inactive)
REMARK    1  A    between atoms: C_2  and  C_3
REMARK    2  A    between atoms: C_2  and  N_7
REMARK    3  A    between atoms: C_2  and  C_12
REMARK    4  A    between atoms: C_3  and  C_4
REMARK    5  A    between atoms: C_4  and  C_5
REMARK    6  A    between atoms: C_4  and  C_6
REMARK    7  A    between atoms: N_7  and  O_8
REMARK    8  A    between atoms: C_9  and  C_10
REMARK    9  A    between atoms: C_12  and  O_14
REMARK   10  A    between atoms: O_14  and  C_15
REMARK                            x       y       z     vdW  Elec       q    Type
REMARK                         _______ _______ _______ _____ _____    ______ ____
ROOT
ATOM      1  C   UNL     1       8.233  -2.845  23.328  0.00  0.00    +0.214 C 
ENDROOT
BRANCH   1   2
ATOM      2  N   UNL     1       8.436  -1.462  22.857  0.00  0.00    -0.170 N 
ATOM      3  C   UNL     1       9.566  -1.043  22.201  0.00  0.00    +0.236 C 
ATOM      4  O   UNL     1      10.560  -1.761  22.064  0.00  0.00    -0.274 OA
ATOM      5  C   UNL     1       9.586   0.376  21.682  0.00  0.00    +0.111 C 
BRANCH   2   6
ATOM      6  O   UNL     1       7.245  -0.723  22.709  0.00  0.00    -0.292 OA
ATOM      7  H   UNL     1       7.385  -0.286  21.846  0.00  0.00    +0.242 HD
ENDBRANCH   2   6
ENDBRANCH   1   2
BRANCH   1   8
ATOM      8  C   UNL     1       8.966  -3.133  24.648  0.00  0.00    +0.330 C 
ATOM      9  O   UNL     1       8.773  -2.495  25.680  0.00  0.00    -0.249 OA
BRANCH   8  10
ATOM     10  O   UNL     1       9.801  -4.207  24.561  0.00  0.00    -0.467 OA
ATOM     11  C   UNL     1       9.386  -5.362  25.298  0.00  0.00    +0.280 C 
ENDBRANCH   8  10
ENDBRANCH   1   8
BRANCH   1  12
ATOM     12  C   UNL     1       6.746  -3.230  23.459  0.00  0.00    +0.039 C 
BRANCH  12  13
ATOM     13  C   UNL     1       6.238  -4.249  22.419  0.00  0.00    -0.015 C 
ATOM     14  C   UNL     1       4.904  -4.834  22.894  0.00  0.00    +0.007 C 
ATOM     15  C   UNL     1       7.232  -5.387  22.181  0.00  0.00    +0.007 C 
ENDBRANCH  12  13
ENDBRANCH   1  12
TORSDOF 6
ENDMDL
