MODEL 1
REMARK VINA RESULT:      -6.3      0.000      0.000
REMARK  Name = 
REMARK  30 active torsions:
REMARK  status: ('A' for Active; 'I' for Inactive)
REMARK    1  A    between atoms: C_1  and  C_2
REMARK    2  A    between atoms: C_2  and  C_3
REMARK    3  A    between atoms: C_2  and  C_4
REMARK    4  A    between atoms: C_2  and  C_40
REMARK    5  A    between atoms: C_4  and  O_5
REMARK    6  A    between atoms: O_5  and  P_6
REMARK    7  A    between atoms: P_6  and  O_7
REMARK    8  A    between atoms: P_6  and  O_9
REMARK    9  A    between atoms: O_9  and  P_10
REMARK   10  A    between atoms: P_10  and  O_11
REMARK   11  A    between atoms: P_10  and  O_13
REMARK   12  A    between atoms: O_13  and  C_14
REMARK   13  A    between atoms: C_14  and  C_15
REMARK   14  A    between atoms: C_18  and  N_30
REMARK   15  A    between atoms: C_20  and  O_22
REMARK   16  A    between atoms: C_23  and  O_25
REMARK   17  A    between atoms: O_25  and  P_26
REMARK   18  A    between atoms: P_26  and  O_27
REMARK   19  A    between atoms: P_26  and  O_28
REMARK   20  A    between atoms: C_40  and  O_42
REMARK   21  A    between atoms: C_40  and  C_43
REMARK   22  A    between atoms: N_45  and  C_46
REMARK   23  A    between atoms: C_46  and  C_47
REMARK   24  A    between atoms: C_47  and  C_48
REMARK   25  A    between atoms: N_50  and  C_51
REMARK   26  A    between atoms: C_51  and  C_52
REMARK   27  A    between atoms: C_52  and  S_53
REMARK   28  A    between atoms: S_53  and  C_54
REMARK   29  A    between atoms: C_54  and  C_55
REMARK   30  A    between atoms: C_58  and  O_59
REMARK                            x       y       z     vdW  Elec       q    Type
REMARK                         _______ _______ _______ _____ _____    ______ ____
ROOT
ATOM      1  P   UNL     1       4.965  -6.388  29.066  0.00  0.00    +0.483 P 
ATOM      2  O   UNL     1       5.462  -6.726  30.474  0.00  0.00    -0.227 OA
ENDROOT
BRANCH   1   3
ATOM      3  O   UNL     1       3.731  -7.577  29.301  0.00  0.00    -0.302 OA
ATOM      4  H   UNL     1       3.420  -7.695  28.379  0.00  0.00    +0.222 HD
ENDBRANCH   1   3
BRANCH   1   5
ATOM      5  O   UNL     1       3.773  -5.251  29.157  0.00  0.00    -0.286 OA
BRANCH   5   6
ATOM      6  C   UNL     1       4.074  -3.909  28.832  0.00  0.00    +0.181 C 
BRANCH   6   8
ATOM      7  C   UNL     1       3.500  -3.844  26.433  0.00  0.00    +0.016 C 
ATOM      8  C   UNL     1       3.133  -3.210  27.803  0.00  0.00    +0.024 C 
ATOM      9  C   UNL     1       1.653  -3.484  28.099  0.00  0.00    +0.016 C 
BRANCH   8  10
ATOM     10  C   UNL     1       3.337  -1.682  27.678  0.00  0.00    +0.208 C 
BRANCH  10  11
ATOM     11  C   UNL     1       4.524  -1.227  26.825  0.00  0.00    +0.242 C 
ATOM     12  N   UNL     1       5.743  -1.123  27.460  0.00  0.00    -0.313 N 
ATOM     13  H   UNL     1       5.761  -1.448  28.419  0.00  0.00    +0.149 HD
ATOM     14  O   UNL     1       4.361  -0.839  25.678  0.00  0.00    -0.273 OA
BRANCH  12  15
ATOM     15  C   UNL     1       6.981  -0.683  26.813  0.00  0.00    +0.113 C 
BRANCH  15  16
ATOM     16  C   UNL     1       7.373   0.798  26.902  0.00  0.00    +0.114 C 
BRANCH  16  17
ATOM     17  C   UNL     1       7.267   1.641  25.620  0.00  0.00    +0.215 C 
ATOM     18  N   UNL     1       6.295   1.267  24.704  0.00  0.00    -0.314 N 
ATOM     19  H   UNL     1       5.935   0.331  24.809  0.00  0.00    +0.149 HD
ATOM     20  O   UNL     1       8.000   2.614  25.445  0.00  0.00    -0.276 OA
BRANCH  18  21
ATOM     21  C   UNL     1       6.262   1.818  23.360  0.00  0.00    +0.115 C 
BRANCH  21  22
ATOM     22  C   UNL     1       5.214   2.908  23.102  0.00  0.00    +0.088 C 
BRANCH  22  23
ATOM     23  S   UNL     1       5.002   4.316  24.283  0.00  0.00    -0.155 S 
BRANCH  23  24
ATOM     24  C   UNL     1       5.758   5.733  23.435  0.00  0.00    +0.104 C 
BRANCH  24  25
ATOM     25  C   UNL     1       7.177   5.978  23.917  0.00  0.00    -0.037 A 
ATOM     26  C   UNL     1       7.468   6.098  25.285  0.00  0.00    +0.008 A 
ATOM     27  C   UNL     1       8.774   6.349  25.721  0.00  0.00    +0.046 A 
ATOM     28  C   UNL     1       9.804   6.462  24.792  0.00  0.00    +0.117 A 
ATOM     29  C   UNL     1       9.547   6.342  23.435  0.00  0.00    +0.046 A 
ATOM     30  C   UNL     1       8.234   6.110  22.999  0.00  0.00    +0.008 A 
BRANCH  28  31
ATOM     31  O   UNL     1      11.063   6.694  25.264  0.00  0.00    -0.507 OA
ATOM     32  H   UNL     1      11.514   5.839  25.380  0.00  0.00    +0.292 HD
ENDBRANCH  28  31
ENDBRANCH  24  25
ENDBRANCH  23  24
ENDBRANCH  22  23
ENDBRANCH  21  22
ENDBRANCH  18  21
ENDBRANCH  16  17
ENDBRANCH  15  16
ENDBRANCH  12  15
ENDBRANCH  10  11
BRANCH  10  33
ATOM     33  O   UNL     1       3.344  -1.034  28.959  0.00  0.00    -0.382 OA
ATOM     34  H   UNL     1       3.563  -0.101  28.773  0.00  0.00    +0.210 HD
ENDBRANCH  10  33
ENDBRANCH   8  10
ENDBRANCH   6   8
ENDBRANCH   5   6
ENDBRANCH   1   5
BRANCH   1  35
ATOM     35  O   UNL     1       6.201  -5.200  28.831  0.00  0.00    -0.186 OA
BRANCH  35  36
ATOM     36  P   UNL     1       7.108  -5.583  27.409  0.00  0.00    +0.483 P 
ATOM     37  O   UNL     1       6.988  -4.150  26.894  0.00  0.00    -0.227 OA
BRANCH  36  38
ATOM     38  O   UNL     1       5.856  -6.435  26.808  0.00  0.00    -0.302 OA
ATOM     39  H   UNL     1       4.978  -6.051  26.985  0.00  0.00    +0.222 HD
ENDBRANCH  36  38
BRANCH  36  40
ATOM     40  O   UNL     1       8.014  -5.965  25.986  0.00  0.00    -0.284 OA
BRANCH  40  41
ATOM     41  C   UNL     1       8.947  -4.935  25.654  0.00  0.00    +0.206 C 
BRANCH  41  42
ATOM     42  C   UNL     1       8.971  -4.634  24.143  0.00  0.00    +0.179 C 
ATOM     43  C   UNL     1       7.567  -4.588  23.531  0.00  0.00    +0.194 C 
ATOM     44  C   UNL     1       7.250  -3.101  23.421  0.00  0.00    +0.196 C 
ATOM     45  C   UNL     1       8.482  -2.376  23.977  0.00  0.00    +0.253 C 
ATOM     46  O   UNL     1       9.557  -3.336  23.936  0.00  0.00    -0.346 OA
BRANCH  45  47
ATOM     47  N   UNL     1       8.857  -1.204  23.201  0.00  0.00    -0.286 N 
ATOM     48  C   UNL     1       9.698  -0.213  23.629  0.00  0.00    +0.167 A 
ATOM     49  N   UNL     1      10.342  -0.119  24.809  0.00  0.00    -0.216 NA
ATOM     50  C   UNL     1      11.063   1.014  24.859  0.00  0.00    +0.225 A 
ATOM     51  N   UNL     1      11.174   1.989  23.937  0.00  0.00    -0.219 NA
ATOM     52  C   UNL     1      10.485   1.857  22.778  0.00  0.00    +0.147 A 
ATOM     53  N   UNL     1      10.577   2.877  21.839  0.00  0.00    -0.341 N 
ATOM     54  H   UNL     1      10.345   2.586  20.897  0.00  0.00    +0.144 HD
ATOM     55  H   UNL     1      11.406   3.446  21.966  0.00  0.00    +0.144 HD
ATOM     56  C   UNL     1       9.725   0.704  22.583  0.00  0.00    +0.147 A 
ATOM     57  N   UNL     1       8.963   0.263  21.511  0.00  0.00    -0.231 NA
ATOM     58  C   UNL     1       8.471  -0.899  21.916  0.00  0.00    +0.203 A 
ENDBRANCH  45  47
BRANCH  44  59
ATOM     59  O   UNL     1       6.042  -2.794  24.120  0.00  0.00    -0.385 OA
ATOM     60  H   UNL     1       5.355  -3.383  23.743  0.00  0.00    +0.210 HD
ENDBRANCH  44  59
BRANCH  43  61
ATOM     61  O   UNL     1       7.476  -5.069  22.189  0.00  0.00    -0.278 OA
BRANCH  61  62
ATOM     62  P   UNL     1       6.131  -5.685  21.605  0.00  0.00    +0.473 P 
ATOM     63  O   UNL     1       6.005  -5.707  20.123  0.00  0.00    -0.228 OA
BRANCH  62  64
ATOM     64  O   UNL     1       5.023  -4.856  22.395  0.00  0.00    -0.303 OA
ATOM     65  H   UNL     1       4.527  -4.283  21.778  0.00  0.00    +0.222 HD
ENDBRANCH  62  64
BRANCH  62  66
ATOM     66  O   UNL     1       6.023  -7.109  22.310  0.00  0.00    -0.303 OA
ATOM     67  H   UNL     1       6.898  -7.501  22.485  0.00  0.00    +0.222 HD
ENDBRANCH  62  66
ENDBRANCH  61  62
ENDBRANCH  43  61
ENDBRANCH  41  42
ENDBRANCH  40  41
ENDBRANCH  36  40
ENDBRANCH  35  36
ENDBRANCH   1  35
TORSDOF 28
ENDMDL
MODEL 2
REMARK VINA RESULT:      -6.2      3.853      7.182
REMARK  Name = 
REMARK  30 active torsions:
REMARK  status: ('A' for Active; 'I' for Inactive)
REMARK    1  A    between atoms: C_1  and  C_2
REMARK    2  A    between atoms: C_2  and  C_3
REMARK    3  A    between atoms: C_2  and  C_4
REMARK    4  A    between atoms: C_2  and  C_40
REMARK    5  A    between atoms: C_4  and  O_5
REMARK    6  A    between atoms: O_5  and  P_6
REMARK    7  A    between atoms: P_6  and  O_7
REMARK    8  A    between atoms: P_6  and  O_9
REMARK    9  A    between atoms: O_9  and  P_10
REMARK   10  A    between atoms: P_10  and  O_11
REMARK   11  A    between atoms: P_10  and  O_13
REMARK   12  A    between atoms: O_13  and  C_14
REMARK   13  A    between atoms: C_14  and  C_15
REMARK   14  A    between atoms: C_18  and  N_30
REMARK   15  A    between atoms: C_20  and  O_22
REMARK   16  A    between atoms: C_23  and  O_25
REMARK   17  A    between atoms: O_25  and  P_26
REMARK   18  A    between atoms: P_26  and  O_27
REMARK   19  A    between atoms: P_26  and  O_28
REMARK   20  A    between atoms: C_40  and  O_42
REMARK   21  A    between atoms: C_40  and  C_43
REMARK   22  A    between atoms: N_45  and  C_46
REMARK   23  A    between atoms: C_46  and  C_47
REMARK   24  A    between atoms: C_47  and  C_48
REMARK   25  A    between atoms: N_50  and  C_51
REMARK   26  A    between atoms: C_51  and  C_52
REMARK   27  A    between atoms: C_52  and  S_53
REMARK   28  A    between atoms: S_53  and  C_54
REMARK   29  A    between atoms: C_54  and  C_55
REMARK   30  A    between atoms: C_58  and  O_59
REMARK                            x       y       z     vdW  Elec       q    Type
REMARK                         _______ _______ _______ _____ _____    ______ ____
ROOT
ATOM      1  P   UNL     1       5.661  -0.158  26.885  0.00  0.00    +0.483 P 
ATOM      2  O   UNL     1       6.793  -1.188  26.928  0.00  0.00    -0.227 OA
ENDROOT
BRANCH   1   3
ATOM      3  O   UNL     1       4.897  -1.062  28.147  0.00  0.00    -0.302 OA
ATOM      4  H   UNL     1       4.114  -0.498  28.321  0.00  0.00    +0.222 HD
ENDBRANCH   1   3
BRANCH   1   5
ATOM      5  O   UNL     1       5.939   1.019  28.008  0.00  0.00    -0.286 OA
BRANCH   5   6
ATOM      6  C   UNL     1       4.851   1.785  28.486  0.00  0.00    +0.181 C 
BRANCH   6   8
ATOM      7  C   UNL     1       3.655   3.910  28.859  0.00  0.00    +0.016 C 
ATOM      8  C   UNL     1       5.067   3.327  28.574  0.00  0.00    +0.024 C 
ATOM      9  C   UNL     1       6.006   3.711  29.725  0.00  0.00    +0.016 C 
BRANCH   8  10
ATOM     10  C   UNL     1       5.586   3.980  27.273  0.00  0.00    +0.208 C 
BRANCH  10  11
ATOM     11  C   UNL     1       4.587   4.071  26.118  0.00  0.00    +0.242 C 
ATOM     12  N   UNL     1       4.144   5.331  25.774  0.00  0.00    -0.313 N 
ATOM     13  H   UNL     1       4.595   6.096  26.262  0.00  0.00    +0.149 HD
ATOM     14  O   UNL     1       4.101   3.064  25.626  0.00  0.00    -0.273 OA
BRANCH  12  15
ATOM     15  C   UNL     1       3.174   5.610  24.713  0.00  0.00    +0.113 C 
BRANCH  15  16
ATOM     16  C   UNL     1       3.687   6.124  23.361  0.00  0.00    +0.114 C 
BRANCH  16  17
ATOM     17  C   UNL     1       5.058   5.620  22.882  0.00  0.00    +0.215 C 
ATOM     18  N   UNL     1       6.058   6.570  22.737  0.00  0.00    -0.314 N 
ATOM     19  H   UNL     1       5.745   7.527  22.681  0.00  0.00    +0.149 HD
ATOM     20  O   UNL     1       5.248   4.422  22.669  0.00  0.00    -0.276 OA
BRANCH  18  21
ATOM     21  C   UNL     1       7.306   6.265  22.059  0.00  0.00    +0.115 C 
BRANCH  21  22
ATOM     22  C   UNL     1       8.503   5.936  22.961  0.00  0.00    +0.088 C 
BRANCH  22  23
ATOM     23  S   UNL     1       8.551   4.362  23.933  0.00  0.00    -0.155 S 
BRANCH  23  24
ATOM     24  C   UNL     1      10.223   3.712  23.653  0.00  0.00    +0.104 C 
BRANCH  24  25
ATOM     25  C   UNL     1      10.190   2.258  23.215  0.00  0.00    -0.037 A 
ATOM     26  C   UNL     1      10.670   1.238  24.049  0.00  0.00    +0.008 A 
ATOM     27  C   UNL     1      10.658  -0.098  23.628  0.00  0.00    +0.046 A 
ATOM     28  C   UNL     1      10.147  -0.424  22.376  0.00  0.00    +0.117 A 
ATOM     29  C   UNL     1       9.660   0.563  21.534  0.00  0.00    +0.046 A 
ATOM     30  C   UNL     1       9.690   1.902  21.949  0.00  0.00    +0.008 A 
BRANCH  28  31
ATOM     31  O   UNL     1      10.144  -1.739  22.014  0.00  0.00    -0.507 OA
ATOM     32  H   UNL     1      10.202  -2.284  22.819  0.00  0.00    +0.292 HD
ENDBRANCH  28  31
ENDBRANCH  24  25
ENDBRANCH  23  24
ENDBRANCH  22  23
ENDBRANCH  21  22
ENDBRANCH  18  21
ENDBRANCH  16  17
ENDBRANCH  15  16
ENDBRANCH  12  15
ENDBRANCH  10  11
BRANCH  10  33
ATOM     33  O   UNL     1       6.826   3.400  26.838  0.00  0.00    -0.382 OA
ATOM     34  H   UNL     1       7.497   3.729  27.466  0.00  0.00    +0.210 HD
ENDBRANCH  10  33
ENDBRANCH   8  10
ENDBRANCH   6   8
ENDBRANCH   5   6
ENDBRANCH   1   5
BRANCH   1  35
ATOM     35  O   UNL     1       6.425   0.745  25.622  0.00  0.00    -0.186 OA
BRANCH  35  36
ATOM     36  P   UNL     1       6.762  -0.302  24.286  0.00  0.00    +0.483 P 
ATOM     37  O   UNL     1       6.586   0.842  23.290  0.00  0.00    -0.227 OA
BRANCH  36  38
ATOM     38  O   UNL     1       5.318  -1.035  24.463  0.00  0.00    -0.302 OA
ATOM     39  H   UNL     1       5.130  -1.357  25.363  0.00  0.00    +0.222 HD
ENDBRANCH  36  38
BRANCH  36  40
ATOM     40  O   UNL     1       7.098  -1.348  22.950  0.00  0.00    -0.284 OA
BRANCH  40  41
ATOM     41  C   UNL     1       6.043  -2.287  22.729  0.00  0.00    +0.206 C 
BRANCH  41  42
ATOM     42  C   UNL     1       6.477  -3.734  23.033  0.00  0.00    +0.179 C 
ATOM     43  C   UNL     1       6.962  -3.911  24.476  0.00  0.00    +0.194 C 
ATOM     44  C   UNL     1       5.774  -4.533  25.201  0.00  0.00    +0.196 C 
ATOM     45  C   UNL     1       4.675  -4.676  24.142  0.00  0.00    +0.253 C 
ATOM     46  O   UNL     1       5.344  -4.604  22.866  0.00  0.00    -0.346 OA
BRANCH  45  47
ATOM     47  N   UNL     1       3.951  -5.935  24.233  0.00  0.00    -0.286 N 
ATOM     48  C   UNL     1       2.749  -6.197  23.632  0.00  0.00    +0.167 A 
ATOM     49  N   UNL     1       2.015  -5.381  22.849  0.00  0.00    -0.216 NA
ATOM     50  C   UNL     1       0.885  -5.998  22.463  0.00  0.00    +0.225 A 
ATOM     51  N   UNL     1       0.443  -7.232  22.776  0.00  0.00    -0.219 NA
ATOM     52  C   UNL     1       1.209  -8.000  23.586  0.00  0.00    +0.147 A 
ATOM     53  N   UNL     1       0.740  -9.261  23.932  0.00  0.00    -0.341 N 
ATOM     54  H   UNL     1       1.468  -9.900  24.231  0.00  0.00    +0.144 HD
ATOM     55  H   UNL     1       0.048  -9.609  23.279  0.00  0.00    +0.144 HD
ATOM     56  C   UNL     1       2.430  -7.491  24.028  0.00  0.00    +0.147 A 
ATOM     57  N   UNL     1       3.437  -8.037  24.810  0.00  0.00    -0.231 NA
ATOM     58  C   UNL     1       4.344  -7.074  24.895  0.00  0.00    +0.203 A 
ENDBRANCH  45  47
BRANCH  44  59
ATOM     59  O   UNL     1       5.391  -3.726  26.317  0.00  0.00    -0.385 OA
ATOM     60  H   UNL     1       6.027  -2.981  26.342  0.00  0.00    +0.210 HD
ENDBRANCH  44  59
BRANCH  43  61
ATOM     61  O   UNL     1       8.017  -4.857  24.649  0.00  0.00    -0.278 OA
BRANCH  61  62
ATOM     62  P   UNL     1       8.914  -4.888  25.961  0.00  0.00    +0.473 P 
ATOM     63  O   UNL     1       9.086  -3.593  26.673  0.00  0.00    -0.228 OA
BRANCH  62  64
ATOM     64  O   UNL     1      10.246  -5.582  25.429  0.00  0.00    -0.303 OA
ATOM     65  H   UNL     1      10.411  -6.414  25.914  0.00  0.00    +0.222 HD
ENDBRANCH  62  64
BRANCH  62  66
ATOM     66  O   UNL     1       8.277  -6.057  26.835  0.00  0.00    -0.303 OA
ATOM     67  H   UNL     1       8.721  -6.912  26.688  0.00  0.00    +0.222 HD
ENDBRANCH  62  66
ENDBRANCH  61  62
ENDBRANCH  43  61
ENDBRANCH  41  42
ENDBRANCH  40  41
ENDBRANCH  36  40
ENDBRANCH  35  36
ENDBRANCH   1  35
TORSDOF 28
ENDMDL
MODEL 3
REMARK VINA RESULT:      -6.1      3.951      8.256
REMARK  Name = 
REMARK  30 active torsions:
REMARK  status: ('A' for Active; 'I' for Inactive)
REMARK    1  A    between atoms: C_1  and  C_2
REMARK    2  A    between atoms: C_2  and  C_3
REMARK    3  A    between atoms: C_2  and  C_4
REMARK    4  A    between atoms: C_2  and  C_40
REMARK    5  A    between atoms: C_4  and  O_5
REMARK    6  A    between atoms: O_5  and  P_6
REMARK    7  A    between atoms: P_6  and  O_7
REMARK    8  A    between atoms: P_6  and  O_9
REMARK    9  A    between atoms: O_9  and  P_10
REMARK   10  A    between atoms: P_10  and  O_11
REMARK   11  A    between atoms: P_10  and  O_13
REMARK   12  A    between atoms: O_13  and  C_14
REMARK   13  A    between atoms: C_14  and  C_15
REMARK   14  A    between atoms: C_18  and  N_30
REMARK   15  A    between atoms: C_20  and  O_22
REMARK   16  A    between atoms: C_23  and  O_25
REMARK   17  A    between atoms: O_25  and  P_26
REMARK   18  A    between atoms: P_26  and  O_27
REMARK   19  A    between atoms: P_26  and  O_28
REMARK   20  A    between atoms: C_40  and  O_42
REMARK   21  A    between atoms: C_40  and  C_43
REMARK   22  A    between atoms: N_45  and  C_46
REMARK   23  A    between atoms: C_46  and  C_47
REMARK   24  A    between atoms: C_47  and  C_48
REMARK   25  A    between atoms: N_50  and  C_51
REMARK   26  A    between atoms: C_51  and  C_52
REMARK   27  A    between atoms: C_52  and  S_53
REMARK   28  A    between atoms: S_53  and  C_54
REMARK   29  A    between atoms: C_54  and  C_55
REMARK   30  A    between atoms: C_58  and  O_59
REMARK                            x       y       z     vdW  Elec       q    Type
REMARK                         _______ _______ _______ _____ _____    ______ ____
ROOT
ATOM      1  P   UNL     1       8.840   1.753  22.564  0.00  0.00    +0.483 P 
ATOM      2  O   UNL     1       7.440   1.181  22.332  0.00  0.00    -0.227 OA
ENDROOT
BRANCH   1   3
ATOM      3  O   UNL     1       8.429   3.006  21.444  0.00  0.00    -0.302 OA
ATOM      4  H   UNL     1       9.147   3.649  21.626  0.00  0.00    +0.222 HD
ENDBRANCH   1   3
BRANCH   1   5
ATOM      5  O   UNL     1       8.782   2.903  23.746  0.00  0.00    -0.286 OA
BRANCH   5   6
ATOM      6  C   UNL     1       9.524   4.095  23.585  0.00  0.00    +0.181 C 
BRANCH   6   8
ATOM      7  C   UNL     1       8.263   5.023  25.492  0.00  0.00    +0.016 C 
ATOM      8  C   UNL     1       8.863   5.407  24.111  0.00  0.00    +0.024 C 
ATOM      9  C   UNL     1       9.891   6.528  24.308  0.00  0.00    +0.016 C 
BRANCH   8  10
ATOM     10  C   UNL     1       7.709   5.943  23.234  0.00  0.00    +0.208 C 
BRANCH  10  11
ATOM     11  C   UNL     1       6.336   5.306  23.462  0.00  0.00    +0.242 C 
ATOM     12  N   UNL     1       6.110   4.083  22.867  0.00  0.00    -0.313 N 
ATOM     13  H   UNL     1       6.912   3.672  22.405  0.00  0.00    +0.149 HD
ATOM     14  O   UNL     1       5.443   5.922  24.023  0.00  0.00    -0.273 OA
BRANCH  12  15
ATOM     15  C   UNL     1       4.854   3.336  22.955  0.00  0.00    +0.113 C 
BRANCH  15  16
ATOM     16  C   UNL     1       4.580   2.500  24.212  0.00  0.00    +0.114 C 
BRANCH  16  17
ATOM     17  C   UNL     1       3.432   2.950  25.130  0.00  0.00    +0.215 C 
ATOM     18  N   UNL     1       3.261   4.317  25.295  0.00  0.00    -0.314 N 
ATOM     19  H   UNL     1       4.053   4.888  25.041  0.00  0.00    +0.149 HD
ATOM     20  O   UNL     1       2.691   2.123  25.663  0.00  0.00    -0.276 OA
BRANCH  18  21
ATOM     21  C   UNL     1       2.386   4.857  26.321  0.00  0.00    +0.115 C 
BRANCH  21  22
ATOM     22  C   UNL     1       3.062   5.276  27.634  0.00  0.00    +0.088 C 
BRANCH  22  23
ATOM     23  S   UNL     1       4.892   5.536  27.715  0.00  0.00    -0.155 S 
BRANCH  23  24
ATOM     24  C   UNL     1       5.450   4.402  29.019  0.00  0.00    +0.104 C 
BRANCH  24  25
ATOM     25  C   UNL     1       5.589   2.982  28.501  0.00  0.00    -0.037 A 
ATOM     26  C   UNL     1       6.748   2.566  27.827  0.00  0.00    +0.008 A 
ATOM     27  C   UNL     1       6.859   1.261  27.330  0.00  0.00    +0.046 A 
ATOM     28  C   UNL     1       5.819   0.357  27.521  0.00  0.00    +0.117 A 
ATOM     29  C   UNL     1       4.665   0.739  28.188  0.00  0.00    +0.046 A 
ATOM     30  C   UNL     1       4.548   2.051  28.668  0.00  0.00    +0.008 A 
BRANCH  28  31
ATOM     31  O   UNL     1       5.977  -0.906  27.031  0.00  0.00    -0.507 OA
ATOM     32  H   UNL     1       5.335  -1.044  26.311  0.00  0.00    +0.292 HD
ENDBRANCH  28  31
ENDBRANCH  24  25
ENDBRANCH  23  24
ENDBRANCH  22  23
ENDBRANCH  21  22
ENDBRANCH  18  21
ENDBRANCH  16  17
ENDBRANCH  15  16
ENDBRANCH  12  15
ENDBRANCH  10  11
BRANCH  10  33
ATOM     33  O   UNL     1       8.050   5.947  21.839  0.00  0.00    -0.382 OA
ATOM     34  H   UNL     1       8.124   6.890  21.597  0.00  0.00    +0.210 HD
ENDBRANCH  10  33
ENDBRANCH   8  10
ENDBRANCH   6   8
ENDBRANCH   5   6
ENDBRANCH   1   5
BRANCH   1  35
ATOM     35  O   UNL     1       9.252   0.499  23.683  0.00  0.00    -0.186 OA
BRANCH  35  36
ATOM     36  P   UNL     1       7.881  -0.526  23.932  0.00  0.00    +0.483 P 
ATOM     37  O   UNL     1       8.401  -0.962  25.300  0.00  0.00    -0.227 OA
BRANCH  36  38
ATOM     38  O   UNL     1       8.436  -1.584  22.826  0.00  0.00    -0.302 OA
ATOM     39  H   UNL     1       7.746  -2.017  22.291  0.00  0.00    +0.222 HD
ENDBRANCH  36  38
BRANCH  36  40
ATOM     40  O   UNL     1       6.509  -1.551  24.182  0.00  0.00    -0.284 OA
BRANCH  40  41
ATOM     41  C   UNL     1       6.363  -2.511  23.134  0.00  0.00    +0.206 C 
BRANCH  41  42
ATOM     42  C   UNL     1       6.684  -3.942  23.604  0.00  0.00    +0.179 C 
ATOM     43  C   UNL     1       6.857  -4.035  25.125  0.00  0.00    +0.194 C 
ATOM     44  C   UNL     1       5.529  -4.593  25.623  0.00  0.00    +0.196 C 
ATOM     45  C   UNL     1       4.667  -4.785  24.370  0.00  0.00    +0.253 C 
ATOM     46  O   UNL     1       5.585  -4.804  23.259  0.00  0.00    -0.346 OA
BRANCH  45  47
ATOM     47  N   UNL     1       3.904  -6.024  24.383  0.00  0.00    -0.286 N 
ATOM     48  C   UNL     1       2.730  -6.232  23.712  0.00  0.00    +0.167 A 
ATOM     49  N   UNL     1       2.061  -5.372  22.918  0.00  0.00    -0.216 NA
ATOM     50  C   UNL     1       0.936  -5.944  22.455  0.00  0.00    +0.225 A 
ATOM     51  N   UNL     1       0.445  -7.173  22.704  0.00  0.00    -0.219 NA
ATOM     52  C   UNL     1       1.145  -7.988  23.528  0.00  0.00    +0.147 A 
ATOM     53  N   UNL     1       0.624  -9.244  23.809  0.00  0.00    -0.341 N 
ATOM     54  H   UNL     1       1.317  -9.913  24.124  0.00  0.00    +0.144 HD
ATOM     55  H   UNL     1      -0.042  -9.552  23.109  0.00  0.00    +0.144 HD
ATOM     56  C   UNL     1       2.355  -7.528  24.050  0.00  0.00    +0.147 A 
ATOM     57  N   UNL     1       3.303  -8.127  24.865  0.00  0.00    -0.231 NA
ATOM     58  C   UNL     1       4.230  -7.194  25.028  0.00  0.00    +0.203 A 
ENDBRANCH  45  47
BRANCH  44  59
ATOM     59  O   UNL     1       4.948  -3.712  26.587  0.00  0.00    -0.385 OA
ATOM     60  H   UNL     1       4.264  -4.236  27.054  0.00  0.00    +0.210 HD
ENDBRANCH  44  59
BRANCH  43  61
ATOM     61  O   UNL     1       7.828  -4.986  25.567  0.00  0.00    -0.278 OA
BRANCH  61  62
ATOM     62  P   UNL     1       9.355  -4.891  25.136  0.00  0.00    +0.473 P 
ATOM     63  O   UNL     1       9.766  -3.647  24.432  0.00  0.00    -0.228 OA
BRANCH  62  64
ATOM     64  O   UNL     1       9.552  -6.254  24.334  0.00  0.00    -0.303 OA
ATOM     65  H   UNL     1       9.544  -6.084  23.372  0.00  0.00    +0.222 HD
ENDBRANCH  62  64
BRANCH  62  66
ATOM     66  O   UNL     1      10.153  -5.197  26.480  0.00  0.00    -0.303 OA
ATOM     67  H   UNL     1      10.815  -4.509  26.681  0.00  0.00    +0.222 HD
ENDBRANCH  62  66
ENDBRANCH  61  62
ENDBRANCH  43  61
ENDBRANCH  41  42
ENDBRANCH  40  41
ENDBRANCH  36  40
ENDBRANCH  35  36
ENDBRANCH   1  35
TORSDOF 28
ENDMDL
MODEL 4
REMARK VINA RESULT:      -6.1      1.664      2.527
REMARK  Name = 
REMARK  30 active torsions:
REMARK  status: ('A' for Active; 'I' for Inactive)
REMARK    1  A    between atoms: C_1  and  C_2
REMARK    2  A    between atoms: C_2  and  C_3
REMARK    3  A    between atoms: C_2  and  C_4
REMARK    4  A    between atoms: C_2  and  C_40
REMARK    5  A    between atoms: C_4  and  O_5
REMARK    6  A    between atoms: O_5  and  P_6
REMARK    7  A    between atoms: P_6  and  O_7
REMARK    8  A    between atoms: P_6  and  O_9
REMARK    9  A    between atoms: O_9  and  P_10
REMARK   10  A    between atoms: P_10  and  O_11
REMARK   11  A    between atoms: P_10  and  O_13
REMARK   12  A    between atoms: O_13  and  C_14
REMARK   13  A    between atoms: C_14  and  C_15
REMARK   14  A    between atoms: C_18  and  N_30
REMARK   15  A    between atoms: C_20  and  O_22
REMARK   16  A    between atoms: C_23  and  O_25
REMARK   17  A    between atoms: O_25  and  P_26
REMARK   18  A    between atoms: P_26  and  O_27
REMARK   19  A    between atoms: P_26  and  O_28
REMARK   20  A    between atoms: C_40  and  O_42
REMARK   21  A    between atoms: C_40  and  C_43
REMARK   22  A    between atoms: N_45  and  C_46
REMARK   23  A    between atoms: C_46  and  C_47
REMARK   24  A    between atoms: C_47  and  C_48
REMARK   25  A    between atoms: N_50  and  C_51
REMARK   26  A    between atoms: C_51  and  C_52
REMARK   27  A    between atoms: C_52  and  S_53
REMARK   28  A    between atoms: S_53  and  C_54
REMARK   29  A    between atoms: C_54  and  C_55
REMARK   30  A    between atoms: C_58  and  O_59
REMARK                            x       y       z     vdW  Elec       q    Type
REMARK                         _______ _______ _______ _____ _____    ______ ____
ROOT
ATOM      1  P   UNL     1       4.807  -6.402  29.206  0.00  0.00    +0.483 P 
ATOM      2  O   UNL     1       5.545  -7.060  30.374  0.00  0.00    -0.227 OA
ENDROOT
BRANCH   1   3
ATOM      3  O   UNL     1       3.549  -7.565  29.447  0.00  0.00    -0.302 OA
ATOM      4  H   UNL     1       3.833  -7.960  30.298  0.00  0.00    +0.222 HD
ENDBRANCH   1   3
BRANCH   1   5
ATOM      5  O   UNL     1       3.756  -5.268  29.782  0.00  0.00    -0.286 OA
BRANCH   5   6
ATOM      6  C   UNL     1       3.868  -3.933  29.331  0.00  0.00    +0.181 C 
BRANCH   6   8
ATOM      7  C   UNL     1       2.798  -4.167  27.121  0.00  0.00    +0.016 C 
ATOM      8  C   UNL     1       2.695  -3.387  28.460  0.00  0.00    +0.024 C 
ATOM      9  C   UNL     1       1.327  -3.669  29.097  0.00  0.00    +0.016 C 
BRANCH   8  10
ATOM     10  C   UNL     1       2.785  -1.880  28.129  0.00  0.00    +0.208 C 
BRANCH  10  11
ATOM     11  C   UNL     1       3.931  -1.459  27.206  0.00  0.00    +0.242 C 
ATOM     12  N   UNL     1       5.155  -1.227  27.798  0.00  0.00    -0.313 N 
ATOM     13  H   UNL     1       5.207  -1.447  28.785  0.00  0.00    +0.149 HD
ATOM     14  O   UNL     1       3.728  -1.203  26.029  0.00  0.00    -0.273 OA
BRANCH  12  15
ATOM     15  C   UNL     1       6.356  -0.796  27.080  0.00  0.00    +0.113 C 
BRANCH  15  16
ATOM     16  C   UNL     1       7.154   0.396  27.626  0.00  0.00    +0.114 C 
BRANCH  16  17
ATOM     17  C   UNL     1       6.432   1.749  27.725  0.00  0.00    +0.215 C 
ATOM     18  N   UNL     1       7.223   2.887  27.651  0.00  0.00    -0.314 N 
ATOM     19  H   UNL     1       8.207   2.745  27.821  0.00  0.00    +0.149 HD
ATOM     20  O   UNL     1       5.207   1.802  27.838  0.00  0.00    -0.276 OA
BRANCH  18  21
ATOM     21  C   UNL     1       6.700   4.201  27.981  0.00  0.00    +0.115 C 
BRANCH  21  22
ATOM     22  C   UNL     1       7.288   5.380  27.193  0.00  0.00    +0.088 C 
BRANCH  22  23
ATOM     23  S   UNL     1       8.239   5.094  25.632  0.00  0.00    -0.155 S 
BRANCH  23  24
ATOM     24  C   UNL     1       7.240   5.897  24.344  0.00  0.00    +0.104 C 
BRANCH  24  25
ATOM     25  C   UNL     1       6.057   5.036  23.940  0.00  0.00    -0.037 A 
ATOM     26  C   UNL     1       4.979   5.577  23.222  0.00  0.00    +0.008 A 
ATOM     27  C   UNL     1       3.880   4.782  22.873  0.00  0.00    +0.046 A 
ATOM     28  C   UNL     1       3.860   3.436  23.224  0.00  0.00    +0.117 A 
ATOM     29  C   UNL     1       4.914   2.874  23.928  0.00  0.00    +0.046 A 
ATOM     30  C   UNL     1       6.005   3.676  24.293  0.00  0.00    +0.008 A 
BRANCH  28  31
ATOM     31  O   UNL     1       2.774   2.698  22.852  0.00  0.00    -0.507 OA
ATOM     32  H   UNL     1       2.160   3.273  22.362  0.00  0.00    +0.292 HD
ENDBRANCH  28  31
ENDBRANCH  24  25
ENDBRANCH  23  24
ENDBRANCH  22  23
ENDBRANCH  21  22
ENDBRANCH  18  21
ENDBRANCH  16  17
ENDBRANCH  15  16
ENDBRANCH  12  15
ENDBRANCH  10  11
BRANCH  10  33
ATOM     33  O   UNL     1       2.751  -1.067  29.313  0.00  0.00    -0.382 OA
ATOM     34  H   UNL     1       3.363  -1.499  29.939  0.00  0.00    +0.210 HD
ENDBRANCH  10  33
ENDBRANCH   8  10
ENDBRANCH   6   8
ENDBRANCH   5   6
ENDBRANCH   1   5
BRANCH   1  35
ATOM     35  O   UNL     1       6.065  -5.240  28.964  0.00  0.00    -0.186 OA
BRANCH  35  36
ATOM     36  P   UNL     1       6.826  -5.522  27.436  0.00  0.00    +0.483 P 
ATOM     37  O   UNL     1       6.283  -4.209  26.875  0.00  0.00    -0.227 OA
BRANCH  36  38
ATOM     38  O   UNL     1       5.751  -6.695  27.087  0.00  0.00    -0.302 OA
ATOM     39  H   UNL     1       5.783  -7.018  26.168  0.00  0.00    +0.222 HD
ENDBRANCH  36  38
BRANCH  36  40
ATOM     40  O   UNL     1       7.586  -5.803  25.908  0.00  0.00    -0.284 OA
BRANCH  40  41
ATOM     41  C   UNL     1       8.625  -4.858  25.646  0.00  0.00    +0.206 C 
BRANCH  41  42
ATOM     42  C   UNL     1       8.599  -4.349  24.193  0.00  0.00    +0.179 C 
ATOM     43  C   UNL     1       7.202  -4.432  23.566  0.00  0.00    +0.194 C 
ATOM     44  C   UNL     1       6.662  -3.010  23.658  0.00  0.00    +0.196 C 
ATOM     45  C   UNL     1       7.769  -2.190  24.331  0.00  0.00    +0.253 C 
ATOM     46  O   UNL     1       8.979  -2.961  24.178  0.00  0.00    -0.346 OA
BRANCH  45  47
ATOM     47  N   UNL     1       7.958  -0.879  23.732  0.00  0.00    -0.286 N 
ATOM     48  C   UNL     1       9.035  -0.062  23.949  0.00  0.00    +0.167 A 
ATOM     49  N   UNL     1      10.113  -0.294  24.725  0.00  0.00    -0.216 NA
ATOM     50  C   UNL     1      10.947   0.759  24.691  0.00  0.00    +0.225 A 
ATOM     51  N   UNL     1      10.810   1.929  24.038  0.00  0.00    -0.219 NA
ATOM     52  C   UNL     1       9.696   2.120  23.293  0.00  0.00    +0.147 A 
ATOM     53  N   UNL     1       9.540   3.337  22.642  0.00  0.00    -0.341 N 
ATOM     54  H   UNL     1       8.902   3.302  21.856  0.00  0.00    +0.144 HD
ATOM     55  H   UNL     1      10.421   3.821  22.512  0.00  0.00    +0.144 HD
ATOM     56  C   UNL     1       8.763   1.085  23.211  0.00  0.00    +0.147 A 
ATOM     57  N   UNL     1       7.573   0.959  22.510  0.00  0.00    -0.231 NA
ATOM     58  C   UNL     1       7.128  -0.246  22.836  0.00  0.00    +0.203 A 
ENDBRANCH  45  47
BRANCH  44  59
ATOM     59  O   UNL     1       5.423  -2.991  24.370  0.00  0.00    -0.385 OA
ATOM     60  H   UNL     1       4.876  -2.300  23.941  0.00  0.00    +0.210 HD
ENDBRANCH  44  59
BRANCH  43  61
ATOM     61  O   UNL     1       7.182  -4.729  22.170  0.00  0.00    -0.278 OA
BRANCH  61  62
ATOM     62  P   UNL     1       6.075  -5.671  21.525  0.00  0.00    +0.473 P 
ATOM     63  O   UNL     1       5.975  -5.652  20.041  0.00  0.00    -0.228 OA
BRANCH  62  64
ATOM     64  O   UNL     1       4.768  -5.232  22.325  0.00  0.00    -0.303 OA
ATOM     65  H   UNL     1       5.001  -4.981  23.241  0.00  0.00    +0.222 HD
ENDBRANCH  62  64
BRANCH  62  66
ATOM     66  O   UNL     1       6.369  -7.101  22.161  0.00  0.00    -0.303 OA
ATOM     67  H   UNL     1       5.563  -7.521  22.514  0.00  0.00    +0.222 HD
ENDBRANCH  62  66
ENDBRANCH  61  62
ENDBRANCH  43  61
ENDBRANCH  41  42
ENDBRANCH  40  41
ENDBRANCH  36  40
ENDBRANCH  35  36
ENDBRANCH   1  35
TORSDOF 28
ENDMDL
MODEL 5
REMARK VINA RESULT:      -6.1      3.174      7.721
REMARK  Name = 
REMARK  30 active torsions:
REMARK  status: ('A' for Active; 'I' for Inactive)
REMARK    1  A    between atoms: C_1  and  C_2
REMARK    2  A    between atoms: C_2  and  C_3
REMARK    3  A    between atoms: C_2  and  C_4
REMARK    4  A    between atoms: C_2  and  C_40
REMARK    5  A    between atoms: C_4  and  O_5
REMARK    6  A    between atoms: O_5  and  P_6
REMARK    7  A    between atoms: P_6  and  O_7
REMARK    8  A    between atoms: P_6  and  O_9
REMARK    9  A    between atoms: O_9  and  P_10
REMARK   10  A    between atoms: P_10  and  O_11
REMARK   11  A    between atoms: P_10  and  O_13
REMARK   12  A    between atoms: O_13  and  C_14
REMARK   13  A    between atoms: C_14  and  C_15
REMARK   14  A    between atoms: C_18  and  N_30
REMARK   15  A    between atoms: C_20  and  O_22
REMARK   16  A    between atoms: C_23  and  O_25
REMARK   17  A    between atoms: O_25  and  P_26
REMARK   18  A    between atoms: P_26  and  O_27
REMARK   19  A    between atoms: P_26  and  O_28
REMARK   20  A    between atoms: C_40  and  O_42
REMARK   21  A    between atoms: C_40  and  C_43
REMARK   22  A    between atoms: N_45  and  C_46
REMARK   23  A    between atoms: C_46  and  C_47
REMARK   24  A    between atoms: C_47  and  C_48
REMARK   25  A    between atoms: N_50  and  C_51
REMARK   26  A    between atoms: C_51  and  C_52
REMARK   27  A    between atoms: C_52  and  S_53
REMARK   28  A    between atoms: S_53  and  C_54
REMARK   29  A    between atoms: C_54  and  C_55
REMARK   30  A    between atoms: C_58  and  O_59
REMARK                            x       y       z     vdW  Elec       q    Type
REMARK                         _______ _______ _______ _____ _____    ______ ____
ROOT
ATOM      1  P   UNL     1       9.670  -0.768  21.741  0.00  0.00    +0.483 P 
ATOM      2  O   UNL     1       8.769  -1.632  20.856  0.00  0.00    -0.227 OA
ENDROOT
BRANCH   1   3
ATOM      3  O   UNL     1       9.019   0.611  20.924  0.00  0.00    -0.302 OA
ATOM      4  H   UNL     1       8.388   0.175  20.314  0.00  0.00    +0.222 HD
ENDBRANCH   1   3
BRANCH   1   5
ATOM      5  O   UNL     1       8.831  -0.273  23.073  0.00  0.00    -0.286 OA
BRANCH   5   6
ATOM      6  C   UNL     1       8.527   1.099  23.224  0.00  0.00    +0.181 C 
BRANCH   6   8
ATOM      7  C   UNL     1       8.564   2.690  25.110  0.00  0.00    +0.016 C 
ATOM      8  C   UNL     1       9.493   1.935  24.119  0.00  0.00    +0.024 C 
ATOM      9  C   UNL     1      10.453   1.044  24.917  0.00  0.00    +0.016 C 
BRANCH   8  10
ATOM     10  C   UNL     1      10.321   2.996  23.358  0.00  0.00    +0.208 C 
BRANCH  10  11
ATOM     11  C   UNL     1       9.879   4.450  23.533  0.00  0.00    +0.242 C 
ATOM     12  N   UNL     1       8.721   4.832  22.888  0.00  0.00    -0.313 N 
ATOM     13  H   UNL     1       8.216   4.084  22.428  0.00  0.00    +0.149 HD
ATOM     14  O   UNL     1      10.597   5.262  24.097  0.00  0.00    -0.273 OA
BRANCH  12  15
ATOM     15  C   UNL     1       8.159   6.184  22.921  0.00  0.00    +0.113 C 
BRANCH  15  16
ATOM     16  C   UNL     1       7.354   6.617  24.154  0.00  0.00    +0.114 C 
BRANCH  16  17
ATOM     17  C   UNL     1       6.384   5.594  24.767  0.00  0.00    +0.215 C 
ATOM     18  N   UNL     1       6.040   5.777  26.098  0.00  0.00    -0.314 N 
ATOM     19  H   UNL     1       6.654   6.378  26.627  0.00  0.00    +0.149 HD
ATOM     20  O   UNL     1       5.922   4.678  24.085  0.00  0.00    -0.276 OA
BRANCH  18  21
ATOM     21  C   UNL     1       5.342   4.751  26.853  0.00  0.00    +0.115 C 
BRANCH  21  22
ATOM     22  C   UNL     1       5.514   4.799  28.377  0.00  0.00    +0.088 C 
BRANCH  22  23
ATOM     23  S   UNL     1       6.660   3.628  29.237  0.00  0.00    -0.155 S 
BRANCH  23  24
ATOM     24  C   UNL     1       5.720   2.077  29.346  0.00  0.00    +0.104 C 
BRANCH  24  25
ATOM     25  C   UNL     1       5.854   1.255  28.077  0.00  0.00    -0.037 A 
ATOM     26  C   UNL     1       4.791   1.145  27.168  0.00  0.00    +0.008 A 
ATOM     27  C   UNL     1       4.914   0.364  26.011  0.00  0.00    +0.046 A 
ATOM     28  C   UNL     1       6.109  -0.297  25.747  0.00  0.00    +0.117 A 
ATOM     29  C   UNL     1       7.178  -0.201  26.625  0.00  0.00    +0.046 A 
ATOM     30  C   UNL     1       7.046   0.565  27.792  0.00  0.00    +0.008 A 
BRANCH  28  31
ATOM     31  O   UNL     1       6.187  -1.035  24.602  0.00  0.00    -0.507 OA
ATOM     32  H   UNL     1       5.286  -1.273  24.323  0.00  0.00    +0.292 HD
ENDBRANCH  28  31
ENDBRANCH  24  25
ENDBRANCH  23  24
ENDBRANCH  22  23
ENDBRANCH  21  22
ENDBRANCH  18  21
ENDBRANCH  16  17
ENDBRANCH  15  16
ENDBRANCH  12  15
ENDBRANCH  10  11
BRANCH  10  33
ATOM     33  O   UNL     1      10.470   2.665  21.968  0.00  0.00    -0.382 OA
ATOM     34  H   UNL     1       9.785   3.186  21.506  0.00  0.00    +0.210 HD
ENDBRANCH  10  33
ENDBRANCH   8  10
ENDBRANCH   6   8
ENDBRANCH   5   6
ENDBRANCH   1   5
BRANCH   1  35
ATOM     35  O   UNL     1      10.322  -2.148  22.558  0.00  0.00    -0.186 OA
BRANCH  35  36
ATOM     36  P   UNL     1       9.333  -2.530  23.925  0.00  0.00    +0.483 P 
ATOM     37  O   UNL     1      10.243  -3.694  24.311  0.00  0.00    -0.227 OA
BRANCH  36  38
ATOM     38  O   UNL     1       8.165  -3.112  22.951  0.00  0.00    -0.302 OA
ATOM     39  H   UNL     1       8.304  -4.027  22.647  0.00  0.00    +0.222 HD
ENDBRANCH  36  38
BRANCH  36  40
ATOM     40  O   UNL     1       8.345  -2.913  25.292  0.00  0.00    -0.284 OA
BRANCH  40  41
ATOM     41  C   UNL     1       8.879  -4.001  26.049  0.00  0.00    +0.206 C 
BRANCH  41  42
ATOM     42  C   UNL     1       7.915  -5.201  26.106  0.00  0.00    +0.179 C 
ATOM     43  C   UNL     1       6.951  -5.123  27.296  0.00  0.00    +0.194 C 
ATOM     44  C   UNL     1       5.648  -4.610  26.694  0.00  0.00    +0.196 C 
ATOM     45  C   UNL     1       5.932  -4.416  25.199  0.00  0.00    +0.253 C 
ATOM     46  O   UNL     1       7.106  -5.205  24.916  0.00  0.00    -0.346 OA
BRANCH  45  47
ATOM     47  N   UNL     1       4.841  -4.858  24.346  0.00  0.00    -0.286 N 
ATOM     48  C   UNL     1       3.530  -4.492  24.490  0.00  0.00    +0.167 A 
ATOM     49  N   UNL     1       2.993  -3.667  25.411  0.00  0.00    -0.216 NA
ATOM     50  C   UNL     1       1.665  -3.572  25.234  0.00  0.00    +0.225 A 
ATOM     51  N   UNL     1       0.884  -4.185  24.324  0.00  0.00    -0.219 NA
ATOM     52  C   UNL     1       1.472  -5.023  23.437  0.00  0.00    +0.147 A 
ATOM     53  N   UNL     1       0.664  -5.679  22.517  0.00  0.00    -0.341 N 
ATOM     54  H   UNL     1       1.160  -5.999  21.693  0.00  0.00    +0.144 HD
ATOM     55  H   UNL     1      -0.224  -5.210  22.379  0.00  0.00    +0.144 HD
ATOM     56  C   UNL     1       2.857  -5.183  23.488  0.00  0.00    +0.147 A 
ATOM     57  N   UNL     1       3.738  -5.916  22.707  0.00  0.00    -0.231 NA
ATOM     58  C   UNL     1       4.926  -5.679  23.245  0.00  0.00    +0.203 A 
ENDBRANCH  45  47
BRANCH  44  59
ATOM     59  O   UNL     1       5.230  -3.414  27.355  0.00  0.00    -0.385 OA
ATOM     60  H   UNL     1       4.250  -3.429  27.345  0.00  0.00    +0.210 HD
ENDBRANCH  44  59
BRANCH  43  61
ATOM     61  O   UNL     1       6.602  -6.381  27.874  0.00  0.00    -0.278 OA
BRANCH  61  62
ATOM     62  P   UNL     1       5.899  -6.487  29.297  0.00  0.00    +0.473 P 
ATOM     63  O   UNL     1       5.591  -5.201  29.978  0.00  0.00    -0.228 OA
BRANCH  62  64
ATOM     64  O   UNL     1       6.877  -7.479  30.070  0.00  0.00    -0.303 OA
ATOM     65  H   UNL     1       7.134  -7.096  30.931  0.00  0.00    +0.222 HD
ENDBRANCH  62  64
BRANCH  62  66
ATOM     66  O   UNL     1       4.639  -7.426  29.034  0.00  0.00    -0.303 OA
ATOM     67  H   UNL     1       4.099  -7.116  28.283  0.00  0.00    +0.222 HD
ENDBRANCH  62  66
ENDBRANCH  61  62
ENDBRANCH  43  61
ENDBRANCH  41  42
ENDBRANCH  40  41
ENDBRANCH  36  40
ENDBRANCH  35  36
ENDBRANCH   1  35
TORSDOF 28
ENDMDL
MODEL 6
REMARK VINA RESULT:      -5.9      3.362      7.827
REMARK  Name = 
REMARK  30 active torsions:
REMARK  status: ('A' for Active; 'I' for Inactive)
REMARK    1  A    between atoms: C_1  and  C_2
REMARK    2  A    between atoms: C_2  and  C_3
REMARK    3  A    between atoms: C_2  and  C_4
REMARK    4  A    between atoms: C_2  and  C_40
REMARK    5  A    between atoms: C_4  and  O_5
REMARK    6  A    between atoms: O_5  and  P_6
REMARK    7  A    between atoms: P_6  and  O_7
REMARK    8  A    between atoms: P_6  and  O_9
REMARK    9  A    between atoms: O_9  and  P_10
REMARK   10  A    between atoms: P_10  and  O_11
REMARK   11  A    between atoms: P_10  and  O_13
REMARK   12  A    between atoms: O_13  and  C_14
REMARK   13  A    between atoms: C_14  and  C_15
REMARK   14  A    between atoms: C_18  and  N_30
REMARK   15  A    between atoms: C_20  and  O_22
REMARK   16  A    between atoms: C_23  and  O_25
REMARK   17  A    between atoms: O_25  and  P_26
REMARK   18  A    between atoms: P_26  and  O_27
REMARK   19  A    between atoms: P_26  and  O_28
REMARK   20  A    between atoms: C_40  and  O_42
REMARK   21  A    between atoms: C_40  and  C_43
REMARK   22  A    between atoms: N_45  and  C_46
REMARK   23  A    between atoms: C_46  and  C_47
REMARK   24  A    between atoms: C_47  and  C_48
REMARK   25  A    between atoms: N_50  and  C_51
REMARK   26  A    between atoms: C_51  and  C_52
REMARK   27  A    between atoms: C_52  and  S_53
REMARK   28  A    between atoms: S_53  and  C_54
REMARK   29  A    between atoms: C_54  and  C_55
REMARK   30  A    between atoms: C_58  and  O_59
REMARK                            x       y       z     vdW  Elec       q    Type
REMARK                         _______ _______ _______ _____ _____    ______ ____
ROOT
ATOM      1  P   UNL     1       4.038  -1.447  28.344  0.00  0.00    +0.483 P 
ATOM      2  O   UNL     1       2.521  -1.303  28.199  0.00  0.00    -0.227 OA
ENDROOT
BRANCH   1   3
ATOM      3  O   UNL     1       3.787  -1.550  30.053  0.00  0.00    -0.302 OA
ATOM      4  H   UNL     1       3.906  -0.611  30.307  0.00  0.00    +0.222 HD
ENDBRANCH   1   3
BRANCH   1   5
ATOM      5  O   UNL     1       4.442  -3.046  28.390  0.00  0.00    -0.286 OA
BRANCH   5   6
ATOM      6  C   UNL     1       3.436  -4.017  28.187  0.00  0.00    +0.181 C 
BRANCH   6   8
ATOM      7  C   UNL     1       4.254  -4.784  30.384  0.00  0.00    +0.016 C 
ATOM      8  C   UNL     1       3.453  -5.253  29.139  0.00  0.00    +0.024 C 
ATOM      9  C   UNL     1       2.040  -5.658  29.579  0.00  0.00    +0.016 C 
BRANCH   8  10
ATOM     10  C   UNL     1       4.168  -6.498  28.566  0.00  0.00    +0.208 C 
BRANCH  10  11
ATOM     11  C   UNL     1       5.686  -6.390  28.405  0.00  0.00    +0.242 C 
ATOM     12  N   UNL     1       6.151  -5.487  27.473  0.00  0.00    -0.313 N 
ATOM     13  H   UNL     1       5.442  -4.907  27.040  0.00  0.00    +0.149 HD
ATOM     14  O   UNL     1       6.435  -7.169  28.974  0.00  0.00    -0.273 OA
BRANCH  12  15
ATOM     15  C   UNL     1       7.566  -5.264  27.166  0.00  0.00    +0.113 C 
BRANCH  15  16
ATOM     16  C   UNL     1       8.046  -5.457  25.721  0.00  0.00    +0.114 C 
BRANCH  16  17
ATOM     17  C   UNL     1       9.096  -4.472  25.182  0.00  0.00    +0.215 C 
ATOM     18  N   UNL     1       8.733  -3.134  25.135  0.00  0.00    -0.314 N 
ATOM     19  H   UNL     1       7.743  -2.950  25.184  0.00  0.00    +0.149 HD
ATOM     20  O   UNL     1      10.211  -4.867  24.840  0.00  0.00    -0.276 OA
BRANCH  18  21
ATOM     21  C   UNL     1       9.532  -2.153  24.420  0.00  0.00    +0.115 C 
BRANCH  21  22
ATOM     22  C   UNL     1       9.172  -1.935  22.944  0.00  0.00    +0.088 C 
BRANCH  22  23
ATOM     23  S   UNL     1       7.417  -2.053  22.370  0.00  0.00    -0.155 S 
BRANCH  23  24
ATOM     24  C   UNL     1       7.156  -3.829  22.087  0.00  0.00    +0.104 C 
BRANCH  24  25
ATOM     25  C   UNL     1       5.936  -4.338  22.834  0.00  0.00    -0.037 A 
ATOM     26  C   UNL     1       5.347  -3.585  23.861  0.00  0.00    +0.008 A 
ATOM     27  C   UNL     1       4.237  -4.072  24.561  0.00  0.00    +0.046 A 
ATOM     28  C   UNL     1       3.695  -5.309  24.226  0.00  0.00    +0.117 A 
ATOM     29  C   UNL     1       4.252  -6.071  23.212  0.00  0.00    +0.046 A 
ATOM     30  C   UNL     1       5.376  -5.590  22.524  0.00  0.00    +0.008 A 
BRANCH  28  31
ATOM     31  O   UNL     1       2.606  -5.737  24.927  0.00  0.00    -0.507 OA
ATOM     32  H   UNL     1       1.833  -5.732  24.336  0.00  0.00    +0.292 HD
ENDBRANCH  28  31
ENDBRANCH  24  25
ENDBRANCH  23  24
ENDBRANCH  22  23
ENDBRANCH  21  22
ENDBRANCH  18  21
ENDBRANCH  16  17
ENDBRANCH  15  16
ENDBRANCH  12  15
ENDBRANCH  10  11
BRANCH  10  33
ATOM     33  O   UNL     1       3.553  -6.962  27.354  0.00  0.00    -0.382 OA
ATOM     34  H   UNL     1       2.607  -7.067  27.571  0.00  0.00    +0.210 HD
ENDBRANCH  10  33
ENDBRANCH   8  10
ENDBRANCH   6   8
ENDBRANCH   5   6
ENDBRANCH   1   5
BRANCH   1  35
ATOM     35  O   UNL     1       4.290  -1.343  26.635  0.00  0.00    -0.186 OA
BRANCH  35  36
ATOM     36  P   UNL     1       5.690  -0.379  26.316  0.00  0.00    +0.483 P 
ATOM     37  O   UNL     1       5.355  -0.309  24.828  0.00  0.00    -0.227 OA
BRANCH  36  38
ATOM     38  O   UNL     1       6.662  -1.666  26.547  0.00  0.00    -0.302 OA
ATOM     39  H   UNL     1       6.231  -2.433  26.966  0.00  0.00    +0.222 HD
ENDBRANCH  36  38
BRANCH  36  40
ATOM     40  O   UNL     1       7.091   0.584  25.995  0.00  0.00    -0.284 OA
BRANCH  40  41
ATOM     41  C   UNL     1       6.990   1.884  26.578  0.00  0.00    +0.206 C 
BRANCH  41  42
ATOM     42  C   UNL     1       7.432   2.996  25.608  0.00  0.00    +0.179 C 
ATOM     43  C   UNL     1       7.810   2.451  24.225  0.00  0.00    +0.194 C 
ATOM     44  C   UNL     1       6.585   2.729  23.361  0.00  0.00    +0.196 C 
ATOM     45  C   UNL     1       5.572   3.410  24.289  0.00  0.00    +0.253 C 
ATOM     46  O   UNL     1       6.335   3.905  25.409  0.00  0.00    -0.346 OA
BRANCH  45  47
ATOM     47  N   UNL     1       4.872   4.519  23.660  0.00  0.00    -0.286 N 
ATOM     48  C   UNL     1       3.867   4.395  22.739  0.00  0.00    +0.167 A 
ATOM     49  N   UNL     1       3.325   3.263  22.247  0.00  0.00    -0.216 NA
ATOM     50  C   UNL     1       2.371   3.556  21.348  0.00  0.00    +0.225 A 
ATOM     51  N   UNL     1       1.959   4.762  20.910  0.00  0.00    -0.219 NA
ATOM     52  C   UNL     1       2.555   5.865  21.420  0.00  0.00    +0.147 A 
ATOM     53  N   UNL     1       2.151   7.108  20.948  0.00  0.00    -0.341 N 
ATOM     54  H   UNL     1       2.359   7.873  21.580  0.00  0.00    +0.144 HD
ATOM     55  H   UNL     1       1.228   7.081  20.531  0.00  0.00    +0.144 HD
ATOM     56  C   UNL     1       3.540   5.701  22.394  0.00  0.00    +0.147 A 
ATOM     57  N   UNL     1       4.285   6.614  23.125  0.00  0.00    -0.231 NA
ATOM     58  C   UNL     1       5.064   5.862  23.890  0.00  0.00    +0.203 A 
ENDBRANCH  45  47
BRANCH  44  59
ATOM     59  O   UNL     1       6.101   1.517  22.778  0.00  0.00    -0.385 OA
ATOM     60  H   UNL     1       6.542   1.442  21.906  0.00  0.00    +0.210 HD
ENDBRANCH  44  59
BRANCH  43  61
ATOM     61  O   UNL     1       8.870   3.148  23.569  0.00  0.00    -0.278 OA
BRANCH  61  62
ATOM     62  P   UNL     1      10.205   2.414  23.113  0.00  0.00    +0.473 P 
ATOM     63  O   UNL     1      10.610   1.226  23.912  0.00  0.00    -0.228 OA
BRANCH  62  64
ATOM     64  O   UNL     1      11.243   3.622  23.070  0.00  0.00    -0.303 OA
ATOM     65  H   UNL     1      11.470   3.839  22.144  0.00  0.00    +0.222 HD
ENDBRANCH  62  64
BRANCH  62  66
ATOM     66  O   UNL     1       9.979   2.135  21.562  0.00  0.00    -0.303 OA
ATOM     67  H   UNL     1      10.687   1.584  21.179  0.00  0.00    +0.222 HD
ENDBRANCH  62  66
ENDBRANCH  61  62
ENDBRANCH  43  61
ENDBRANCH  41  42
ENDBRANCH  40  41
ENDBRANCH  36  40
ENDBRANCH  35  36
ENDBRANCH   1  35
TORSDOF 28
ENDMDL
MODEL 7
REMARK VINA RESULT:      -5.9      4.064     10.075
REMARK  Name = 
REMARK  30 active torsions:
REMARK  status: ('A' for Active; 'I' for Inactive)
REMARK    1  A    between atoms: C_1  and  C_2
REMARK    2  A    between atoms: C_2  and  C_3
REMARK    3  A    between atoms: C_2  and  C_4
REMARK    4  A    between atoms: C_2  and  C_40
REMARK    5  A    between atoms: C_4  and  O_5
REMARK    6  A    between atoms: O_5  and  P_6
REMARK    7  A    between atoms: P_6  and  O_7
REMARK    8  A    between atoms: P_6  and  O_9
REMARK    9  A    between atoms: O_9  and  P_10
REMARK   10  A    between atoms: P_10  and  O_11
REMARK   11  A    between atoms: P_10  and  O_13
REMARK   12  A    between atoms: O_13  and  C_14
REMARK   13  A    between atoms: C_14  and  C_15
REMARK   14  A    between atoms: C_18  and  N_30
REMARK   15  A    between atoms: C_20  and  O_22
REMARK   16  A    between atoms: C_23  and  O_25
REMARK   17  A    between atoms: O_25  and  P_26
REMARK   18  A    between atoms: P_26  and  O_27
REMARK   19  A    between atoms: P_26  and  O_28
REMARK   20  A    between atoms: C_40  and  O_42
REMARK   21  A    between atoms: C_40  and  C_43
REMARK   22  A    between atoms: N_45  and  C_46
REMARK   23  A    between atoms: C_46  and  C_47
REMARK   24  A    between atoms: C_47  and  C_48
REMARK   25  A    between atoms: N_50  and  C_51
REMARK   26  A    between atoms: C_51  and  C_52
REMARK   27  A    between atoms: C_52  and  S_53
REMARK   28  A    between atoms: S_53  and  C_54
REMARK   29  A    between atoms: C_54  and  C_55
REMARK   30  A    between atoms: C_58  and  O_59
REMARK                            x       y       z     vdW  Elec       q    Type
REMARK                         _______ _______ _______ _____ _____    ______ ____
ROOT
ATOM      1  P   UNL     1      11.166   5.679  23.623  0.00  0.00    +0.483 P 
ATOM      2  O   UNL     1      12.422   5.634  24.496  0.00  0.00    -0.227 OA
ENDROOT
BRANCH   1   3
ATOM      3  O   UNL     1      11.981   4.614  22.530  0.00  0.00    -0.302 OA
ATOM      4  H   UNL     1      12.786   5.139  22.338  0.00  0.00    +0.222 HD
ENDBRANCH   1   3
BRANCH   1   5
ATOM      5  O   UNL     1      10.182   4.408  23.999  0.00  0.00    -0.286 OA
BRANCH   5   6
ATOM      6  C   UNL     1      10.555   3.106  23.595  0.00  0.00    +0.181 C 
BRANCH   6   8
ATOM      7  C   UNL     1       8.320   3.199  22.555  0.00  0.00    +0.016 C 
ATOM      8  C   UNL     1       9.425   2.206  23.008  0.00  0.00    +0.024 C 
ATOM      9  C   UNL     1       9.903   1.404  21.790  0.00  0.00    +0.016 C 
BRANCH   8  10
ATOM     10  C   UNL     1       8.786   1.230  24.022  0.00  0.00    +0.208 C 
BRANCH  10  11
ATOM     11  C   UNL     1       9.629   0.015  24.414  0.00  0.00    +0.242 C 
ATOM     12  N   UNL     1       9.160  -1.221  24.025  0.00  0.00    -0.313 N 
ATOM     13  H   UNL     1       8.339  -1.205  23.431  0.00  0.00    +0.149 HD
ATOM     14  O   UNL     1      10.592   0.132  25.158  0.00  0.00    -0.273 OA
BRANCH  12  15
ATOM     15  C   UNL     1       9.819  -2.493  24.328  0.00  0.00    +0.113 C 
BRANCH  15  16
ATOM     16  C   UNL     1       8.961  -3.762  24.430  0.00  0.00    +0.114 C 
BRANCH  16  17
ATOM     17  C   UNL     1       8.006  -4.071  23.265  0.00  0.00    +0.215 C 
ATOM     18  N   UNL     1       7.713  -5.407  23.034  0.00  0.00    -0.314 N 
ATOM     19  H   UNL     1       8.351  -6.071  23.448  0.00  0.00    +0.149 HD
ATOM     20  O   UNL     1       7.513  -3.161  22.598  0.00  0.00    -0.276 OA
BRANCH  18  21
ATOM     21  C   UNL     1       7.036  -5.840  21.824  0.00  0.00    +0.115 C 
BRANCH  21  22
ATOM     22  C   UNL     1       5.503  -5.877  21.884  0.00  0.00    +0.088 C 
BRANCH  22  23
ATOM     23  S   UNL     1       4.599  -5.263  23.378  0.00  0.00    -0.155 S 
BRANCH  23  24
ATOM     24  C   UNL     1       4.460  -6.722  24.451  0.00  0.00    +0.104 C 
BRANCH  24  25
ATOM     25  C   UNL     1       4.971  -6.435  25.851  0.00  0.00    -0.037 A 
ATOM     26  C   UNL     1       6.200  -5.790  26.056  0.00  0.00    +0.008 A 
ATOM     27  C   UNL     1       6.677  -5.551  27.351  0.00  0.00    +0.046 A 
ATOM     28  C   UNL     1       5.917  -5.937  28.451  0.00  0.00    +0.117 A 
ATOM     29  C   UNL     1       4.696  -6.570  28.277  0.00  0.00    +0.046 A 
ATOM     30  C   UNL     1       4.229  -6.827  26.980  0.00  0.00    +0.008 A 
BRANCH  28  31
ATOM     31  O   UNL     1       6.415  -5.672  29.692  0.00  0.00    -0.507 OA
ATOM     32  H   UNL     1       7.357  -5.916  29.709  0.00  0.00    +0.292 HD
ENDBRANCH  28  31
ENDBRANCH  24  25
ENDBRANCH  23  24
ENDBRANCH  22  23
ENDBRANCH  21  22
ENDBRANCH  18  21
ENDBRANCH  16  17
ENDBRANCH  15  16
ENDBRANCH  12  15
ENDBRANCH  10  11
BRANCH  10  33
ATOM     33  O   UNL     1       7.463   0.834  23.628  0.00  0.00    -0.382 OA
ATOM     34  H   UNL     1       6.963   1.667  23.534  0.00  0.00    +0.210 HD
ENDBRANCH  10  33
ENDBRANCH   8  10
ENDBRANCH   6   8
ENDBRANCH   5   6
ENDBRANCH   1   5
BRANCH   1  35
ATOM     35  O   UNL     1      10.351   6.745  24.716  0.00  0.00    -0.186 OA
BRANCH  35  36
ATOM     36  P   UNL     1       8.905   5.989  25.290  0.00  0.00    +0.483 P 
ATOM     37  O   UNL     1       8.039   7.103  24.706  0.00  0.00    -0.227 OA
BRANCH  36  38
ATOM     38  O   UNL     1       9.270   6.394  26.825  0.00  0.00    -0.302 OA
ATOM     39  H   UNL     1       9.570   5.654  27.383  0.00  0.00    +0.222 HD
ENDBRANCH  36  38
BRANCH  36  40
ATOM     40  O   UNL     1       7.458   5.234  25.864  0.00  0.00    -0.284 OA
BRANCH  40  41
ATOM     41  C   UNL     1       6.401   5.306  24.905  0.00  0.00    +0.206 C 
BRANCH  41  42
ATOM     42  C   UNL     1       5.076   4.746  25.455  0.00  0.00    +0.179 C 
ATOM     43  C   UNL     1       4.221   4.086  24.367  0.00  0.00    +0.194 C 
ATOM     44  C   UNL     1       4.470   2.592  24.546  0.00  0.00    +0.196 C 
ATOM     45  C   UNL     1       5.451   2.475  25.718  0.00  0.00    +0.253 C 
ATOM     46  O   UNL     1       5.368   3.728  26.428  0.00  0.00    -0.346 OA
BRANCH  45  47
ATOM     47  N   UNL     1       5.131   1.387  26.628  0.00  0.00    -0.286 N 
ATOM     48  C   UNL     1       5.130   0.059  26.298  0.00  0.00    +0.167 A 
ATOM     49  N   UNL     1       5.425  -0.503  25.108  0.00  0.00    -0.216 NA
ATOM     50  C   UNL     1       5.293  -1.839  25.178  0.00  0.00    +0.225 A 
ATOM     51  N   UNL     1       4.904  -2.599  26.219  0.00  0.00    -0.219 NA
ATOM     52  C   UNL     1       4.596  -1.981  27.384  0.00  0.00    +0.147 A 
ATOM     53  N   UNL     1       4.167  -2.762  28.450  0.00  0.00    -0.341 N 
ATOM     54  H   UNL     1       4.285  -2.320  29.354  0.00  0.00    +0.144 HD
ATOM     55  H   UNL     1       4.453  -3.730  28.359  0.00  0.00    +0.144 HD
ATOM     56  C   UNL     1       4.728  -0.594  27.458  0.00  0.00    +0.147 A 
ATOM     57  N   UNL     1       4.539   0.304  28.497  0.00  0.00    -0.231 NA
ATOM     58  C   UNL     1       4.810   1.485  27.962  0.00  0.00    +0.203 A 
ENDBRANCH  45  47
BRANCH  44  59
ATOM     59  O   UNL     1       4.959   2.018  23.332  0.00  0.00    -0.385 OA
ATOM     60  H   UNL     1       5.748   1.492  23.581  0.00  0.00    +0.210 HD
ENDBRANCH  44  59
BRANCH  43  61
ATOM     61  O   UNL     1       2.811   4.232  24.532  0.00  0.00    -0.278 OA
BRANCH  61  62
ATOM     62  P   UNL     1       1.797   4.051  23.320  0.00  0.00    +0.473 P 
ATOM     63  O   UNL     1       0.840   5.166  23.089  0.00  0.00    -0.228 OA
BRANCH  62  64
ATOM     64  O   UNL     1       1.158   2.627  23.640  0.00  0.00    -0.303 OA
ATOM     65  H   UNL     1       0.421   2.442  23.026  0.00  0.00    +0.222 HD
ENDBRANCH  62  64
BRANCH  62  66
ATOM     66  O   UNL     1       2.737   3.705  22.082  0.00  0.00    -0.303 OA
ATOM     67  H   UNL     1       2.228   3.552  21.264  0.00  0.00    +0.222 HD
ENDBRANCH  62  66
ENDBRANCH  61  62
ENDBRANCH  43  61
ENDBRANCH  41  42
ENDBRANCH  40  41
ENDBRANCH  36  40
ENDBRANCH  35  36
ENDBRANCH   1  35
TORSDOF 28
ENDMDL
MODEL 8
REMARK VINA RESULT:      -5.9      3.281      8.564
REMARK  Name = 
REMARK  30 active torsions:
REMARK  status: ('A' for Active; 'I' for Inactive)
REMARK    1  A    between atoms: C_1  and  C_2
REMARK    2  A    between atoms: C_2  and  C_3
REMARK    3  A    between atoms: C_2  and  C_4
REMARK    4  A    between atoms: C_2  and  C_40
REMARK    5  A    between atoms: C_4  and  O_5
REMARK    6  A    between atoms: O_5  and  P_6
REMARK    7  A    between atoms: P_6  and  O_7
REMARK    8  A    between atoms: P_6  and  O_9
REMARK    9  A    between atoms: O_9  and  P_10
REMARK   10  A    between atoms: P_10  and  O_11
REMARK   11  A    between atoms: P_10  and  O_13
REMARK   12  A    between atoms: O_13  and  C_14
REMARK   13  A    between atoms: C_14  and  C_15
REMARK   14  A    between atoms: C_18  and  N_30
REMARK   15  A    between atoms: C_20  and  O_22
REMARK   16  A    between atoms: C_23  and  O_25
REMARK   17  A    between atoms: O_25  and  P_26
REMARK   18  A    between atoms: P_26  and  O_27
REMARK   19  A    between atoms: P_26  and  O_28
REMARK   20  A    between atoms: C_40  and  O_42
REMARK   21  A    between atoms: C_40  and  C_43
REMARK   22  A    between atoms: N_45  and  C_46
REMARK   23  A    between atoms: C_46  and  C_47
REMARK   24  A    between atoms: C_47  and  C_48
REMARK   25  A    between atoms: N_50  and  C_51
REMARK   26  A    between atoms: C_51  and  C_52
REMARK   27  A    between atoms: C_52  and  S_53
REMARK   28  A    between atoms: S_53  and  C_54
REMARK   29  A    between atoms: C_54  and  C_55
REMARK   30  A    between atoms: C_58  and  O_59
REMARK                            x       y       z     vdW  Elec       q    Type
REMARK                         _______ _______ _______ _____ _____    ______ ____
ROOT
ATOM      1  P   UNL     1       6.626  -0.810  26.247  0.00  0.00    +0.483 P 
ATOM      2  O   UNL     1       6.278  -2.069  25.450  0.00  0.00    -0.227 OA
ENDROOT
BRANCH   1   3
ATOM      3  O   UNL     1       8.037  -1.644  26.800  0.00  0.00    -0.302 OA
ATOM      4  H   UNL     1       7.672  -2.544  26.930  0.00  0.00    +0.222 HD
ENDBRANCH   1   3
BRANCH   1   5
ATOM      5  O   UNL     1       7.639   0.145  25.360  0.00  0.00    -0.286 OA
BRANCH   5   6
ATOM      6  C   UNL     1       8.877  -0.380  24.927  0.00  0.00    +0.181 C 
BRANCH   6   8
ATOM      7  C   UNL     1       8.098   0.590  22.796  0.00  0.00    +0.016 C 
ATOM      8  C   UNL     1       9.119  -0.422  23.386  0.00  0.00    +0.024 C 
ATOM      9  C   UNL     1      10.538   0.028  23.015  0.00  0.00    +0.016 C 
BRANCH   8  10
ATOM     10  C   UNL     1       8.847  -1.794  22.729  0.00  0.00    +0.208 C 
BRANCH  10  11
ATOM     11  C   UNL     1       9.127  -3.025  23.594  0.00  0.00    +0.242 C 
ATOM     12  N   UNL     1       8.052  -3.835  23.891  0.00  0.00    -0.313 N 
ATOM     13  H   UNL     1       7.185  -3.590  23.430  0.00  0.00    +0.149 HD
ATOM     14  O   UNL     1      10.221  -3.194  24.110  0.00  0.00    -0.273 OA
BRANCH  12  15
ATOM     15  C   UNL     1       8.124  -5.039  24.722  0.00  0.00    +0.113 C 
BRANCH  15  16
ATOM     16  C   UNL     1       8.161  -4.881  26.248  0.00  0.00    +0.114 C 
BRANCH  16  17
ATOM     17  C   UNL     1       6.883  -5.222  27.031  0.00  0.00    +0.215 C 
ATOM     18  N   UNL     1       6.176  -4.158  27.571  0.00  0.00    -0.314 N 
ATOM     19  H   UNL     1       6.689  -3.293  27.655  0.00  0.00    +0.149 HD
ATOM     20  O   UNL     1       6.504  -6.389  27.138  0.00  0.00    -0.276 OA
BRANCH  18  21
ATOM     21  C   UNL     1       5.107  -4.363  28.533  0.00  0.00    +0.115 C 
BRANCH  21  22
ATOM     22  C   UNL     1       3.968  -3.335  28.506  0.00  0.00    +0.088 C 
BRANCH  22  23
ATOM     23  S   UNL     1       3.138  -2.883  26.915  0.00  0.00    -0.155 S 
BRANCH  23  24
ATOM     24  C   UNL     1       2.517  -4.462  26.267  0.00  0.00    +0.104 C 
BRANCH  24  25
ATOM     25  C   UNL     1       3.391  -4.984  25.141  0.00  0.00    -0.037 A 
ATOM     26  C   UNL     1       3.796  -6.327  25.100  0.00  0.00    +0.008 A 
ATOM     27  C   UNL     1       4.622  -6.795  24.070  0.00  0.00    +0.046 A 
ATOM     28  C   UNL     1       5.033  -5.927  23.064  0.00  0.00    +0.117 A 
ATOM     29  C   UNL     1       4.643  -4.597  23.076  0.00  0.00    +0.046 A 
ATOM     30  C   UNL     1       3.831  -4.125  24.118  0.00  0.00    +0.008 A 
BRANCH  28  31
ATOM     31  O   UNL     1       5.826  -6.431  22.075  0.00  0.00    -0.507 OA
ATOM     32  H   UNL     1       5.277  -6.595  21.288  0.00  0.00    +0.292 HD
ENDBRANCH  28  31
ENDBRANCH  24  25
ENDBRANCH  23  24
ENDBRANCH  22  23
ENDBRANCH  21  22
ENDBRANCH  18  21
ENDBRANCH  16  17
ENDBRANCH  15  16
ENDBRANCH  12  15
ENDBRANCH  10  11
BRANCH  10  33
ATOM     33  O   UNL     1       9.482  -1.911  21.445  0.00  0.00    -0.382 OA
ATOM     34  H   UNL     1       9.553  -2.871  21.281  0.00  0.00    +0.210 HD
ENDBRANCH  10  33
ENDBRANCH   8  10
ENDBRANCH   6   8
ENDBRANCH   5   6
ENDBRANCH   1   5
BRANCH   1  35
ATOM     35  O   UNL     1       5.214   0.025  25.694  0.00  0.00    -0.186 OA
BRANCH  35  36
ATOM     36  P   UNL     1       4.793   1.261  26.828  0.00  0.00    +0.483 P 
ATOM     37  O   UNL     1       5.011   0.315  28.006  0.00  0.00    -0.227 OA
BRANCH  36  38
ATOM     38  O   UNL     1       3.226   1.163  26.393  0.00  0.00    -0.302 OA
ATOM     39  H   UNL     1       2.825   0.282  26.504  0.00  0.00    +0.222 HD
ENDBRANCH  36  38
BRANCH  36  40
ATOM     40  O   UNL     1       4.371   2.497  27.962  0.00  0.00    -0.284 OA
BRANCH  40  41
ATOM     41  C   UNL     1       4.977   3.750  27.637  0.00  0.00    +0.206 C 
BRANCH  41  42
ATOM     42  C   UNL     1       5.668   3.724  26.260  0.00  0.00    +0.179 C 
ATOM     43  C   UNL     1       5.044   4.714  25.270  0.00  0.00    +0.194 C 
ATOM     44  C   UNL     1       5.990   5.909  25.283  0.00  0.00    +0.196 C 
ATOM     45  C   UNL     1       7.099   5.546  26.277  0.00  0.00    +0.253 C 
ATOM     46  O   UNL     1       7.044   4.112  26.423  0.00  0.00    -0.346 OA
BRANCH  45  47
ATOM     47  N   UNL     1       8.426   5.930  25.822  0.00  0.00    -0.286 N 
ATOM     48  C   UNL     1       9.204   5.205  24.961  0.00  0.00    +0.167 A 
ATOM     49  N   UNL     1       8.913   4.031  24.364  0.00  0.00    -0.216 NA
ATOM     50  C   UNL     1       9.943   3.629  23.601  0.00  0.00    +0.225 A 
ATOM     51  N   UNL     1      11.140   4.218  23.411  0.00  0.00    -0.219 NA
ATOM     52  C   UNL     1      11.389   5.383  24.054  0.00  0.00    +0.147 A 
ATOM     53  N   UNL     1      12.633   5.976  23.882  0.00  0.00    -0.341 N 
ATOM     54  H   UNL     1      12.644   6.969  24.085  0.00  0.00    +0.144 HD
ATOM     55  H   UNL     1      13.097   5.664  23.037  0.00  0.00    +0.144 HD
ATOM     56  C   UNL     1      10.384   5.932  24.852  0.00  0.00    +0.147 A 
ATOM     57  N   UNL     1      10.317   7.107  25.585  0.00  0.00    -0.231 NA
ATOM     58  C   UNL     1       9.114   7.078  26.140  0.00  0.00    +0.203 A 
ENDBRANCH  45  47
BRANCH  44  59
ATOM     59  O   UNL     1       5.283   7.102  25.628  0.00  0.00    -0.385 OA
ATOM     60  H   UNL     1       4.722   6.871  26.398  0.00  0.00    +0.210 HD
ENDBRANCH  44  59
BRANCH  43  61
ATOM     61  O   UNL     1       5.035   4.284  23.908  0.00  0.00    -0.278 OA
BRANCH  61  62
ATOM     62  P   UNL     1       4.037   3.163  23.386  0.00  0.00    +0.473 P 
ATOM     63  O   UNL     1       2.735   3.055  24.097  0.00  0.00    -0.228 OA
BRANCH  62  64
ATOM     64  O   UNL     1       4.963   1.866  23.410  0.00  0.00    -0.303 OA
ATOM     65  H   UNL     1       4.577   1.165  22.850  0.00  0.00    +0.222 HD
ENDBRANCH  62  64
BRANCH  62  66
ATOM     66  O   UNL     1       3.927   3.444  21.822  0.00  0.00    -0.303 OA
ATOM     67  H   UNL     1       4.094   2.643  21.291  0.00  0.00    +0.222 HD
ENDBRANCH  62  66
ENDBRANCH  61  62
ENDBRANCH  43  61
ENDBRANCH  41  42
ENDBRANCH  40  41
ENDBRANCH  36  40
ENDBRANCH  35  36
ENDBRANCH   1  35
TORSDOF 28
ENDMDL
MODEL 9
REMARK VINA RESULT:      -5.7      3.085      8.096
REMARK  Name = 
REMARK  30 active torsions:
REMARK  status: ('A' for Active; 'I' for Inactive)
REMARK    1  A    between atoms: C_1  and  C_2
REMARK    2  A    between atoms: C_2  and  C_3
REMARK    3  A    between atoms: C_2  and  C_4
REMARK    4  A    between atoms: C_2  and  C_40
REMARK    5  A    between atoms: C_4  and  O_5
REMARK    6  A    between atoms: O_5  and  P_6
REMARK    7  A    between atoms: P_6  and  O_7
REMARK    8  A    between atoms: P_6  and  O_9
REMARK    9  A    between atoms: O_9  and  P_10
REMARK   10  A    between atoms: P_10  and  O_11
REMARK   11  A    between atoms: P_10  and  O_13
REMARK   12  A    between atoms: O_13  and  C_14
REMARK   13  A    between atoms: C_14  and  C_15
REMARK   14  A    between atoms: C_18  and  N_30
REMARK   15  A    between atoms: C_20  and  O_22
REMARK   16  A    between atoms: C_23  and  O_25
REMARK   17  A    between atoms: O_25  and  P_26
REMARK   18  A    between atoms: P_26  and  O_27
REMARK   19  A    between atoms: P_26  and  O_28
REMARK   20  A    between atoms: C_40  and  O_42
REMARK   21  A    between atoms: C_40  and  C_43
REMARK   22  A    between atoms: N_45  and  C_46
REMARK   23  A    between atoms: C_46  and  C_47
REMARK   24  A    between atoms: C_47  and  C_48
REMARK   25  A    between atoms: N_50  and  C_51
REMARK   26  A    between atoms: C_51  and  C_52
REMARK   27  A    between atoms: C_52  and  S_53
REMARK   28  A    between atoms: S_53  and  C_54
REMARK   29  A    between atoms: C_54  and  C_55
REMARK   30  A    between atoms: C_58  and  O_59
REMARK                            x       y       z     vdW  Elec       q    Type
REMARK                         _______ _______ _______ _____ _____    ______ ____
ROOT
ATOM      1  P   UNL     1       5.770   1.516  25.030  0.00  0.00    +0.483 P 
ATOM      2  O   UNL     1       5.319   0.061  24.879  0.00  0.00    -0.227 OA
ENDROOT
BRANCH   1   3
ATOM      3  O   UNL     1       6.801   1.256  23.665  0.00  0.00    -0.302 OA
ATOM      4  H   UNL     1       7.393   2.033  23.740  0.00  0.00    +0.222 HD
ENDBRANCH   1   3
BRANCH   1   5
ATOM      5  O   UNL     1       4.858   2.484  24.053  0.00  0.00    -0.286 OA
BRANCH   5   6
ATOM      6  C   UNL     1       5.423   3.674  23.542  0.00  0.00    +0.181 C 
BRANCH   6   8
ATOM      7  C   UNL     1       3.704   5.112  22.511  0.00  0.00    +0.016 C 
ATOM      8  C   UNL     1       4.611   4.987  23.766  0.00  0.00    +0.024 C 
ATOM      9  C   UNL     1       3.726   4.909  25.016  0.00  0.00    +0.016 C 
BRANCH   8  10
ATOM     10  C   UNL     1       5.471   6.269  23.848  0.00  0.00    +0.208 C 
BRANCH  10  11
ATOM     11  C   UNL     1       6.808   6.235  23.105  0.00  0.00    +0.242 C 
ATOM     12  N   UNL     1       7.950   6.232  23.877  0.00  0.00    -0.313 N 
ATOM     13  H   UNL     1       7.797   6.159  24.876  0.00  0.00    +0.149 HD
ATOM     14  O   UNL     1       6.854   6.351  21.890  0.00  0.00    -0.273 OA
BRANCH  12  15
ATOM     15  C   UNL     1       9.314   6.224  23.343  0.00  0.00    +0.113 C 
BRANCH  15  16
ATOM     16  C   UNL     1      10.290   5.146  23.833  0.00  0.00    +0.114 C 
BRANCH  16  17
ATOM     17  C   UNL     1       9.848   3.678  23.717  0.00  0.00    +0.215 C 
ATOM     18  N   UNL     1      10.515   2.895  22.786  0.00  0.00    -0.314 N 
ATOM     19  H   UNL     1      11.025   3.400  22.078  0.00  0.00    +0.149 HD
ATOM     20  O   UNL     1       8.961   3.230  24.444  0.00  0.00    -0.276 OA
BRANCH  18  21
ATOM     21  C   UNL     1      10.028   1.580  22.408  0.00  0.00    +0.115 C 
BRANCH  21  22
ATOM     22  C   UNL     1      10.444   0.418  23.319  0.00  0.00    +0.088 C 
BRANCH  22  23
ATOM     23  S   UNL     1      10.251  -1.337  22.763  0.00  0.00    -0.155 S 
BRANCH  23  24
ATOM     24  C   UNL     1       8.530  -1.751  23.168  0.00  0.00    +0.104 C 
BRANCH  24  25
ATOM     25  C   UNL     1       8.452  -2.790  24.272  0.00  0.00    -0.037 A 
ATOM     26  C   UNL     1       8.479  -4.162  23.980  0.00  0.00    +0.008 A 
ATOM     27  C   UNL     1       8.383  -5.115  25.002  0.00  0.00    +0.046 A 
ATOM     28  C   UNL     1       8.277  -4.701  26.326  0.00  0.00    +0.117 A 
ATOM     29  C   UNL     1       8.254  -3.352  26.644  0.00  0.00    +0.046 A 
ATOM     30  C   UNL     1       8.332  -2.399  25.618  0.00  0.00    +0.008 A 
BRANCH  28  31
ATOM     31  O   UNL     1       8.199  -5.664  27.289  0.00  0.00    -0.507 OA
ATOM     32  H   UNL     1       8.530  -6.502  26.919  0.00  0.00    +0.292 HD
ENDBRANCH  28  31
ENDBRANCH  24  25
ENDBRANCH  23  24
ENDBRANCH  22  23
ENDBRANCH  21  22
ENDBRANCH  18  21
ENDBRANCH  16  17
ENDBRANCH  15  16
ENDBRANCH  12  15
ENDBRANCH  10  11
BRANCH  10  33
ATOM     33  O   UNL     1       5.645   6.714  25.203  0.00  0.00    -0.382 OA
ATOM     34  H   UNL     1       6.270   6.079  25.602  0.00  0.00    +0.210 HD
ENDBRANCH  10  33
ENDBRANCH   8  10
ENDBRANCH   6   8
ENDBRANCH   5   6
ENDBRANCH   1   5
BRANCH   1  35
ATOM     35  O   UNL     1       4.739   1.775  26.396  0.00  0.00    -0.186 OA
BRANCH  35  36
ATOM     36  P   UNL     1       4.816   0.402  27.446  0.00  0.00    +0.483 P 
ATOM     37  O   UNL     1       4.241   1.207  28.610  0.00  0.00    -0.227 OA
BRANCH  36  38
ATOM     38  O   UNL     1       6.439   0.513  27.517  0.00  0.00    -0.302 OA
ATOM     39  H   UNL     1       6.784   1.421  27.600  0.00  0.00    +0.222 HD
ENDBRANCH  36  38
BRANCH  36  40
ATOM     40  O   UNL     1       4.892  -0.970  28.497  0.00  0.00    -0.284 OA
BRANCH  40  41
ATOM     41  C   UNL     1       3.799  -1.866  28.285  0.00  0.00    +0.206 C 
BRANCH  41  42
ATOM     42  C   UNL     1       4.251  -3.338  28.244  0.00  0.00    +0.179 C 
ATOM     43  C   UNL     1       3.086  -4.315  28.441  0.00  0.00    +0.194 C 
ATOM     44  C   UNL     1       2.749  -4.791  27.033  0.00  0.00    +0.196 C 
ATOM     45  C   UNL     1       3.729  -4.062  26.106  0.00  0.00    +0.253 C 
ATOM     46  O   UNL     1       4.812  -3.617  26.948  0.00  0.00    -0.346 OA
BRANCH  45  47
ATOM     47  N   UNL     1       4.261  -4.911  25.051  0.00  0.00    -0.286 N 
ATOM     48  C   UNL     1       4.782  -4.463  23.868  0.00  0.00    +0.167 A 
ATOM     49  N   UNL     1       4.919  -3.190  23.447  0.00  0.00    -0.216 NA
ATOM     50  C   UNL     1       5.460  -3.160  22.218  0.00  0.00    +0.225 A 
ATOM     51  N   UNL     1       5.822  -4.188  21.425  0.00  0.00    -0.219 NA
ATOM     52  C   UNL     1       5.640  -5.448  21.887  0.00  0.00    +0.147 A 
ATOM     53  N   UNL     1       5.986  -6.508  21.059  0.00  0.00    -0.341 N 
ATOM     54  H   UNL     1       6.157  -7.375  21.555  0.00  0.00    +0.144 HD
ATOM     55  H   UNL     1       6.649  -6.238  20.342  0.00  0.00    +0.144 HD
ATOM     56  C   UNL     1       5.119  -5.618  23.170  0.00  0.00    +0.147 A 
ATOM     57  N   UNL     1       4.865  -6.752  23.927  0.00  0.00    -0.231 NA
ATOM     58  C   UNL     1       4.365  -6.283  25.061  0.00  0.00    +0.203 A 
ENDBRANCH  45  47
BRANCH  44  59
ATOM     59  O   UNL     1       1.376  -4.528  26.732  0.00  0.00    -0.385 OA
ATOM     60  H   UNL     1       1.087  -3.841  27.369  0.00  0.00    +0.210 HD
ENDBRANCH  44  59
BRANCH  43  61
ATOM     61  O   UNL     1       3.413  -5.512  29.149  0.00  0.00    -0.278 OA
BRANCH  61  62
ATOM     62  P   UNL     1       4.878  -5.790  29.700  0.00  0.00    +0.473 P 
ATOM     63  O   UNL     1       5.507  -4.693  30.485  0.00  0.00    -0.228 OA
BRANCH  62  64
ATOM     64  O   UNL     1       5.644  -6.240  28.378  0.00  0.00    -0.303 OA
ATOM     65  H   UNL     1       5.286  -7.089  28.052  0.00  0.00    +0.222 HD
ENDBRANCH  62  64
BRANCH  62  66
ATOM     66  O   UNL     1       4.741  -7.175  30.474  0.00  0.00    -0.303 OA
ATOM     67  H   UNL     1       5.351  -7.853  30.127  0.00  0.00    +0.222 HD
ENDBRANCH  62  66
ENDBRANCH  61  62
ENDBRANCH  43  61
ENDBRANCH  41  42
ENDBRANCH  40  41
ENDBRANCH  36  40
ENDBRANCH  35  36
ENDBRANCH   1  35
TORSDOF 28
ENDMDL
