MODEL 1
REMARK VINA RESULT:      -5.3      0.000      0.000
REMARK  Name = 
REMARK  27 active torsions:
REMARK  status: ('A' for Active; 'I' for Inactive)
REMARK    1  A    between atoms: C_1  and  C_2
REMARK    2  A    between atoms: C_2  and  C_3
REMARK    3  A    between atoms: C_3  and  C_4
REMARK    4  A    between atoms: C_4  and  C_5
REMARK    5  A    between atoms: C_5  and  C_6
REMARK    6  A    between atoms: C_6  and  C_7
REMARK    7  A    between atoms: C_7  and  C_8
REMARK    8  A    between atoms: C_8  and  C_9
REMARK    9  A    between atoms: C_9  and  C_10
REMARK   10  A    between atoms: C_10  and  C_11
REMARK   11  A    between atoms: C_11  and  C_12
REMARK   12  A    between atoms: C_12  and  C_14
REMARK   13  A    between atoms: C_12  and  O_28
REMARK   14  A    between atoms: C_14  and  C_15
REMARK   15  A    between atoms: C_20  and  C_22
REMARK   16  A    between atoms: C_22  and  C_23
REMARK   17  A    between atoms: C_23  and  C_24
REMARK   18  A    between atoms: C_24  and  C_25
REMARK   19  A    between atoms: C_25  and  C_26
REMARK   20  A    between atoms: C_26  and  C_27
REMARK   21  A    between atoms: O_28  and  C_29
REMARK   22  A    between atoms: C_29  and  C_31
REMARK   23  A    between atoms: C_31  and  C_33
REMARK   24  A    between atoms: C_31  and  N_37
REMARK   25  A    between atoms: C_33  and  C_34
REMARK   26  A    between atoms: C_34  and  C_35
REMARK   27  A    between atoms: C_34  and  C_36
REMARK                            x       y       z     vdW  Elec       q    Type
REMARK                         _______ _______ _______ _____ _____    ______ ____
ROOT
ATOM      1  C   UNL     1       8.841  -2.092  24.400  0.00  0.00    +0.180 C 
ENDROOT
BRANCH   1   2
ATOM      2  C   UNL     1       8.772  -3.459  25.117  0.00  0.00    +0.090 C 
BRANCH   2   3
ATOM      3  C   UNL     1       7.418  -3.912  25.685  0.00  0.00    +0.194 C 
ATOM      4  C   UNL     1       6.891  -5.371  25.661  0.00  0.00    +0.138 C 
ATOM      5  C   UNL     1       7.213  -5.287  27.168  0.00  0.00    +0.314 C 
ATOM      6  O   UNL     1       7.230  -6.042  28.115  0.00  0.00    -0.250 OA
ATOM      7  O   UNL     1       7.456  -3.956  27.138  0.00  0.00    -0.460 OA
BRANCH   4   8
ATOM      8  C   UNL     1       5.427  -5.642  25.374  0.00  0.00    +0.018 C 
BRANCH   8   9
ATOM      9  C   UNL     1       4.834  -4.495  24.565  0.00  0.00    +0.001 C 
BRANCH   9  10
ATOM     10  C   UNL     1       4.844  -4.829  23.077  0.00  0.00    +0.000 C 
BRANCH  10  11
ATOM     11  C   UNL     1       5.821  -3.934  22.321  0.00  0.00    -0.000 C 
BRANCH  11  12
ATOM     12  C   UNL     1       7.039  -4.727  21.857  0.00  0.00    -0.003 C 
ATOM     13  C   UNL     1       6.786  -6.223  21.945  0.00  0.00    +0.004 C 
ENDBRANCH  11  12
ENDBRANCH  10  11
ENDBRANCH   9  10
ENDBRANCH   8   9
ENDBRANCH   4   8
ENDBRANCH   2   3
ENDBRANCH   1   2
BRANCH   1  14
ATOM     14  O   UNL     1       9.453  -1.135  25.284  0.00  0.00    -0.460 OA
BRANCH  14  15
ATOM     15  C   UNL     1       8.735  -0.732  26.368  0.00  0.00    +0.328 C 
ATOM     16  O   UNL     1       9.138  -0.747  27.527  0.00  0.00    -0.249 OA
BRANCH  15  17
ATOM     17  C   UNL     1       7.355  -0.224  25.953  0.00  0.00    +0.182 C 
BRANCH  17  18
ATOM     18  N   UNL     1       6.416  -0.732  26.961  0.00  0.00    -0.305 N 
ATOM     19  H   UNL     1       6.775  -0.877  27.900  0.00  0.00    +0.149 HD
ATOM     20  C   UNL     1       5.141  -1.117  26.665  0.00  0.00    +0.326 C 
ATOM     21  O   UNL     1       4.614  -1.051  25.565  0.00  0.00    -0.280 OA
ENDBRANCH  17  18
BRANCH  17  22
ATOM     22  C   UNL     1       7.332   1.314  25.916  0.00  0.00    +0.036 C 
BRANCH  22  23
ATOM     23  C   UNL     1       6.854   1.943  24.589  0.00  0.00    -0.015 C 
ATOM     24  C   UNL     1       5.589   2.771  24.815  0.00  0.00    +0.007 C 
ATOM     25  C   UNL     1       6.595   0.895  23.509  0.00  0.00    +0.007 C 
ENDBRANCH  22  23
ENDBRANCH  17  22
ENDBRANCH  15  17
ENDBRANCH  14  15
ENDBRANCH   1  14
BRANCH   1  26
ATOM     26  C   UNL     1       9.571  -2.044  23.052  0.00  0.00    +0.045 C 
BRANCH  26  27
ATOM     27  C   UNL     1       8.767  -1.492  21.886  0.00  0.00    +0.004 C 
BRANCH  27  28
ATOM     28  C   UNL     1       9.402  -0.236  21.296  0.00  0.00    +0.000 C 
BRANCH  28  29
ATOM     29  C   UNL     1      10.163   0.514  22.382  0.00  0.00    +0.000 C 
BRANCH  29  30
ATOM     30  C   UNL     1      10.022   2.020  22.214  0.00  0.00    +0.000 C 
BRANCH  30  31
ATOM     31  C   UNL     1      10.459   2.737  23.487  0.00  0.00    -0.000 C 
BRANCH  31  32
ATOM     32  C   UNL     1       9.581   3.956  23.740  0.00  0.00    -0.000 C 
BRANCH  32  33
ATOM     33  C   UNL     1      10.414   5.228  23.862  0.00  0.00    -0.000 C 
BRANCH  33  34
ATOM     34  C   UNL     1       9.561   6.451  23.536  0.00  0.00    -0.000 C 
BRANCH  34  36
ATOM     35  C   UNL     1       7.090   6.854  23.657  0.00  0.00    +0.004 C 
ATOM     36  C   UNL     1       8.195   6.052  22.990  0.00  0.00    -0.003 C 
ENDBRANCH  34  36
ENDBRANCH  33  34
ENDBRANCH  32  33
ENDBRANCH  31  32
ENDBRANCH  30  31
ENDBRANCH  29  30
ENDBRANCH  28  29
ENDBRANCH  27  28
ENDBRANCH  26  27
ENDBRANCH   1  26
TORSDOF 23
ENDMDL
MODEL 2
REMARK VINA RESULT:      -5.2      1.522      5.208
REMARK  Name = 
REMARK  27 active torsions:
REMARK  status: ('A' for Active; 'I' for Inactive)
REMARK    1  A    between atoms: C_1  and  C_2
REMARK    2  A    between atoms: C_2  and  C_3
REMARK    3  A    between atoms: C_3  and  C_4
REMARK    4  A    between atoms: C_4  and  C_5
REMARK    5  A    between atoms: C_5  and  C_6
REMARK    6  A    between atoms: C_6  and  C_7
REMARK    7  A    between atoms: C_7  and  C_8
REMARK    8  A    between atoms: C_8  and  C_9
REMARK    9  A    between atoms: C_9  and  C_10
REMARK   10  A    between atoms: C_10  and  C_11
REMARK   11  A    between atoms: C_11  and  C_12
REMARK   12  A    between atoms: C_12  and  C_14
REMARK   13  A    between atoms: C_12  and  O_28
REMARK   14  A    between atoms: C_14  and  C_15
REMARK   15  A    between atoms: C_20  and  C_22
REMARK   16  A    between atoms: C_22  and  C_23
REMARK   17  A    between atoms: C_23  and  C_24
REMARK   18  A    between atoms: C_24  and  C_25
REMARK   19  A    between atoms: C_25  and  C_26
REMARK   20  A    between atoms: C_26  and  C_27
REMARK   21  A    between atoms: O_28  and  C_29
REMARK   22  A    between atoms: C_29  and  C_31
REMARK   23  A    between atoms: C_31  and  C_33
REMARK   24  A    between atoms: C_31  and  N_37
REMARK   25  A    between atoms: C_33  and  C_34
REMARK   26  A    between atoms: C_34  and  C_35
REMARK   27  A    between atoms: C_34  and  C_36
REMARK                            x       y       z     vdW  Elec       q    Type
REMARK                         _______ _______ _______ _____ _____    ______ ____
ROOT
ATOM      1  C   UNL     1       9.121  -1.657  24.513  0.00  0.00    +0.180 C 
ENDROOT
BRANCH   1   2
ATOM      2  C   UNL     1       9.435  -0.466  25.445  0.00  0.00    +0.090 C 
BRANCH   2   3
ATOM      3  C   UNL     1       8.256   0.286  26.082  0.00  0.00    +0.194 C 
ATOM      4  C   UNL     1       6.791   0.230  25.574  0.00  0.00    +0.138 C 
ATOM      5  C   UNL     1       6.608  -0.625  26.846  0.00  0.00    +0.314 C 
ATOM      6  O   UNL     1       5.730  -1.290  27.349  0.00  0.00    -0.250 OA
ATOM      7  O   UNL     1       7.845  -0.352  27.322  0.00  0.00    -0.460 OA
BRANCH   4   8
ATOM      8  C   UNL     1       5.943   1.486  25.569  0.00  0.00    +0.018 C 
BRANCH   8   9
ATOM      9  C   UNL     1       6.437   2.444  24.491  0.00  0.00    +0.001 C 
BRANCH   9  10
ATOM     10  C   UNL     1       5.382   2.617  23.404  0.00  0.00    +0.000 C 
BRANCH  10  11
ATOM     11  C   UNL     1       5.865   3.572  22.318  0.00  0.00    -0.000 C 
BRANCH  11  12
ATOM     12  C   UNL     1       6.185   4.945  22.904  0.00  0.00    -0.003 C 
ATOM     13  C   UNL     1       7.168   5.700  22.025  0.00  0.00    +0.004 C 
ENDBRANCH  11  12
ENDBRANCH  10  11
ENDBRANCH   9  10
ENDBRANCH   8   9
ENDBRANCH   4   8
ENDBRANCH   2   3
ENDBRANCH   1   2
BRANCH   1  14
ATOM     14  O   UNL     1       8.425  -2.667  25.267  0.00  0.00    -0.460 OA
BRANCH  14  15
ATOM     15  C   UNL     1       8.620  -3.964  24.907  0.00  0.00    +0.328 C 
ATOM     16  O   UNL     1       9.664  -4.422  24.452  0.00  0.00    -0.249 OA
BRANCH  15  17
ATOM     17  C   UNL     1       7.368  -4.801  25.171  0.00  0.00    +0.182 C 
BRANCH  17  18
ATOM     18  N   UNL     1       6.768  -4.256  26.395  0.00  0.00    -0.305 N 
ATOM     19  H   UNL     1       6.363  -3.325  26.341  0.00  0.00    +0.149 HD
ATOM     20  C   UNL     1       6.834  -4.887  27.603  0.00  0.00    +0.326 C 
ATOM     21  O   UNL     1       7.348  -5.976  27.810  0.00  0.00    -0.280 OA
ENDBRANCH  17  18
BRANCH  17  22
ATOM     22  C   UNL     1       6.387  -4.696  23.991  0.00  0.00    +0.036 C 
BRANCH  22  23
ATOM     23  C   UNL     1       7.030  -4.661  22.588  0.00  0.00    -0.015 C 
ATOM     24  C   UNL     1       6.175  -3.833  21.628  0.00  0.00    +0.007 C 
ATOM     25  C   UNL     1       7.242  -6.059  22.011  0.00  0.00    +0.007 C 
ENDBRANCH  22  23
ENDBRANCH  17  22
ENDBRANCH  15  17
ENDBRANCH  14  15
ENDBRANCH   1  14
BRANCH   1  26
ATOM     26  C   UNL     1       8.314  -1.358  23.243  0.00  0.00    +0.045 C 
BRANCH  26  27
ATOM     27  C   UNL     1       9.087  -1.435  21.936  0.00  0.00    +0.004 C 
BRANCH  27  28
ATOM     28  C   UNL     1       9.708  -0.094  21.559  0.00  0.00    +0.000 C 
BRANCH  28  29
ATOM     29  C   UNL     1       8.645   0.997  21.603  0.00  0.00    +0.000 C 
BRANCH  29  30
ATOM     30  C   UNL     1       9.228   2.317  22.087  0.00  0.00    +0.000 C 
BRANCH  30  31
ATOM     31  C   UNL     1      10.400   2.063  23.029  0.00  0.00    -0.000 C 
BRANCH  31  32
ATOM     32  C   UNL     1      10.998   3.381  23.503  0.00  0.00    -0.000 C 
BRANCH  32  33
ATOM     33  C   UNL     1       9.911   4.374  23.903  0.00  0.00    -0.000 C 
BRANCH  33  34
ATOM     34  C   UNL     1      10.420   5.804  23.750  0.00  0.00    -0.000 C 
BRANCH  34  36
ATOM     35  C   UNL     1      12.247   6.796  25.151  0.00  0.00    +0.004 C 
ATOM     36  C   UNL     1      11.926   5.890  23.974  0.00  0.00    -0.003 C 
ENDBRANCH  34  36
ENDBRANCH  33  34
ENDBRANCH  32  33
ENDBRANCH  31  32
ENDBRANCH  30  31
ENDBRANCH  29  30
ENDBRANCH  28  29
ENDBRANCH  27  28
ENDBRANCH  26  27
ENDBRANCH   1  26
TORSDOF 23
ENDMDL
MODEL 3
REMARK VINA RESULT:      -5.1      1.845      7.197
REMARK  Name = 
REMARK  27 active torsions:
REMARK  status: ('A' for Active; 'I' for Inactive)
REMARK    1  A    between atoms: C_1  and  C_2
REMARK    2  A    between atoms: C_2  and  C_3
REMARK    3  A    between atoms: C_3  and  C_4
REMARK    4  A    between atoms: C_4  and  C_5
REMARK    5  A    between atoms: C_5  and  C_6
REMARK    6  A    between atoms: C_6  and  C_7
REMARK    7  A    between atoms: C_7  and  C_8
REMARK    8  A    between atoms: C_8  and  C_9
REMARK    9  A    between atoms: C_9  and  C_10
REMARK   10  A    between atoms: C_10  and  C_11
REMARK   11  A    between atoms: C_11  and  C_12
REMARK   12  A    between atoms: C_12  and  C_14
REMARK   13  A    between atoms: C_12  and  O_28
REMARK   14  A    between atoms: C_14  and  C_15
REMARK   15  A    between atoms: C_20  and  C_22
REMARK   16  A    between atoms: C_22  and  C_23
REMARK   17  A    between atoms: C_23  and  C_24
REMARK   18  A    between atoms: C_24  and  C_25
REMARK   19  A    between atoms: C_25  and  C_26
REMARK   20  A    between atoms: C_26  and  C_27
REMARK   21  A    between atoms: O_28  and  C_29
REMARK   22  A    between atoms: C_29  and  C_31
REMARK   23  A    between atoms: C_31  and  C_33
REMARK   24  A    between atoms: C_31  and  N_37
REMARK   25  A    between atoms: C_33  and  C_34
REMARK   26  A    between atoms: C_34  and  C_35
REMARK   27  A    between atoms: C_34  and  C_36
REMARK                            x       y       z     vdW  Elec       q    Type
REMARK                         _______ _______ _______ _____ _____    ______ ____
ROOT
ATOM      1  C   UNL     1       6.734  -0.184  25.845  0.00  0.00    +0.180 C 
ENDROOT
BRANCH   1   2
ATOM      2  C   UNL     1       5.926   0.458  24.695  0.00  0.00    +0.090 C 
BRANCH   2   3
ATOM      3  C   UNL     1       5.502   1.928  24.842  0.00  0.00    +0.194 C 
ATOM      4  C   UNL     1       6.197   3.125  24.141  0.00  0.00    +0.138 C 
ATOM      5  C   UNL     1       4.910   3.098  23.288  0.00  0.00    +0.314 C 
ATOM      6  O   UNL     1       4.489   3.657  22.300  0.00  0.00    -0.250 OA
ATOM      7  O   UNL     1       4.290   2.194  24.082  0.00  0.00    -0.460 OA
BRANCH   4   8
ATOM      8  C   UNL     1       6.394   4.429  24.888  0.00  0.00    +0.018 C 
BRANCH   8   9
ATOM      9  C   UNL     1       7.845   4.880  24.772  0.00  0.00    +0.001 C 
BRANCH   9  10
ATOM     10  C   UNL     1       8.159   5.312  23.343  0.00  0.00    +0.000 C 
BRANCH  10  11
ATOM     11  C   UNL     1       9.282   6.342  23.316  0.00  0.00    -0.000 C 
BRANCH  11  12
ATOM     12  C   UNL     1      10.251   6.123  24.475  0.00  0.00    -0.003 C 
ATOM     13  C   UNL     1      11.679   5.977  23.976  0.00  0.00    +0.004 C 
ENDBRANCH  11  12
ENDBRANCH  10  11
ENDBRANCH   9  10
ENDBRANCH   8   9
ENDBRANCH   4   8
ENDBRANCH   2   3
ENDBRANCH   1   2
BRANCH   1  14
ATOM     14  O   UNL     1       6.962  -1.571  25.533  0.00  0.00    -0.460 OA
BRANCH  14  15
ATOM     15  C   UNL     1       6.219  -2.495  26.202  0.00  0.00    +0.328 C 
ATOM     16  O   UNL     1       5.404  -2.241  27.085  0.00  0.00    -0.249 OA
BRANCH  15  17
ATOM     17  C   UNL     1       6.508  -3.906  25.690  0.00  0.00    +0.182 C 
BRANCH  17  18
ATOM     18  N   UNL     1       5.738  -4.814  26.550  0.00  0.00    -0.305 N 
ATOM     19  H   UNL     1       4.725  -4.750  26.506  0.00  0.00    +0.149 HD
ATOM     20  C   UNL     1       6.317  -5.641  27.469  0.00  0.00    +0.326 C 
ATOM     21  O   UNL     1       7.517  -5.762  27.660  0.00  0.00    -0.280 OA
ENDBRANCH  17  18
BRANCH  17  22
ATOM     22  C   UNL     1       6.072  -4.049  24.222  0.00  0.00    +0.036 C 
BRANCH  22  23
ATOM     23  C   UNL     1       6.268  -5.449  23.601  0.00  0.00    -0.015 C 
ATOM     24  C   UNL     1       7.066  -5.351  22.300  0.00  0.00    +0.007 C 
ATOM     25  C   UNL     1       4.941  -6.158  23.336  0.00  0.00    +0.007 C 
ENDBRANCH  22  23
ENDBRANCH  17  22
ENDBRANCH  15  17
ENDBRANCH  14  15
ENDBRANCH   1  14
BRANCH   1  26
ATOM     26  C   UNL     1       8.079   0.460  26.201  0.00  0.00    +0.045 C 
BRANCH  26  27
ATOM     27  C   UNL     1       9.313  -0.370  25.886  0.00  0.00    +0.004 C 
BRANCH  27  28
ATOM     28  C   UNL     1      10.307   0.388  25.013  0.00  0.00    +0.000 C 
BRANCH  28  29
ATOM     29  C   UNL     1       9.704   1.721  24.586  0.00  0.00    +0.000 C 
BRANCH  29  30
ATOM     30  C   UNL     1      10.638   2.474  23.649  0.00  0.00    +0.000 C 
BRANCH  30  31
ATOM     31  C   UNL     1      10.359   2.085  22.201  0.00  0.00    -0.000 C 
BRANCH  31  32
ATOM     32  C   UNL     1       8.859   2.002  21.952  0.00  0.00    -0.000 C 
BRANCH  32  33
ATOM     33  C   UNL     1       8.500   0.775  21.121  0.00  0.00    -0.000 C 
BRANCH  33  34
ATOM     34  C   UNL     1       9.311  -0.432  21.584  0.00  0.00    -0.000 C 
BRANCH  34  36
ATOM     35  C   UNL     1       9.302  -2.489  23.017  0.00  0.00    +0.004 C 
ATOM     36  C   UNL     1       8.445  -1.433  22.341  0.00  0.00    -0.003 C 
ENDBRANCH  34  36
ENDBRANCH  33  34
ENDBRANCH  32  33
ENDBRANCH  31  32
ENDBRANCH  30  31
ENDBRANCH  29  30
ENDBRANCH  28  29
ENDBRANCH  27  28
ENDBRANCH  26  27
ENDBRANCH   1  26
TORSDOF 23
ENDMDL
MODEL 4
REMARK VINA RESULT:      -5.1      1.954      5.866
REMARK  Name = 
REMARK  27 active torsions:
REMARK  status: ('A' for Active; 'I' for Inactive)
REMARK    1  A    between atoms: C_1  and  C_2
REMARK    2  A    between atoms: C_2  and  C_3
REMARK    3  A    between atoms: C_3  and  C_4
REMARK    4  A    between atoms: C_4  and  C_5
REMARK    5  A    between atoms: C_5  and  C_6
REMARK    6  A    between atoms: C_6  and  C_7
REMARK    7  A    between atoms: C_7  and  C_8
REMARK    8  A    between atoms: C_8  and  C_9
REMARK    9  A    between atoms: C_9  and  C_10
REMARK   10  A    between atoms: C_10  and  C_11
REMARK   11  A    between atoms: C_11  and  C_12
REMARK   12  A    between atoms: C_12  and  C_14
REMARK   13  A    between atoms: C_12  and  O_28
REMARK   14  A    between atoms: C_14  and  C_15
REMARK   15  A    between atoms: C_20  and  C_22
REMARK   16  A    between atoms: C_22  and  C_23
REMARK   17  A    between atoms: C_23  and  C_24
REMARK   18  A    between atoms: C_24  and  C_25
REMARK   19  A    between atoms: C_25  and  C_26
REMARK   20  A    between atoms: C_26  and  C_27
REMARK   21  A    between atoms: O_28  and  C_29
REMARK   22  A    between atoms: C_29  and  C_31
REMARK   23  A    between atoms: C_31  and  C_33
REMARK   24  A    between atoms: C_31  and  N_37
REMARK   25  A    between atoms: C_33  and  C_34
REMARK   26  A    between atoms: C_34  and  C_35
REMARK   27  A    between atoms: C_34  and  C_36
REMARK                            x       y       z     vdW  Elec       q    Type
REMARK                         _______ _______ _______ _____ _____    ______ ____
ROOT
ATOM      1  C   UNL     1       6.497  -1.291  26.343  0.00  0.00    +0.180 C 
ENDROOT
BRANCH   1   2
ATOM      2  C   UNL     1       7.936  -0.742  26.470  0.00  0.00    +0.090 C 
BRANCH   2   3
ATOM      3  C   UNL     1       8.667  -0.322  25.186  0.00  0.00    +0.194 C 
ATOM      4  C   UNL     1      10.197  -0.447  24.956  0.00  0.00    +0.138 C 
ATOM      5  C   UNL     1       9.748  -1.596  24.027  0.00  0.00    +0.314 C 
ATOM      6  O   UNL     1      10.277  -2.470  23.377  0.00  0.00    -0.250 OA
ATOM      7  O   UNL     1       8.434  -1.284  24.120  0.00  0.00    -0.460 OA
BRANCH   4   8
ATOM      8  C   UNL     1      10.946   0.653  24.230  0.00  0.00    +0.018 C 
BRANCH   8   9
ATOM      9  C   UNL     1       9.967   1.715  23.744  0.00  0.00    +0.001 C 
BRANCH   9  10
ATOM     10  C   UNL     1      10.076   1.892  22.234  0.00  0.00    +0.000 C 
BRANCH  10  11
ATOM     11  C   UNL     1       8.808   1.415  21.533  0.00  0.00    -0.000 C 
BRANCH  11  12
ATOM     12  C   UNL     1       7.571   1.736  22.368  0.00  0.00    -0.003 C 
ATOM     13  C   UNL     1       6.936   3.044  21.929  0.00  0.00    +0.004 C 
ENDBRANCH  11  12
ENDBRANCH  10  11
ENDBRANCH   9  10
ENDBRANCH   8   9
ENDBRANCH   4   8
ENDBRANCH   2   3
ENDBRANCH   1   2
BRANCH   1  14
ATOM     14  O   UNL     1       6.404  -2.525  27.078  0.00  0.00    -0.460 OA
BRANCH  14  15
ATOM     15  C   UNL     1       7.024  -3.616  26.551  0.00  0.00    +0.328 C 
ATOM     16  O   UNL     1       7.942  -4.233  27.084  0.00  0.00    -0.249 OA
BRANCH  15  17
ATOM     17  C   UNL     1       6.407  -4.003  25.208  0.00  0.00    +0.182 C 
BRANCH  17  18
ATOM     18  N   UNL     1       7.386  -4.878  24.549  0.00  0.00    -0.305 N 
ATOM     19  H   UNL     1       7.920  -5.507  25.141  0.00  0.00    +0.149 HD
ATOM     20  C   UNL     1       7.680  -4.799  23.219  0.00  0.00    +0.326 C 
ATOM     21  O   UNL     1       7.154  -4.042  22.417  0.00  0.00    -0.280 OA
ENDBRANCH  17  18
BRANCH  17  22
ATOM     22  C   UNL     1       5.073  -4.740  25.416  0.00  0.00    +0.036 C 
BRANCH  22  23
ATOM     23  C   UNL     1       5.175  -6.272  25.586  0.00  0.00    -0.015 C 
ATOM     24  C   UNL     1       4.214  -6.982  24.633  0.00  0.00    +0.007 C 
ATOM     25  C   UNL     1       4.896  -6.716  27.021  0.00  0.00    +0.007 C 
ENDBRANCH  22  23
ENDBRANCH  17  22
ENDBRANCH  15  17
ENDBRANCH  14  15
ENDBRANCH   1  14
BRANCH   1  26
ATOM     26  C   UNL     1       5.355  -0.371  26.793  0.00  0.00    +0.045 C 
BRANCH  26  27
ATOM     27  C   UNL     1       5.074   0.821  25.894  0.00  0.00    +0.004 C 
BRANCH  27  28
ATOM     28  C   UNL     1       5.474   2.139  26.548  0.00  0.00    +0.000 C 
BRANCH  28  29
ATOM     29  C   UNL     1       6.231   3.003  25.546  0.00  0.00    +0.000 C 
BRANCH  29  30
ATOM     30  C   UNL     1       7.565   3.465  26.114  0.00  0.00    +0.000 C 
BRANCH  30  31
ATOM     31  C   UNL     1       8.296   4.339  25.101  0.00  0.00    -0.000 C 
BRANCH  31  32
ATOM     32  C   UNL     1       8.715   5.657  25.740  0.00  0.00    -0.000 C 
BRANCH  32  33
ATOM     33  C   UNL     1       9.580   6.484  24.794  0.00  0.00    -0.000 C 
BRANCH  33  34
ATOM     34  C   UNL     1      10.434   5.567  23.923  0.00  0.00    -0.000 C 
BRANCH  34  36
ATOM     35  C   UNL     1      12.744   5.024  23.116  0.00  0.00    +0.004 C 
ATOM     36  C   UNL     1      11.910   5.944  23.991  0.00  0.00    -0.003 C 
ENDBRANCH  34  36
ENDBRANCH  33  34
ENDBRANCH  32  33
ENDBRANCH  31  32
ENDBRANCH  30  31
ENDBRANCH  29  30
ENDBRANCH  28  29
ENDBRANCH  27  28
ENDBRANCH  26  27
ENDBRANCH   1  26
TORSDOF 23
ENDMDL
MODEL 5
REMARK VINA RESULT:      -5.0      2.739      6.528
REMARK  Name = 
REMARK  27 active torsions:
REMARK  status: ('A' for Active; 'I' for Inactive)
REMARK    1  A    between atoms: C_1  and  C_2
REMARK    2  A    between atoms: C_2  and  C_3
REMARK    3  A    between atoms: C_3  and  C_4
REMARK    4  A    between atoms: C_4  and  C_5
REMARK    5  A    between atoms: C_5  and  C_6
REMARK    6  A    between atoms: C_6  and  C_7
REMARK    7  A    between atoms: C_7  and  C_8
REMARK    8  A    between atoms: C_8  and  C_9
REMARK    9  A    between atoms: C_9  and  C_10
REMARK   10  A    between atoms: C_10  and  C_11
REMARK   11  A    between atoms: C_11  and  C_12
REMARK   12  A    between atoms: C_12  and  C_14
REMARK   13  A    between atoms: C_12  and  O_28
REMARK   14  A    between atoms: C_14  and  C_15
REMARK   15  A    between atoms: C_20  and  C_22
REMARK   16  A    between atoms: C_22  and  C_23
REMARK   17  A    between atoms: C_23  and  C_24
REMARK   18  A    between atoms: C_24  and  C_25
REMARK   19  A    between atoms: C_25  and  C_26
REMARK   20  A    between atoms: C_26  and  C_27
REMARK   21  A    between atoms: O_28  and  C_29
REMARK   22  A    between atoms: C_29  and  C_31
REMARK   23  A    between atoms: C_31  and  C_33
REMARK   24  A    between atoms: C_31  and  N_37
REMARK   25  A    between atoms: C_33  and  C_34
REMARK   26  A    between atoms: C_34  and  C_35
REMARK   27  A    between atoms: C_34  and  C_36
REMARK                            x       y       z     vdW  Elec       q    Type
REMARK                         _______ _______ _______ _____ _____    ______ ____
ROOT
ATOM      1  C   UNL     1       9.114  -3.797  24.210  0.00  0.00    +0.180 C 
ENDROOT
BRANCH   1   2
ATOM      2  C   UNL     1       7.786  -3.688  23.429  0.00  0.00    +0.090 C 
BRANCH   2   3
ATOM      3  C   UNL     1       7.022  -4.983  23.114  0.00  0.00    +0.194 C 
ATOM      4  C   UNL     1       5.553  -5.047  22.618  0.00  0.00    +0.138 C 
ATOM      5  C   UNL     1       6.243  -5.427  21.290  0.00  0.00    +0.314 C 
ATOM      6  O   UNL     1       5.913  -5.613  20.140  0.00  0.00    -0.250 OA
ATOM      7  O   UNL     1       7.467  -5.553  21.853  0.00  0.00    -0.460 OA
BRANCH   4   8
ATOM      8  C   UNL     1       4.623  -6.124  23.140  0.00  0.00    +0.018 C 
BRANCH   8   9
ATOM      9  C   UNL     1       3.186  -5.618  23.134  0.00  0.00    +0.001 C 
BRANCH   9  10
ATOM     10  C   UNL     1       2.208  -6.785  23.215  0.00  0.00    +0.000 C 
BRANCH  10  11
ATOM     11  C   UNL     1       2.631  -7.782  24.288  0.00  0.00    -0.000 C 
BRANCH  11  12
ATOM     12  C   UNL     1       1.530  -8.807  24.544  0.00  0.00    -0.003 C 
ATOM     13  C   UNL     1       1.009  -8.710  25.969  0.00  0.00    +0.004 C 
ENDBRANCH  11  12
ENDBRANCH  10  11
ENDBRANCH   9  10
ENDBRANCH   8   9
ENDBRANCH   4   8
ENDBRANCH   2   3
ENDBRANCH   1   2
BRANCH   1  14
ATOM     14  O   UNL     1       9.538  -2.476  24.593  0.00  0.00    -0.460 OA
BRANCH  14  15
ATOM     15  C   UNL     1       9.944  -1.636  23.603  0.00  0.00    +0.328 C 
ATOM     16  O   UNL     1      10.620  -1.963  22.632  0.00  0.00    -0.249 OA
BRANCH  15  17
ATOM     17  C   UNL     1       9.422  -0.219  23.837  0.00  0.00    +0.182 C 
BRANCH  17  18
ATOM     18  N   UNL     1       8.934  -0.191  25.222  0.00  0.00    -0.305 N 
ATOM     19  H   UNL     1       9.349  -0.849  25.875  0.00  0.00    +0.149 HD
ATOM     20  C   UNL     1       7.888   0.586  25.629  0.00  0.00    +0.326 C 
ATOM     21  O   UNL     1       7.267   1.368  24.925  0.00  0.00    -0.280 OA
ENDBRANCH  17  18
BRANCH  17  22
ATOM     22  C   UNL     1      10.545   0.813  23.637  0.00  0.00    +0.036 C 
BRANCH  22  23
ATOM     23  C   UNL     1      10.195   2.014  22.732  0.00  0.00    -0.015 C 
ATOM     24  C   UNL     1       9.904   3.254  23.577  0.00  0.00    +0.007 C 
ATOM     25  C   UNL     1       9.005   1.726  21.818  0.00  0.00    +0.007 C 
ENDBRANCH  22  23
ENDBRANCH  17  22
ENDBRANCH  15  17
ENDBRANCH  14  15
ENDBRANCH   1  14
BRANCH   1  26
ATOM     26  C   UNL     1       9.121  -4.689  25.458  0.00  0.00    +0.045 C 
BRANCH  26  27
ATOM     27  C   UNL     1       8.165  -4.281  26.567  0.00  0.00    +0.004 C 
BRANCH  27  28
ATOM     28  C   UNL     1       7.426  -5.478  27.156  0.00  0.00    +0.000 C 
BRANCH  28  29
ATOM     29  C   UNL     1       6.140  -5.723  26.377  0.00  0.00    +0.000 C 
BRANCH  29  30
ATOM     30  C   UNL     1       5.132  -6.504  27.208  0.00  0.00    +0.000 C 
BRANCH  30  31
ATOM     31  C   UNL     1       3.761  -5.842  27.136  0.00  0.00    -0.000 C 
BRANCH  31  32
ATOM     32  C   UNL     1       3.633  -4.765  28.206  0.00  0.00    -0.000 C 
BRANCH  32  33
ATOM     33  C   UNL     1       3.652  -3.368  27.595  0.00  0.00    -0.000 C 
BRANCH  33  34
ATOM     34  C   UNL     1       3.225  -3.427  26.130  0.00  0.00    -0.000 C 
BRANCH  34  36
ATOM     35  C   UNL     1       5.331  -2.072  26.030  0.00  0.00    +0.004 C 
ATOM     36  C   UNL     1       4.262  -2.782  25.217  0.00  0.00    -0.003 C 
ENDBRANCH  34  36
ENDBRANCH  33  34
ENDBRANCH  32  33
ENDBRANCH  31  32
ENDBRANCH  30  31
ENDBRANCH  29  30
ENDBRANCH  28  29
ENDBRANCH  27  28
ENDBRANCH  26  27
ENDBRANCH   1  26
TORSDOF 23
ENDMDL
MODEL 6
REMARK VINA RESULT:      -5.0      2.707      5.787
REMARK  Name = 
REMARK  27 active torsions:
REMARK  status: ('A' for Active; 'I' for Inactive)
REMARK    1  A    between atoms: C_1  and  C_2
REMARK    2  A    between atoms: C_2  and  C_3
REMARK    3  A    between atoms: C_3  and  C_4
REMARK    4  A    between atoms: C_4  and  C_5
REMARK    5  A    between atoms: C_5  and  C_6
REMARK    6  A    between atoms: C_6  and  C_7
REMARK    7  A    between atoms: C_7  and  C_8
REMARK    8  A    between atoms: C_8  and  C_9
REMARK    9  A    between atoms: C_9  and  C_10
REMARK   10  A    between atoms: C_10  and  C_11
REMARK   11  A    between atoms: C_11  and  C_12
REMARK   12  A    between atoms: C_12  and  C_14
REMARK   13  A    between atoms: C_12  and  O_28
REMARK   14  A    between atoms: C_14  and  C_15
REMARK   15  A    between atoms: C_20  and  C_22
REMARK   16  A    between atoms: C_22  and  C_23
REMARK   17  A    between atoms: C_23  and  C_24
REMARK   18  A    between atoms: C_24  and  C_25
REMARK   19  A    between atoms: C_25  and  C_26
REMARK   20  A    between atoms: C_26  and  C_27
REMARK   21  A    between atoms: O_28  and  C_29
REMARK   22  A    between atoms: C_29  and  C_31
REMARK   23  A    between atoms: C_31  and  C_33
REMARK   24  A    between atoms: C_31  and  N_37
REMARK   25  A    between atoms: C_33  and  C_34
REMARK   26  A    between atoms: C_34  and  C_35
REMARK   27  A    between atoms: C_34  and  C_36
REMARK                            x       y       z     vdW  Elec       q    Type
REMARK                         _______ _______ _______ _____ _____    ______ ____
ROOT
ATOM      1  C   UNL     1       9.073  -3.416  24.024  0.00  0.00    +0.180 C 
ENDROOT
BRANCH   1   2
ATOM      2  C   UNL     1       7.673  -3.567  23.390  0.00  0.00    +0.090 C 
BRANCH   2   3
ATOM      3  C   UNL     1       7.093  -4.982  23.242  0.00  0.00    +0.194 C 
ATOM      4  C   UNL     1       5.601  -5.304  22.963  0.00  0.00    +0.138 C 
ATOM      5  C   UNL     1       6.159  -5.656  21.567  0.00  0.00    +0.314 C 
ATOM      6  O   UNL     1       5.711  -5.964  20.485  0.00  0.00    -0.250 OA
ATOM      7  O   UNL     1       7.451  -5.555  21.954  0.00  0.00    -0.460 OA
BRANCH   4   8
ATOM      8  C   UNL     1       4.937  -6.477  23.657  0.00  0.00    +0.018 C 
BRANCH   8   9
ATOM      9  C   UNL     1       3.430  -6.426  23.437  0.00  0.00    +0.001 C 
BRANCH   9  10
ATOM     10  C   UNL     1       2.934  -4.985  23.465  0.00  0.00    +0.000 C 
BRANCH  10  11
ATOM     11  C   UNL     1       1.882  -4.788  24.552  0.00  0.00    -0.000 C 
BRANCH  11  12
ATOM     12  C   UNL     1       1.675  -6.074  25.348  0.00  0.00    -0.003 C 
ATOM     13  C   UNL     1       1.774  -5.816  26.842  0.00  0.00    +0.004 C 
ENDBRANCH  11  12
ENDBRANCH  10  11
ENDBRANCH   9  10
ENDBRANCH   8   9
ENDBRANCH   4   8
ENDBRANCH   2   3
ENDBRANCH   1   2
BRANCH   1  14
ATOM     14  O   UNL     1       9.351  -2.016  24.209  0.00  0.00    -0.460 OA
BRANCH  14  15
ATOM     15  C   UNL     1       9.755  -1.307  23.120  0.00  0.00    +0.328 C 
ATOM     16  O   UNL     1      10.500  -1.728  22.240  0.00  0.00    -0.249 OA
BRANCH  15  17
ATOM     17  C   UNL     1       9.133   0.089  23.113  0.00  0.00    +0.182 C 
BRANCH  17  18
ATOM     18  N   UNL     1       9.759   0.804  21.993  0.00  0.00    -0.305 N 
ATOM     19  H   UNL     1       9.772   0.336  21.091  0.00  0.00    +0.149 HD
ATOM     20  C   UNL     1      10.408   1.996  22.139  0.00  0.00    +0.326 C 
ATOM     21  O   UNL     1      10.515   2.625  23.180  0.00  0.00    -0.280 OA
ENDBRANCH  17  18
BRANCH  17  22
ATOM     22  C   UNL     1       7.610   0.003  22.920  0.00  0.00    +0.036 C 
BRANCH  22  23
ATOM     23  C   UNL     1       6.804   1.226  23.409  0.00  0.00    -0.015 C 
ATOM     24  C   UNL     1       6.569   2.206  22.260  0.00  0.00    +0.007 C 
ATOM     25  C   UNL     1       7.491   1.949  24.566  0.00  0.00    +0.007 C 
ENDBRANCH  22  23
ENDBRANCH  17  22
ENDBRANCH  15  17
ENDBRANCH  14  15
ENDBRANCH   1  14
BRANCH   1  26
ATOM     26  C   UNL     1       9.322  -4.140  25.353  0.00  0.00    +0.045 C 
BRANCH  26  27
ATOM     27  C   UNL     1       8.270  -3.923  26.430  0.00  0.00    +0.004 C 
BRANCH  27  28
ATOM     28  C   UNL     1       7.629  -5.232  26.878  0.00  0.00    +0.000 C 
BRANCH  28  29
ATOM     29  C   UNL     1       6.112  -5.091  26.872  0.00  0.00    +0.000 C 
BRANCH  29  30
ATOM     30  C   UNL     1       5.677  -3.786  27.525  0.00  0.00    +0.000 C 
BRANCH  30  31
ATOM     31  C   UNL     1       4.415  -3.255  26.856  0.00  0.00    -0.000 C 
BRANCH  31  32
ATOM     32  C   UNL     1       4.746  -2.653  25.497  0.00  0.00    -0.000 C 
BRANCH  32  33
ATOM     33  C   UNL     1       5.686  -1.460  25.631  0.00  0.00    -0.000 C 
BRANCH  33  34
ATOM     34  C   UNL     1       5.062  -0.394  26.528  0.00  0.00    -0.000 C 
BRANCH  34  36
ATOM     35  C   UNL     1       7.464  -0.384  27.245  0.00  0.00    +0.004 C 
ATOM     36  C   UNL     1       6.076   0.170  27.518  0.00  0.00    -0.003 C 
ENDBRANCH  34  36
ENDBRANCH  33  34
ENDBRANCH  32  33
ENDBRANCH  31  32
ENDBRANCH  30  31
ENDBRANCH  29  30
ENDBRANCH  28  29
ENDBRANCH  27  28
ENDBRANCH  26  27
ENDBRANCH   1  26
TORSDOF 23
ENDMDL
MODEL 7
REMARK VINA RESULT:      -5.0      1.970      7.023
REMARK  Name = 
REMARK  27 active torsions:
REMARK  status: ('A' for Active; 'I' for Inactive)
REMARK    1  A    between atoms: C_1  and  C_2
REMARK    2  A    between atoms: C_2  and  C_3
REMARK    3  A    between atoms: C_3  and  C_4
REMARK    4  A    between atoms: C_4  and  C_5
REMARK    5  A    between atoms: C_5  and  C_6
REMARK    6  A    between atoms: C_6  and  C_7
REMARK    7  A    between atoms: C_7  and  C_8
REMARK    8  A    between atoms: C_8  and  C_9
REMARK    9  A    between atoms: C_9  and  C_10
REMARK   10  A    between atoms: C_10  and  C_11
REMARK   11  A    between atoms: C_11  and  C_12
REMARK   12  A    between atoms: C_12  and  C_14
REMARK   13  A    between atoms: C_12  and  O_28
REMARK   14  A    between atoms: C_14  and  C_15
REMARK   15  A    between atoms: C_20  and  C_22
REMARK   16  A    between atoms: C_22  and  C_23
REMARK   17  A    between atoms: C_23  and  C_24
REMARK   18  A    between atoms: C_24  and  C_25
REMARK   19  A    between atoms: C_25  and  C_26
REMARK   20  A    between atoms: C_26  and  C_27
REMARK   21  A    between atoms: O_28  and  C_29
REMARK   22  A    between atoms: C_29  and  C_31
REMARK   23  A    between atoms: C_31  and  C_33
REMARK   24  A    between atoms: C_31  and  N_37
REMARK   25  A    between atoms: C_33  and  C_34
REMARK   26  A    between atoms: C_34  and  C_35
REMARK   27  A    between atoms: C_34  and  C_36
REMARK                            x       y       z     vdW  Elec       q    Type
REMARK                         _______ _______ _______ _____ _____    ______ ____
ROOT
ATOM      1  C   UNL     1       6.819  -0.702  25.660  0.00  0.00    +0.180 C 
ENDROOT
BRANCH   1   2
ATOM      2  C   UNL     1       5.923   0.084  24.677  0.00  0.00    +0.090 C 
BRANCH   2   3
ATOM      3  C   UNL     1       5.574   1.540  25.021  0.00  0.00    +0.194 C 
ATOM      4  C   UNL     1       5.604   2.720  24.014  0.00  0.00    +0.138 C 
ATOM      5  C   UNL     1       4.071   2.586  24.139  0.00  0.00    +0.314 C 
ATOM      6  O   UNL     1       3.092   3.064  23.610  0.00  0.00    -0.250 OA
ATOM      7  O   UNL     1       4.137   1.707  25.166  0.00  0.00    -0.460 OA
BRANCH   4   8
ATOM      8  C   UNL     1       6.125   4.075  24.450  0.00  0.00    +0.018 C 
BRANCH   8   9
ATOM      9  C   UNL     1       7.246   3.899  25.466  0.00  0.00    +0.001 C 
BRANCH   9  10
ATOM     10  C   UNL     1       8.376   4.886  25.193  0.00  0.00    +0.000 C 
BRANCH  10  11
ATOM     11  C   UNL     1       8.033   5.801  24.022  0.00  0.00    -0.000 C 
BRANCH  11  12
ATOM     12  C   UNL     1       9.298   6.385  23.398  0.00  0.00    -0.003 C 
ATOM     13  C   UNL     1      10.535   5.970  24.176  0.00  0.00    +0.004 C 
ENDBRANCH  11  12
ENDBRANCH  10  11
ENDBRANCH   9  10
ENDBRANCH   8   9
ENDBRANCH   4   8
ENDBRANCH   2   3
ENDBRANCH   1   2
BRANCH   1  14
ATOM     14  O   UNL     1       7.307  -1.885  25.000  0.00  0.00    -0.460 OA
BRANCH  14  15
ATOM     15  C   UNL     1       6.987  -3.087  25.550  0.00  0.00    +0.328 C 
ATOM     16  O   UNL     1       7.231  -3.423  26.705  0.00  0.00    -0.249 OA
BRANCH  15  17
ATOM     17  C   UNL     1       6.248  -3.971  24.545  0.00  0.00    +0.182 C 
BRANCH  17  18
ATOM     18  N   UNL     1       6.970  -3.830  23.275  0.00  0.00    -0.305 N 
ATOM     19  H   UNL     1       7.978  -3.709  23.323  0.00  0.00    +0.149 HD
ATOM     20  C   UNL     1       6.343  -3.744  22.066  0.00  0.00    +0.326 C 
ATOM     21  O   UNL     1       5.138  -3.813  21.883  0.00  0.00    -0.280 OA
ENDBRANCH  17  18
BRANCH  17  22
ATOM     22  C   UNL     1       6.246  -5.437  25.010  0.00  0.00    +0.036 C 
BRANCH  22  23
ATOM     23  C   UNL     1       4.887  -5.981  25.501  0.00  0.00    -0.015 C 
ATOM     24  C   UNL     1       5.026  -6.589  26.896  0.00  0.00    +0.007 C 
ATOM     25  C   UNL     1       4.298  -7.018  24.546  0.00  0.00    +0.007 C 
ENDBRANCH  22  23
ENDBRANCH  17  22
ENDBRANCH  15  17
ENDBRANCH  14  15
ENDBRANCH   1  14
BRANCH   1  26
ATOM     26  C   UNL     1       8.015   0.043  26.266  0.00  0.00    +0.045 C 
BRANCH  26  27
ATOM     27  C   UNL     1       8.921   0.755  25.274  0.00  0.00    +0.004 C 
BRANCH  27  28
ATOM     28  C   UNL     1      10.312   0.133  25.218  0.00  0.00    +0.000 C 
BRANCH  28  29
ATOM     29  C   UNL     1      11.214   0.969  24.319  0.00  0.00    +0.000 C 
BRANCH  29  30
ATOM     30  C   UNL     1      10.558   2.295  23.960  0.00  0.00    +0.000 C 
BRANCH  30  31
ATOM     31  C   UNL     1      10.320   2.376  22.456  0.00  0.00    -0.000 C 
BRANCH  31  32
ATOM     32  C   UNL     1       8.854   2.674  22.165  0.00  0.00    -0.000 C 
BRANCH  32  33
ATOM     33  C   UNL     1       8.130   1.440  21.636  0.00  0.00    -0.000 C 
BRANCH  33  34
ATOM     34  C   UNL     1       9.137   0.352  21.274  0.00  0.00    -0.000 C 
BRANCH  34  36
ATOM     35  C   UNL     1      10.040  -1.750  22.298  0.00  0.00    +0.004 C 
ATOM     36  C   UNL     1       8.784  -0.979  21.930  0.00  0.00    -0.003 C 
ENDBRANCH  34  36
ENDBRANCH  33  34
ENDBRANCH  32  33
ENDBRANCH  31  32
ENDBRANCH  30  31
ENDBRANCH  29  30
ENDBRANCH  28  29
ENDBRANCH  27  28
ENDBRANCH  26  27
ENDBRANCH   1  26
TORSDOF 23
ENDMDL
MODEL 8
REMARK VINA RESULT:      -5.0      1.943      6.727
REMARK  Name = 
REMARK  27 active torsions:
REMARK  status: ('A' for Active; 'I' for Inactive)
REMARK    1  A    between atoms: C_1  and  C_2
REMARK    2  A    between atoms: C_2  and  C_3
REMARK    3  A    between atoms: C_3  and  C_4
REMARK    4  A    between atoms: C_4  and  C_5
REMARK    5  A    between atoms: C_5  and  C_6
REMARK    6  A    between atoms: C_6  and  C_7
REMARK    7  A    between atoms: C_7  and  C_8
REMARK    8  A    between atoms: C_8  and  C_9
REMARK    9  A    between atoms: C_9  and  C_10
REMARK   10  A    between atoms: C_10  and  C_11
REMARK   11  A    between atoms: C_11  and  C_12
REMARK   12  A    between atoms: C_12  and  C_14
REMARK   13  A    between atoms: C_12  and  O_28
REMARK   14  A    between atoms: C_14  and  C_15
REMARK   15  A    between atoms: C_20  and  C_22
REMARK   16  A    between atoms: C_22  and  C_23
REMARK   17  A    between atoms: C_23  and  C_24
REMARK   18  A    between atoms: C_24  and  C_25
REMARK   19  A    between atoms: C_25  and  C_26
REMARK   20  A    between atoms: C_26  and  C_27
REMARK   21  A    between atoms: O_28  and  C_29
REMARK   22  A    between atoms: C_29  and  C_31
REMARK   23  A    between atoms: C_31  and  C_33
REMARK   24  A    between atoms: C_31  and  N_37
REMARK   25  A    between atoms: C_33  and  C_34
REMARK   26  A    between atoms: C_34  and  C_35
REMARK   27  A    between atoms: C_34  and  C_36
REMARK                            x       y       z     vdW  Elec       q    Type
REMARK                         _______ _______ _______ _____ _____    ______ ____
ROOT
ATOM      1  C   UNL     1       5.761  -2.138  25.827  0.00  0.00    +0.180 C 
ENDROOT
BRANCH   1   2
ATOM      2  C   UNL     1       5.268  -0.807  26.438  0.00  0.00    +0.090 C 
BRANCH   2   3
ATOM      3  C   UNL     1       5.899   0.500  25.932  0.00  0.00    +0.194 C 
ATOM      4  C   UNL     1       5.662   1.113  24.527  0.00  0.00    +0.138 C 
ATOM      5  C   UNL     1       4.828   2.124  25.343  0.00  0.00    +0.314 C 
ATOM      6  O   UNL     1       4.082   3.050  25.112  0.00  0.00    -0.250 OA
ATOM      7  O   UNL     1       5.254   1.654  26.538  0.00  0.00    -0.460 OA
BRANCH   4   8
ATOM      8  C   UNL     1       6.813   1.753  23.776  0.00  0.00    +0.018 C 
BRANCH   8   9
ATOM      9  C   UNL     1       6.308   2.367  22.476  0.00  0.00    +0.001 C 
BRANCH   9  10
ATOM     10  C   UNL     1       6.897   3.759  22.277  0.00  0.00    +0.000 C 
BRANCH  10  11
ATOM     11  C   UNL     1       7.558   4.261  23.556  0.00  0.00    -0.000 C 
BRANCH  11  12
ATOM     12  C   UNL     1       8.337   5.549  23.297  0.00  0.00    -0.003 C 
ATOM     13  C   UNL     1       7.696   6.363  22.186  0.00  0.00    +0.004 C 
ENDBRANCH  11  12
ENDBRANCH  10  11
ENDBRANCH   9  10
ENDBRANCH   8   9
ENDBRANCH   4   8
ENDBRANCH   2   3
ENDBRANCH   1   2
BRANCH   1  14
ATOM     14  O   UNL     1       5.599  -3.184  26.802  0.00  0.00    -0.460 OA
BRANCH  14  15
ATOM     15  C   UNL     1       6.550  -4.156  26.842  0.00  0.00    +0.328 C 
ATOM     16  O   UNL     1       7.749  -3.981  26.642  0.00  0.00    -0.249 OA
BRANCH  15  17
ATOM     17  C   UNL     1       5.937  -5.509  27.203  0.00  0.00    +0.182 C 
BRANCH  17  18
ATOM     18  N   UNL     1       5.722  -5.482  28.656  0.00  0.00    -0.305 N 
ATOM     19  H   UNL     1       5.328  -4.633  29.052  0.00  0.00    +0.149 HD
ATOM     20  C   UNL     1       6.129  -6.483  29.489  0.00  0.00    +0.326 C 
ATOM     21  O   UNL     1       6.670  -7.522  29.141  0.00  0.00    -0.280 OA
ENDBRANCH  17  18
BRANCH  17  22
ATOM     22  C   UNL     1       4.606  -5.716  26.461  0.00  0.00    +0.036 C 
BRANCH  22  23
ATOM     23  C   UNL     1       4.596  -6.846  25.409  0.00  0.00    -0.015 C 
ATOM     24  C   UNL     1       4.999  -6.304  24.038  0.00  0.00    +0.007 C 
ATOM     25  C   UNL     1       3.236  -7.534  25.308  0.00  0.00    +0.007 C 
ENDBRANCH  22  23
ENDBRANCH  17  22
ENDBRANCH  15  17
ENDBRANCH  14  15
ENDBRANCH   1  14
BRANCH   1  26
ATOM     26  C   UNL     1       5.106  -2.591  24.516  0.00  0.00    +0.045 C 
BRANCH  26  27
ATOM     27  C   UNL     1       6.056  -2.842  23.356  0.00  0.00    +0.004 C 
BRANCH  27  28
ATOM     28  C   UNL     1       7.272  -1.922  23.403  0.00  0.00    +0.000 C 
BRANCH  28  29
ATOM     29  C   UNL     1       8.548  -2.752  23.331  0.00  0.00    +0.000 C 
BRANCH  29  30
ATOM     30  C   UNL     1       9.678  -2.095  24.112  0.00  0.00    +0.000 C 
BRANCH  30  31
ATOM     31  C   UNL     1       9.112  -1.184  25.195  0.00  0.00    -0.000 C 
BRANCH  31  32
ATOM     32  C   UNL     1       9.883   0.129  25.242  0.00  0.00    -0.000 C 
BRANCH  32  33
ATOM     33  C   UNL     1      10.648   0.372  23.946  0.00  0.00    -0.000 C 
BRANCH  33  34
ATOM     34  C   UNL     1      10.419   1.801  23.458  0.00  0.00    -0.000 C 
BRANCH  34  36
ATOM     35  C   UNL     1       9.494   0.495  21.529  0.00  0.00    +0.004 C 
ATOM     36  C   UNL     1      10.048   1.836  21.980  0.00  0.00    -0.003 C 
ENDBRANCH  34  36
ENDBRANCH  33  34
ENDBRANCH  32  33
ENDBRANCH  31  32
ENDBRANCH  30  31
ENDBRANCH  29  30
ENDBRANCH  28  29
ENDBRANCH  27  28
ENDBRANCH  26  27
ENDBRANCH   1  26
TORSDOF 23
ENDMDL
MODEL 9
REMARK VINA RESULT:      -5.0      2.568      7.011
REMARK  Name = 
REMARK  27 active torsions:
REMARK  status: ('A' for Active; 'I' for Inactive)
REMARK    1  A    between atoms: C_1  and  C_2
REMARK    2  A    between atoms: C_2  and  C_3
REMARK    3  A    between atoms: C_3  and  C_4
REMARK    4  A    between atoms: C_4  and  C_5
REMARK    5  A    between atoms: C_5  and  C_6
REMARK    6  A    between atoms: C_6  and  C_7
REMARK    7  A    between atoms: C_7  and  C_8
REMARK    8  A    between atoms: C_8  and  C_9
REMARK    9  A    between atoms: C_9  and  C_10
REMARK   10  A    between atoms: C_10  and  C_11
REMARK   11  A    between atoms: C_11  and  C_12
REMARK   12  A    between atoms: C_12  and  C_14
REMARK   13  A    between atoms: C_12  and  O_28
REMARK   14  A    between atoms: C_14  and  C_15
REMARK   15  A    between atoms: C_20  and  C_22
REMARK   16  A    between atoms: C_22  and  C_23
REMARK   17  A    between atoms: C_23  and  C_24
REMARK   18  A    between atoms: C_24  and  C_25
REMARK   19  A    between atoms: C_25  and  C_26
REMARK   20  A    between atoms: C_26  and  C_27
REMARK   21  A    between atoms: O_28  and  C_29
REMARK   22  A    between atoms: C_29  and  C_31
REMARK   23  A    between atoms: C_31  and  C_33
REMARK   24  A    between atoms: C_31  and  N_37
REMARK   25  A    between atoms: C_33  and  C_34
REMARK   26  A    between atoms: C_34  and  C_35
REMARK   27  A    between atoms: C_34  and  C_36
REMARK                            x       y       z     vdW  Elec       q    Type
REMARK                         _______ _______ _______ _____ _____    ______ ____
ROOT
ATOM      1  C   UNL     1       9.337   0.368  24.296  0.00  0.00    +0.180 C 
ENDROOT
BRANCH   1   2
ATOM      2  C   UNL     1       8.411   0.331  25.532  0.00  0.00    +0.090 C 
BRANCH   2   3
ATOM      3  C   UNL     1       7.152  -0.547  25.467  0.00  0.00    +0.194 C 
ATOM      4  C   UNL     1       6.187  -0.802  26.655  0.00  0.00    +0.138 C 
ATOM      5  C   UNL     1       5.273   0.134  25.837  0.00  0.00    +0.314 C 
ATOM      6  O   UNL     1       4.203   0.682  25.986  0.00  0.00    -0.250 OA
ATOM      7  O   UNL     1       6.083   0.133  24.753  0.00  0.00    -0.460 OA
BRANCH   4   8
ATOM      8  C   UNL     1       5.597  -2.182  26.869  0.00  0.00    +0.018 C 
BRANCH   8   9
ATOM      9  C   UNL     1       6.295  -3.192  25.967  0.00  0.00    +0.001 C 
BRANCH   9  10
ATOM     10  C   UNL     1       6.125  -4.605  26.514  0.00  0.00    +0.000 C 
BRANCH  10  11
ATOM     11  C   UNL     1       7.460  -5.341  26.557  0.00  0.00    -0.000 C 
BRANCH  11  12
ATOM     12  C   UNL     1       8.618  -4.385  26.281  0.00  0.00    -0.003 C 
ATOM     13  C   UNL     1       9.732  -5.079  25.515  0.00  0.00    +0.004 C 
ENDBRANCH  11  12
ENDBRANCH  10  11
ENDBRANCH   9  10
ENDBRANCH   8   9
ENDBRANCH   4   8
ENDBRANCH   2   3
ENDBRANCH   1   2
BRANCH   1  14
ATOM     14  O   UNL     1      10.264   1.460  24.443  0.00  0.00    -0.460 OA
BRANCH  14  15
ATOM     15  C   UNL     1      10.387   2.323  23.398  0.00  0.00    +0.328 C 
ATOM     16  O   UNL     1      10.281   2.019  22.214  0.00  0.00    -0.249 OA
BRANCH  15  17
ATOM     17  C   UNL     1      10.646   3.747  23.891  0.00  0.00    +0.182 C 
BRANCH  17  18
ATOM     18  N   UNL     1      11.423   4.406  22.834  0.00  0.00    -0.305 N 
ATOM     19  H   UNL     1      11.259   4.103  21.878  0.00  0.00    +0.149 HD
ATOM     20  C   UNL     1      12.415   5.308  23.089  0.00  0.00    +0.326 C 
ATOM     21  O   UNL     1      12.748   5.705  24.195  0.00  0.00    -0.280 OA
ENDBRANCH  17  18
BRANCH  17  22
ATOM     22  C   UNL     1       9.320   4.487  24.134  0.00  0.00    +0.036 C 
BRANCH  22  23
ATOM     23  C   UNL     1       8.108   3.966  23.332  0.00  0.00    -0.015 C 
ATOM     24  C   UNL     1       7.565   5.059  22.411  0.00  0.00    +0.007 C 
ATOM     25  C   UNL     1       6.988   3.457  24.239  0.00  0.00    +0.007 C 
ENDBRANCH  22  23
ENDBRANCH  17  22
ENDBRANCH  15  17
ENDBRANCH  14  15
ENDBRANCH   1  14
BRANCH   1  26
ATOM     26  C   UNL     1      10.133  -0.904  23.978  0.00  0.00    +0.045 C 
BRANCH  26  27
ATOM     27  C   UNL     1       9.719  -1.643  22.716  0.00  0.00    +0.004 C 
BRANCH  27  28
ATOM     28  C   UNL     1       8.742  -2.777  23.010  0.00  0.00    +0.000 C 
BRANCH  28  29
ATOM     29  C   UNL     1       7.369  -2.434  22.444  0.00  0.00    +0.000 C 
BRANCH  29  30
ATOM     30  C   UNL     1       6.653  -3.680  21.942  0.00  0.00    +0.000 C 
BRANCH  30  31
ATOM     31  C   UNL     1       7.108  -4.904  22.729  0.00  0.00    -0.000 C 
BRANCH  31  32
ATOM     32  C   UNL     1       5.934  -5.844  22.977  0.00  0.00    -0.000 C 
BRANCH  32  33
ATOM     33  C   UNL     1       4.614  -5.082  23.035  0.00  0.00    -0.000 C 
BRANCH  33  34
ATOM     34  C   UNL     1       3.501  -5.994  23.545  0.00  0.00    -0.000 C 
BRANCH  34  36
ATOM     35  C   UNL     1       2.903  -7.894  25.067  0.00  0.00    +0.004 C 
ATOM     36  C   UNL     1       4.021  -6.988  24.578  0.00  0.00    -0.003 C 
ENDBRANCH  34  36
ENDBRANCH  33  34
ENDBRANCH  32  33
ENDBRANCH  31  32
ENDBRANCH  30  31
ENDBRANCH  29  30
ENDBRANCH  28  29
ENDBRANCH  27  28
ENDBRANCH  26  27
ENDBRANCH   1  26
TORSDOF 23
ENDMDL
