MODEL 1
REMARK VINA RESULT:      -6.2      0.000      0.000
REMARK  Name = 
REMARK  4 active torsions:
REMARK  status: ('A' for Active; 'I' for Inactive)
REMARK    1  A    between atoms: C_2  and  C_3
REMARK    2  A    between atoms: C_3  and  C_4
REMARK    3  A    between atoms: C_7  and  C_10
REMARK    4  A    between atoms: C_15  and  S_16
REMARK                            x       y       z     vdW  Elec       q    Type
REMARK                         _______ _______ _______ _____ _____    ______ ____
ROOT
ATOM      1  C   UNL     1       9.998  -1.033  23.729  0.00  0.00    -0.046 A 
ATOM      2  C   UNL     1      10.017  -0.375  22.491  0.00  0.00    +0.004 A 
ATOM      3  C   UNL     1       9.962   1.018  22.425  0.00  0.00    +0.012 A 
ATOM      4  C   UNL     1       9.892   1.783  23.597  0.00  0.00    +0.055 A 
ATOM      5  C   UNL     1       9.961   1.129  24.834  0.00  0.00    +0.012 A 
ATOM      6  C   UNL     1      10.030  -0.265  24.900  0.00  0.00    +0.004 A 
ENDROOT
BRANCH   4   7
ATOM      7  C   UNL     1       9.709   3.278  23.509  0.00  0.00    +0.417 C 
ATOM      8  F   UNL     1       9.322   3.819  24.699  0.00  0.00    -0.166 F 
ATOM      9  F   UNL     1       8.757   3.642  22.608  0.00  0.00    -0.166 F 
ATOM     10  F   UNL     1      10.841   3.946  23.151  0.00  0.00    -0.166 F 
ENDBRANCH   4   7
BRANCH   1  11
ATOM     11  C   UNL     1       9.926  -2.546  23.752  0.00  0.00    +0.059 C 
BRANCH  11  12
ATOM     12  C   UNL     1       8.687  -3.168  24.413  0.00  0.00    +0.145 C 
ATOM     13  C   UNL     1       8.993  -4.627  24.730  0.00  0.00    +0.251 C 
ATOM     14  O   UNL     1       9.696  -4.953  25.678  0.00  0.00    -0.272 OA
ATOM     15  N   UNL     1       8.482  -5.526  23.812  0.00  0.00    -0.166 NA
ATOM     16  C   UNL     1       7.625  -4.965  23.038  0.00  0.00    +0.121 C 
ATOM     17  S   UNL     1       7.256  -3.294  23.278  0.00  0.00    -0.089 S 
BRANCH  16  18
ATOM     18  S   UNL     1       6.847  -5.785  21.730  0.00  0.00    -0.119 S 
ATOM     19  H   UNL     1       6.372  -4.674  21.147  0.00  0.00    +0.109 HD
ENDBRANCH  16  18
ENDBRANCH  11  12
ENDBRANCH   1  11
TORSDOF 4
ENDMDL
MODEL 2
REMARK VINA RESULT:      -6.1      2.788      3.570
REMARK  Name = 
REMARK  4 active torsions:
REMARK  status: ('A' for Active; 'I' for Inactive)
REMARK    1  A    between atoms: C_2  and  C_3
REMARK    2  A    between atoms: C_3  and  C_4
REMARK    3  A    between atoms: C_7  and  C_10
REMARK    4  A    between atoms: C_15  and  S_16
REMARK                            x       y       z     vdW  Elec       q    Type
REMARK                         _______ _______ _______ _____ _____    ______ ____
ROOT
ATOM      1  C   UNL     1       8.664  -2.932  25.756  0.00  0.00    -0.046 A 
ATOM      2  C   UNL     1       8.543  -1.716  26.444  0.00  0.00    +0.004 A 
ATOM      3  C   UNL     1       9.095  -0.545  25.922  0.00  0.00    +0.012 A 
ATOM      4  C   UNL     1       9.776  -0.564  24.698  0.00  0.00    +0.055 A 
ATOM      5  C   UNL     1       9.822  -1.761  23.971  0.00  0.00    +0.012 A 
ATOM      6  C   UNL     1       9.257  -2.930  24.488  0.00  0.00    +0.004 A 
ENDROOT
BRANCH   4   7
ATOM      7  C   UNL     1      10.473   0.681  24.206  0.00  0.00    +0.417 C 
ATOM      8  F   UNL     1      10.511   0.743  22.844  0.00  0.00    -0.166 F 
ATOM      9  F   UNL     1      11.766   0.760  24.619  0.00  0.00    -0.166 F 
ATOM     10  F   UNL     1       9.876   1.836  24.611  0.00  0.00    -0.166 F 
ENDBRANCH   4   7
BRANCH   1  11
ATOM     11  C   UNL     1       8.167  -4.199  26.418  0.00  0.00    +0.059 C 
BRANCH  11  12
ATOM     12  C   UNL     1       6.700  -4.212  26.873  0.00  0.00    +0.145 C 
ATOM     13  C   UNL     1       6.419  -5.547  27.552  0.00  0.00    +0.251 C 
ATOM     14  O   UNL     1       6.801  -5.792  28.689  0.00  0.00    -0.272 OA
ATOM     15  N   UNL     1       5.778  -6.469  26.746  0.00  0.00    -0.166 NA
ATOM     16  C   UNL     1       5.308  -5.916  25.687  0.00  0.00    +0.121 C 
ATOM     17  S   UNL     1       5.517  -4.213  25.476  0.00  0.00    -0.089 S 
BRANCH  16  18
ATOM     18  S   UNL     1       4.510  -6.793  24.429  0.00  0.00    -0.119 S 
ATOM     19  H   UNL     1       4.051  -5.709  23.787  0.00  0.00    +0.109 HD
ENDBRANCH  16  18
ENDBRANCH  11  12
ENDBRANCH   1  11
TORSDOF 4
ENDMDL
MODEL 3
REMARK VINA RESULT:      -6.0      2.527      3.327
REMARK  Name = 
REMARK  4 active torsions:
REMARK  status: ('A' for Active; 'I' for Inactive)
REMARK    1  A    between atoms: C_2  and  C_3
REMARK    2  A    between atoms: C_3  and  C_4
REMARK    3  A    between atoms: C_7  and  C_10
REMARK    4  A    between atoms: C_15  and  S_16
REMARK                            x       y       z     vdW  Elec       q    Type
REMARK                         _______ _______ _______ _____ _____    ______ ____
ROOT
ATOM      1  C   UNL     1       9.240   1.818  24.063  0.00  0.00    -0.046 A 
ATOM      2  C   UNL     1      10.480   2.077  23.461  0.00  0.00    +0.004 A 
ATOM      3  C   UNL     1      10.977   3.378  23.386  0.00  0.00    +0.012 A 
ATOM      4  C   UNL     1      10.248   4.450  23.919  0.00  0.00    +0.055 A 
ATOM      5  C   UNL     1       9.052   4.180  24.597  0.00  0.00    +0.012 A 
ATOM      6  C   UNL     1       8.561   2.874  24.682  0.00  0.00    +0.004 A 
ENDROOT
BRANCH   4   7
ATOM      7  C   UNL     1      10.738   5.863  23.724  0.00  0.00    +0.417 C 
ATOM      8  F   UNL     1      11.263   6.386  24.868  0.00  0.00    -0.166 F 
ATOM      9  F   UNL     1       9.750   6.717  23.343  0.00  0.00    -0.166 F 
ATOM     10  F   UNL     1      11.717   5.977  22.783  0.00  0.00    -0.166 F 
ENDBRANCH   4   7
BRANCH   1  11
ATOM     11  C   UNL     1       8.677   0.414  24.005  0.00  0.00    +0.059 C 
BRANCH  11  12
ATOM     12  C   UNL     1       9.617  -0.687  23.489  0.00  0.00    +0.145 C 
ATOM     13  C   UNL     1       9.188  -1.060  22.076  0.00  0.00    +0.251 C 
ATOM     14  O   UNL     1       9.443  -0.352  21.110  0.00  0.00    -0.272 OA
ATOM     15  N   UNL     1       8.424  -2.210  22.000  0.00  0.00    -0.166 NA
ATOM     16  C   UNL     1       8.468  -2.872  23.100  0.00  0.00    +0.121 C 
ATOM     17  S   UNL     1       9.437  -2.267  24.396  0.00  0.00    -0.089 S 
BRANCH  16  18
ATOM     18  S   UNL     1       7.568  -4.323  23.373  0.00  0.00    -0.119 S 
ATOM     19  H   UNL     1       8.622  -5.055  23.761  0.00  0.00    +0.109 HD
ENDBRANCH  16  18
ENDBRANCH  11  12
ENDBRANCH   1  11
TORSDOF 4
ENDMDL
MODEL 4
REMARK VINA RESULT:      -5.9      2.488      3.420
REMARK  Name = 
REMARK  4 active torsions:
REMARK  status: ('A' for Active; 'I' for Inactive)
REMARK    1  A    between atoms: C_2  and  C_3
REMARK    2  A    between atoms: C_3  and  C_4
REMARK    3  A    between atoms: C_7  and  C_10
REMARK    4  A    between atoms: C_15  and  S_16
REMARK                            x       y       z     vdW  Elec       q    Type
REMARK                         _______ _______ _______ _____ _____    ______ ____
ROOT
ATOM      1  C   UNL     1       9.528   1.599  24.105  0.00  0.00    -0.046 A 
ATOM      2  C   UNL     1       8.573   2.577  24.413  0.00  0.00    +0.004 A 
ATOM      3  C   UNL     1       8.876   3.934  24.286  0.00  0.00    +0.012 A 
ATOM      4  C   UNL     1      10.141   4.341  23.842  0.00  0.00    +0.055 A 
ATOM      5  C   UNL     1      11.066   3.362  23.452  0.00  0.00    +0.012 A 
ATOM      6  C   UNL     1      10.756   2.004  23.567  0.00  0.00    +0.004 A 
ENDROOT
BRANCH   4   7
ATOM      7  C   UNL     1      10.496   5.807  23.826  0.00  0.00    +0.417 C 
ATOM      8  F   UNL     1       9.632   6.535  23.063  0.00  0.00    -0.166 F 
ATOM      9  F   UNL     1      11.735   6.045  23.317  0.00  0.00    -0.166 F 
ATOM     10  F   UNL     1      10.478   6.386  25.059  0.00  0.00    -0.166 F 
ENDBRANCH   4   7
BRANCH   1  11
ATOM     11  C   UNL     1       9.204   0.146  24.382  0.00  0.00    +0.059 C 
BRANCH  11  12
ATOM     12  C   UNL     1       9.881  -0.897  23.480  0.00  0.00    +0.145 C 
ATOM     13  C   UNL     1       9.122  -0.956  22.160  0.00  0.00    +0.251 C 
ATOM     14  O   UNL     1       9.245  -0.094  21.300  0.00  0.00    -0.272 OA
ATOM     15  N   UNL     1       8.233  -2.011  22.063  0.00  0.00    -0.166 NA
ATOM     16  C   UNL     1       8.434  -2.876  22.992  0.00  0.00    +0.121 C 
ATOM     17  S   UNL     1       9.718  -2.607  24.115  0.00  0.00    -0.089 S 
BRANCH  16  18
ATOM     18  S   UNL     1       7.453  -4.283  23.207  0.00  0.00    -0.119 S 
ATOM     19  H   UNL     1       7.855  -4.528  24.463  0.00  0.00    +0.109 HD
ENDBRANCH  16  18
ENDBRANCH  11  12
ENDBRANCH   1  11
TORSDOF 4
ENDMDL
MODEL 5
REMARK VINA RESULT:      -5.9      2.689      3.127
REMARK  Name = 
REMARK  4 active torsions:
REMARK  status: ('A' for Active; 'I' for Inactive)
REMARK    1  A    between atoms: C_2  and  C_3
REMARK    2  A    between atoms: C_3  and  C_4
REMARK    3  A    between atoms: C_7  and  C_10
REMARK    4  A    between atoms: C_15  and  S_16
REMARK                            x       y       z     vdW  Elec       q    Type
REMARK                         _______ _______ _______ _____ _____    ______ ____
ROOT
ATOM      1  C   UNL     1       7.594  -1.843  22.675  0.00  0.00    -0.046 A 
ATOM      2  C   UNL     1       8.923  -1.832  22.229  0.00  0.00    +0.004 A 
ATOM      3  C   UNL     1       9.785  -0.792  22.582  0.00  0.00    +0.012 A 
ATOM      4  C   UNL     1       9.336   0.258  23.394  0.00  0.00    +0.055 A 
ATOM      5  C   UNL     1       8.035   0.202  23.910  0.00  0.00    +0.012 A 
ATOM      6  C   UNL     1       7.177  -0.847  23.567  0.00  0.00    +0.004 A 
ENDROOT
BRANCH   4   7
ATOM      7  C   UNL     1      10.239   1.435  23.667  0.00  0.00    +0.417 C 
ATOM      8  F   UNL     1      11.391   1.063  24.294  0.00  0.00    -0.166 F 
ATOM      9  F   UNL     1       9.661   2.368  24.471  0.00  0.00    -0.166 F 
ATOM     10  F   UNL     1      10.628   2.097  22.542  0.00  0.00    -0.166 F 
ENDBRANCH   4   7
BRANCH   1  11
ATOM     11  C   UNL     1       6.659  -2.917  22.162  0.00  0.00    +0.059 C 
BRANCH  11  12
ATOM     12  C   UNL     1       7.134  -4.371  22.301  0.00  0.00    +0.145 C 
ATOM     13  C   UNL     1       6.086  -5.282  21.673  0.00  0.00    +0.251 C 
ATOM     14  O   UNL     1       5.976  -5.406  20.460  0.00  0.00    -0.272 OA
ATOM     15  N   UNL     1       5.233  -5.877  22.583  0.00  0.00    -0.166 NA
ATOM     16  C   UNL     1       5.674  -5.756  23.783  0.00  0.00    +0.121 C 
ATOM     17  S   UNL     1       7.180  -4.948  24.038  0.00  0.00    -0.089 S 
BRANCH  16  18
ATOM     18  S   UNL     1       4.817  -6.324  25.173  0.00  0.00    -0.119 S 
ATOM     19  H   UNL     1       4.163  -5.175  25.399  0.00  0.00    +0.109 HD
ENDBRANCH  16  18
ENDBRANCH  11  12
ENDBRANCH   1  11
TORSDOF 4
ENDMDL
MODEL 6
REMARK VINA RESULT:      -5.8      2.067      2.307
REMARK  Name = 
REMARK  4 active torsions:
REMARK  status: ('A' for Active; 'I' for Inactive)
REMARK    1  A    between atoms: C_2  and  C_3
REMARK    2  A    between atoms: C_3  and  C_4
REMARK    3  A    between atoms: C_7  and  C_10
REMARK    4  A    between atoms: C_15  and  S_16
REMARK                            x       y       z     vdW  Elec       q    Type
REMARK                         _______ _______ _______ _____ _____    ______ ____
ROOT
ATOM      1  C   UNL     1       8.919  -1.653  24.377  0.00  0.00    -0.046 A 
ATOM      2  C   UNL     1       9.577  -1.502  23.149  0.00  0.00    +0.004 A 
ATOM      3  C   UNL     1      10.056  -0.254  22.747  0.00  0.00    +0.012 A 
ATOM      4  C   UNL     1       9.891   0.869  23.568  0.00  0.00    +0.055 A 
ATOM      5  C   UNL     1       9.311   0.700  24.832  0.00  0.00    +0.012 A 
ATOM      6  C   UNL     1       8.843  -0.552  25.240  0.00  0.00    +0.004 A 
ENDROOT
BRANCH   4   7
ATOM      7  C   UNL     1      10.303   2.232  23.069  0.00  0.00    +0.417 C 
ATOM      8  F   UNL     1      11.410   2.701  23.713  0.00  0.00    -0.166 F 
ATOM      9  F   UNL     1       9.340   3.175  23.251  0.00  0.00    -0.166 F 
ATOM     10  F   UNL     1      10.609   2.258  21.742  0.00  0.00    -0.166 F 
ENDBRANCH   4   7
BRANCH   1  11
ATOM     11  C   UNL     1       8.299  -2.993  24.715  0.00  0.00    +0.059 C 
BRANCH  11  12
ATOM     12  C   UNL     1       8.127  -3.318  26.207  0.00  0.00    +0.145 C 
ATOM     13  C   UNL     1       8.719  -4.697  26.469  0.00  0.00    +0.251 C 
ATOM     14  O   UNL     1       9.927  -4.884  26.541  0.00  0.00    -0.272 OA
ATOM     15  N   UNL     1       7.784  -5.713  26.534  0.00  0.00    -0.166 NA
ATOM     16  C   UNL     1       6.592  -5.244  26.633  0.00  0.00    +0.121 C 
ATOM     17  S   UNL     1       6.376  -3.531  26.697  0.00  0.00    -0.089 S 
BRANCH  16  18
ATOM     18  S   UNL     1       5.178  -6.238  26.663  0.00  0.00    -0.119 S 
ATOM     19  H   UNL     1       4.306  -5.220  26.694  0.00  0.00    +0.109 HD
ENDBRANCH  16  18
ENDBRANCH  11  12
ENDBRANCH   1  11
TORSDOF 4
ENDMDL
MODEL 7
REMARK VINA RESULT:      -5.7      2.282      2.768
REMARK  Name = 
REMARK  4 active torsions:
REMARK  status: ('A' for Active; 'I' for Inactive)
REMARK    1  A    between atoms: C_2  and  C_3
REMARK    2  A    between atoms: C_3  and  C_4
REMARK    3  A    between atoms: C_7  and  C_10
REMARK    4  A    between atoms: C_15  and  S_16
REMARK                            x       y       z     vdW  Elec       q    Type
REMARK                         _______ _______ _______ _____ _____    ______ ____
ROOT
ATOM      1  C   UNL     1       8.410  -2.502  23.777  0.00  0.00    -0.046 A 
ATOM      2  C   UNL     1       7.600  -1.586  23.091  0.00  0.00    +0.004 A 
ATOM      3  C   UNL     1       8.077  -0.314  22.770  0.00  0.00    +0.012 A 
ATOM      4  C   UNL     1       9.378   0.067  23.123  0.00  0.00    +0.055 A 
ATOM      5  C   UNL     1      10.216  -0.878  23.730  0.00  0.00    +0.012 A 
ATOM      6  C   UNL     1       9.741  -2.156  24.040  0.00  0.00    +0.004 A 
ENDROOT
BRANCH   4   7
ATOM      7  C   UNL     1       9.839   1.482  22.879  0.00  0.00    +0.417 C 
ATOM      8  F   UNL     1      10.317   1.655  21.614  0.00  0.00    -0.166 F 
ATOM      9  F   UNL     1      10.845   1.861  23.713  0.00  0.00    -0.166 F 
ATOM     10  F   UNL     1       8.854   2.411  23.032  0.00  0.00    -0.166 F 
ENDBRANCH   4   7
BRANCH   1  11
ATOM     11  C   UNL     1       7.811  -3.819  24.222  0.00  0.00    +0.059 C 
BRANCH  11  12
ATOM     12  C   UNL     1       6.931  -3.788  25.481  0.00  0.00    +0.145 C 
ATOM     13  C   UNL     1       7.360  -4.929  26.395  0.00  0.00    +0.251 C 
ATOM     14  O   UNL     1       8.378  -4.873  27.072  0.00  0.00    -0.272 OA
ATOM     15  N   UNL     1       6.550  -6.048  26.323  0.00  0.00    -0.166 NA
ATOM     16  C   UNL     1       5.452  -5.790  25.709  0.00  0.00    +0.121 C 
ATOM     17  S   UNL     1       5.176  -4.182  25.139  0.00  0.00    -0.089 S 
BRANCH  16  18
ATOM     18  S   UNL     1       4.244  -6.982  25.380  0.00  0.00    -0.119 S 
ATOM     19  H   UNL     1       5.089  -7.877  24.846  0.00  0.00    +0.109 HD
ENDBRANCH  16  18
ENDBRANCH  11  12
ENDBRANCH   1  11
TORSDOF 4
ENDMDL
MODEL 8
REMARK VINA RESULT:      -5.7      5.577      7.208
REMARK  Name = 
REMARK  4 active torsions:
REMARK  status: ('A' for Active; 'I' for Inactive)
REMARK    1  A    between atoms: C_2  and  C_3
REMARK    2  A    between atoms: C_3  and  C_4
REMARK    3  A    between atoms: C_7  and  C_10
REMARK    4  A    between atoms: C_15  and  S_16
REMARK                            x       y       z     vdW  Elec       q    Type
REMARK                         _______ _______ _______ _____ _____    ______ ____
ROOT
ATOM      1  C   UNL     1      10.347   2.422  23.373  0.00  0.00    -0.046 A 
ATOM      2  C   UNL     1      10.531   1.523  24.433  0.00  0.00    +0.004 A 
ATOM      3  C   UNL     1      10.304   0.157  24.257  0.00  0.00    +0.012 A 
ATOM      4  C   UNL     1       9.893  -0.340  23.013  0.00  0.00    +0.055 A 
ATOM      5  C   UNL     1       9.793   0.546  21.932  0.00  0.00    +0.012 A 
ATOM      6  C   UNL     1      10.033   1.912  22.107  0.00  0.00    +0.004 A 
ENDROOT
BRANCH   4   7
ATOM      7  C   UNL     1       9.533  -1.798  22.868  0.00  0.00    +0.417 C 
ATOM      8  F   UNL     1       8.401  -2.118  23.558  0.00  0.00    -0.166 F 
ATOM      9  F   UNL     1      10.502  -2.630  23.336  0.00  0.00    -0.166 F 
ATOM     10  F   UNL     1       9.300  -2.178  21.581  0.00  0.00    -0.166 F 
ENDBRANCH   4   7
BRANCH   1  11
ATOM     11  C   UNL     1      10.475   3.906  23.642  0.00  0.00    +0.059 C 
BRANCH  11  12
ATOM     12  C   UNL     1       9.170   4.713  23.700  0.00  0.00    +0.145 C 
ATOM     13  C   UNL     1       9.288   5.739  24.820  0.00  0.00    +0.251 C 
ATOM     14  O   UNL     1       9.947   6.763  24.697  0.00  0.00    -0.272 OA
ATOM     15  N   UNL     1       8.662   5.369  25.996  0.00  0.00    -0.166 NA
ATOM     16  C   UNL     1       7.881   4.367  25.813  0.00  0.00    +0.121 C 
ATOM     17  S   UNL     1       7.729   3.710  24.222  0.00  0.00    -0.089 S 
BRANCH  16  18
ATOM     18  S   UNL     1       6.998   3.604  27.089  0.00  0.00    -0.119 S 
ATOM     19  H   UNL     1       8.080   3.193  27.765  0.00  0.00    +0.109 HD
ENDBRANCH  16  18
ENDBRANCH  11  12
ENDBRANCH   1  11
TORSDOF 4
ENDMDL
MODEL 9
REMARK VINA RESULT:      -5.6      2.323      2.492
REMARK  Name = 
REMARK  4 active torsions:
REMARK  status: ('A' for Active; 'I' for Inactive)
REMARK    1  A    between atoms: C_2  and  C_3
REMARK    2  A    between atoms: C_3  and  C_4
REMARK    3  A    between atoms: C_7  and  C_10
REMARK    4  A    between atoms: C_15  and  S_16
REMARK                            x       y       z     vdW  Elec       q    Type
REMARK                         _______ _______ _______ _____ _____    ______ ____
ROOT
ATOM      1  C   UNL     1       8.134  -1.262  24.640  0.00  0.00    -0.046 A 
ATOM      2  C   UNL     1       7.866  -0.823  23.335  0.00  0.00    +0.004 A 
ATOM      3  C   UNL     1       8.551   0.267  22.796  0.00  0.00    +0.012 A 
ATOM      4  C   UNL     1       9.524   0.938  23.548  0.00  0.00    +0.055 A 
ATOM      5  C   UNL     1       9.853   0.445  24.818  0.00  0.00    +0.012 A 
ATOM      6  C   UNL     1       9.175  -0.655  25.352  0.00  0.00    +0.004 A 
ENDROOT
BRANCH   4   7
ATOM      7  C   UNL     1      10.168   2.187  23.000  0.00  0.00    +0.417 C 
ATOM      8  F   UNL     1       9.323   3.257  23.032  0.00  0.00    -0.166 F 
ATOM      9  F   UNL     1      10.554   2.057  21.702  0.00  0.00    -0.166 F 
ATOM     10  F   UNL     1      11.279   2.575  23.686  0.00  0.00    -0.166 F 
ENDBRANCH   4   7
BRANCH   1  11
ATOM     11  C   UNL     1       7.278  -2.361  25.233  0.00  0.00    +0.059 C 
BRANCH  11  12
ATOM     12  C   UNL     1       7.879  -3.775  25.245  0.00  0.00    +0.145 C 
ATOM     13  C   UNL     1       7.264  -4.569  24.099  0.00  0.00    +0.251 C 
ATOM     14  O   UNL     1       7.607  -4.404  22.936  0.00  0.00    -0.272 OA
ATOM     15  N   UNL     1       6.240  -5.416  24.482  0.00  0.00    -0.166 NA
ATOM     16  C   UNL     1       6.208  -5.560  25.758  0.00  0.00    +0.121 C 
ATOM     17  S   UNL     1       7.392  -4.748  26.717  0.00  0.00    -0.089 S 
BRANCH  16  18
ATOM     18  S   UNL     1       5.007  -6.496  26.578  0.00  0.00    -0.119 S 
ATOM     19  H   UNL     1       5.142  -7.583  25.805  0.00  0.00    +0.109 HD
ENDBRANCH  16  18
ENDBRANCH  11  12
ENDBRANCH   1  11
TORSDOF 4
ENDMDL
