MODEL 1
REMARK VINA RESULT:      -7.1      0.000      0.000
REMARK  Name = 
REMARK  4 active torsions:
REMARK  status: ('A' for Active; 'I' for Inactive)
REMARK    1  A    between atoms: O_1  and  N_2
REMARK    2  A    between atoms: C_3  and  C_4
REMARK    3  A    between atoms: C_11  and  C_14
REMARK    4  A    between atoms: C_17  and  O_18
REMARK                            x       y       z     vdW  Elec       q    Type
REMARK                         _______ _______ _______ _____ _____    ______ ____
ROOT
ATOM      1  C   UNL     1       5.936  -5.156  23.476  0.00  0.00    +0.004 A 
ATOM      2  C   UNL     1       5.692  -4.459  22.294  0.00  0.00    +0.011 A 
ATOM      3  C   UNL     1       6.332  -3.249  22.056  0.00  0.00    +0.010 A 
ATOM      4  C   UNL     1       7.205  -2.669  23.002  0.00  0.00    -0.010 A 
ATOM      5  C   UNL     1       7.416  -3.363  24.247  0.00  0.00    -0.010 A 
ATOM      6  C   UNL     1       8.200  -2.851  25.309  0.00  0.00    +0.009 A 
ATOM      7  C   UNL     1       8.523  -3.592  26.450  0.00  0.00    +0.001 A 
ATOM      8  C   UNL     1       8.019  -4.867  26.594  0.00  0.00    +0.001 A 
ATOM      9  C   UNL     1       7.160  -5.375  25.625  0.00  0.00    +0.009 A 
ATOM     10  C   UNL     1       6.821  -4.645  24.457  0.00  0.00    -0.009 A 
ENDROOT
BRANCH   4  11
ATOM     11  C   UNL     1       7.891  -1.393  22.622  0.00  0.00    -0.017 A 
ATOM     12  C   UNL     1       9.149  -1.394  21.987  0.00  0.00    +0.012 A 
ATOM     13  C   UNL     1       9.802  -0.204  21.644  0.00  0.00    +0.046 A 
ATOM     14  C   UNL     1       9.188   1.013  21.894  0.00  0.00    +0.117 A 
ATOM     15  C   UNL     1       7.960   1.061  22.537  0.00  0.00    +0.046 A 
ATOM     16  C   UNL     1       7.342  -0.131  22.930  0.00  0.00    +0.012 A 
BRANCH  14  17
ATOM     17  O   UNL     1       9.826   2.147  21.490  0.00  0.00    -0.507 OA
ATOM     18  H   UNL     1      10.170   2.006  20.592  0.00  0.00    +0.292 HD
ENDBRANCH  14  17
ENDBRANCH   4  11
BRANCH   1  20
ATOM     19  N   UNL     1       3.985  -6.474  24.079  0.00  0.00    -0.095 NA
ATOM     20  C   UNL     1       5.215  -6.433  23.672  0.00  0.00    +0.161 C 
BRANCH  19  21
ATOM     21  O   UNL     1       3.575  -7.811  24.138  0.00  0.00    -0.409 OA
ATOM     22  H   UNL     1       3.426  -7.942  25.093  0.00  0.00    +0.328 HD
ENDBRANCH  19  21
ENDBRANCH   1  20
TORSDOF 4
ENDMDL
MODEL 2
REMARK VINA RESULT:      -7.0      1.806      3.230
REMARK  Name = 
REMARK  4 active torsions:
REMARK  status: ('A' for Active; 'I' for Inactive)
REMARK    1  A    between atoms: O_1  and  N_2
REMARK    2  A    between atoms: C_3  and  C_4
REMARK    3  A    between atoms: C_11  and  C_14
REMARK    4  A    between atoms: C_17  and  O_18
REMARK                            x       y       z     vdW  Elec       q    Type
REMARK                         _______ _______ _______ _____ _____    ______ ____
ROOT
ATOM      1  C   UNL     1       7.034  -4.567  25.878  0.00  0.00    +0.004 A 
ATOM      2  C   UNL     1       7.767  -3.516  26.428  0.00  0.00    +0.011 A 
ATOM      3  C   UNL     1       8.211  -2.479  25.617  0.00  0.00    +0.010 A 
ATOM      4  C   UNL     1       7.978  -2.470  24.225  0.00  0.00    -0.010 A 
ATOM      5  C   UNL     1       7.267  -3.582  23.648  0.00  0.00    -0.010 A 
ATOM      6  C   UNL     1       7.040  -3.733  22.258  0.00  0.00    +0.009 A 
ATOM      7  C   UNL     1       6.224  -4.733  21.719  0.00  0.00    +0.001 A 
ATOM      8  C   UNL     1       5.643  -5.660  22.559  0.00  0.00    +0.001 A 
ATOM      9  C   UNL     1       5.920  -5.613  23.921  0.00  0.00    +0.009 A 
ATOM     10  C   UNL     1       6.742  -4.607  24.493  0.00  0.00    -0.009 A 
ENDROOT
BRANCH   4  11
ATOM     11  C   UNL     1       8.445  -1.276  23.452  0.00  0.00    -0.017 A 
ATOM     12  C   UNL     1       7.638  -0.128  23.310  0.00  0.00    +0.012 A 
ATOM     13  C   UNL     1       8.063   0.985  22.575  0.00  0.00    +0.046 A 
ATOM     14  C   UNL     1       9.324   0.987  22.000  0.00  0.00    +0.117 A 
ATOM     15  C   UNL     1      10.142  -0.129  22.095  0.00  0.00    +0.046 A 
ATOM     16  C   UNL     1       9.685  -1.260  22.781  0.00  0.00    +0.012 A 
BRANCH  14  17
ATOM     17  O   UNL     1       9.727   2.112  21.345  0.00  0.00    -0.507 OA
ATOM     18  H   UNL     1       8.939   2.585  21.028  0.00  0.00    +0.292 HD
ENDBRANCH  14  17
ENDBRANCH   4  11
BRANCH   1  20
ATOM     19  N   UNL     1       7.197  -5.871  27.923  0.00  0.00    -0.095 NA
ATOM     20  C   UNL     1       6.601  -5.644  26.795  0.00  0.00    +0.161 C 
BRANCH  19  21
ATOM     21  O   UNL     1       6.545  -6.925  28.573  0.00  0.00    -0.409 OA
ATOM     22  H   UNL     1       6.254  -7.482  27.827  0.00  0.00    +0.328 HD
ENDBRANCH  19  21
ENDBRANCH   1  20
TORSDOF 4
ENDMDL
MODEL 3
REMARK VINA RESULT:      -6.3      3.084      6.955
REMARK  Name = 
REMARK  4 active torsions:
REMARK  status: ('A' for Active; 'I' for Inactive)
REMARK    1  A    between atoms: O_1  and  N_2
REMARK    2  A    between atoms: C_3  and  C_4
REMARK    3  A    between atoms: C_11  and  C_14
REMARK    4  A    between atoms: C_17  and  O_18
REMARK                            x       y       z     vdW  Elec       q    Type
REMARK                         _______ _______ _______ _____ _____    ______ ____
ROOT
ATOM      1  C   UNL     1       9.256   0.965  22.530  0.00  0.00    +0.004 A 
ATOM      2  C   UNL     1       9.852  -0.107  21.868  0.00  0.00    +0.011 A 
ATOM      3  C   UNL     1       9.268  -1.367  21.918  0.00  0.00    +0.010 A 
ATOM      4  C   UNL     1       8.094  -1.614  22.662  0.00  0.00    -0.010 A 
ATOM      5  C   UNL     1       7.508  -0.518  23.390  0.00  0.00    -0.010 A 
ATOM      6  C   UNL     1       6.380  -0.652  24.237  0.00  0.00    +0.009 A 
ATOM      7  C   UNL     1       5.727   0.438  24.821  0.00  0.00    +0.001 A 
ATOM      8  C   UNL     1       6.218   1.710  24.619  0.00  0.00    +0.001 A 
ATOM      9  C   UNL     1       7.383   1.882  23.878  0.00  0.00    +0.009 A 
ATOM     10  C   UNL     1       8.063   0.793  23.273  0.00  0.00    -0.009 A 
ENDROOT
BRANCH   4  11
ATOM     11  C   UNL     1       7.512  -2.992  22.601  0.00  0.00    -0.017 A 
ATOM     12  C   UNL     1       6.387  -3.282  21.802  0.00  0.00    +0.012 A 
ATOM     13  C   UNL     1       5.829  -4.566  21.754  0.00  0.00    +0.046 A 
ATOM     14  C   UNL     1       6.413  -5.596  22.473  0.00  0.00    +0.117 A 
ATOM     15  C   UNL     1       7.507  -5.351  23.289  0.00  0.00    +0.046 A 
ATOM     16  C   UNL     1       8.021  -4.053  23.378  0.00  0.00    +0.012 A 
BRANCH  14  17
ATOM     17  O   UNL     1       5.880  -6.844  22.352  0.00  0.00    -0.507 OA
ATOM     18  H   UNL     1       6.593  -7.496  22.449  0.00  0.00    +0.292 HD
ENDBRANCH  14  17
ENDBRANCH   4  11
BRANCH   1  20
ATOM     19  N   UNL     1      10.746   2.694  23.365  0.00  0.00    -0.095 NA
ATOM     20  C   UNL     1       9.934   2.277  22.445  0.00  0.00    +0.161 C 
BRANCH  19  21
ATOM     21  O   UNL     1      11.247   3.946  22.989  0.00  0.00    -0.409 OA
ATOM     22  H   UNL     1      11.431   3.821  22.039  0.00  0.00    +0.328 HD
ENDBRANCH  19  21
ENDBRANCH   1  20
TORSDOF 4
ENDMDL
MODEL 4
REMARK VINA RESULT:      -6.2      4.089      7.693
REMARK  Name = 
REMARK  4 active torsions:
REMARK  status: ('A' for Active; 'I' for Inactive)
REMARK    1  A    between atoms: O_1  and  N_2
REMARK    2  A    between atoms: C_3  and  C_4
REMARK    3  A    between atoms: C_11  and  C_14
REMARK    4  A    between atoms: C_17  and  O_18
REMARK                            x       y       z     vdW  Elec       q    Type
REMARK                         _______ _______ _______ _____ _____    ______ ____
ROOT
ATOM      1  C   UNL     1       9.897   2.211  23.900  0.00  0.00    +0.004 A 
ATOM      2  C   UNL     1      10.913   1.305  24.202  0.00  0.00    +0.011 A 
ATOM      3  C   UNL     1      10.596   0.015  24.611  0.00  0.00    +0.010 A 
ATOM      4  C   UNL     1       9.259  -0.407  24.773  0.00  0.00    -0.010 A 
ATOM      5  C   UNL     1       8.210   0.544  24.512  0.00  0.00    -0.010 A 
ATOM      6  C   UNL     1       6.835   0.272  24.715  0.00  0.00    +0.009 A 
ATOM      7  C   UNL     1       5.814   1.143  24.320  0.00  0.00    +0.001 A 
ATOM      8  C   UNL     1       6.142   2.356  23.751  0.00  0.00    +0.001 A 
ATOM      9  C   UNL     1       7.481   2.712  23.626  0.00  0.00    +0.009 A 
ATOM     10  C   UNL     1       8.534   1.844  24.016  0.00  0.00    -0.009 A 
ENDROOT
BRANCH   4  11
ATOM     11  C   UNL     1       9.025  -1.836  25.157  0.00  0.00    -0.017 A 
ATOM     12  C   UNL     1       9.363  -2.896  24.292  0.00  0.00    +0.012 A 
ATOM     13  C   UNL     1       9.131  -4.233  24.640  0.00  0.00    +0.046 A 
ATOM     14  C   UNL     1       8.595  -4.536  25.881  0.00  0.00    +0.117 A 
ATOM     15  C   UNL     1       8.227  -3.523  26.755  0.00  0.00    +0.046 A 
ATOM     16  C   UNL     1       8.407  -2.189  26.374  0.00  0.00    +0.012 A 
BRANCH  14  17
ATOM     17  O   UNL     1       8.442  -5.849  26.209  0.00  0.00    -0.507 OA
ATOM     18  H   UNL     1       7.965  -5.904  27.054  0.00  0.00    +0.292 HD
ENDBRANCH  14  17
ENDBRANCH   4  11
BRANCH   1  20
ATOM     19  N   UNL     1      11.546   3.930  23.420  0.00  0.00    -0.095 NA
ATOM     20  C   UNL     1      10.302   3.570  23.482  0.00  0.00    +0.161 C 
BRANCH  19  21
ATOM     21  O   UNL     1      11.609   5.253  22.967  0.00  0.00    -0.409 OA
ATOM     22  H   UNL     1      11.283   5.754  23.738  0.00  0.00    +0.328 HD
ENDBRANCH  19  21
ENDBRANCH   1  20
TORSDOF 4
ENDMDL
MODEL 5
REMARK VINA RESULT:      -6.2      2.584      3.188
REMARK  Name = 
REMARK  4 active torsions:
REMARK  status: ('A' for Active; 'I' for Inactive)
REMARK    1  A    between atoms: O_1  and  N_2
REMARK    2  A    between atoms: C_3  and  C_4
REMARK    3  A    between atoms: C_11  and  C_14
REMARK    4  A    between atoms: C_17  and  O_18
REMARK                            x       y       z     vdW  Elec       q    Type
REMARK                         _______ _______ _______ _____ _____    ______ ____
ROOT
ATOM      1  C   UNL     1       7.362  -4.174  26.024  0.00  0.00    +0.004 A 
ATOM      2  C   UNL     1       8.522  -4.281  25.258  0.00  0.00    +0.011 A 
ATOM      3  C   UNL     1       8.974  -3.191  24.524  0.00  0.00    +0.010 A 
ATOM      4  C   UNL     1       8.266  -1.970  24.491  0.00  0.00    -0.010 A 
ATOM      5  C   UNL     1       7.039  -1.876  25.239  0.00  0.00    -0.010 A 
ATOM      6  C   UNL     1       6.196  -0.738  25.225  0.00  0.00    +0.009 A 
ATOM      7  C   UNL     1       5.088  -0.594  26.066  0.00  0.00    +0.001 A 
ATOM      8  C   UNL     1       4.750  -1.621  26.922  0.00  0.00    +0.001 A 
ATOM      9  C   UNL     1       5.488  -2.800  26.899  0.00  0.00    +0.009 A 
ATOM     10  C   UNL     1       6.618  -2.969  26.057  0.00  0.00    -0.009 A 
ENDROOT
BRANCH   4  11
ATOM     11  C   UNL     1       8.871  -0.839  23.718  0.00  0.00    -0.017 A 
ATOM     12  C   UNL     1       8.674  -0.709  22.328  0.00  0.00    +0.012 A 
ATOM     13  C   UNL     1       9.250   0.338  21.598  0.00  0.00    +0.046 A 
ATOM     14  C   UNL     1      10.002   1.300  22.253  0.00  0.00    +0.117 A 
ATOM     15  C   UNL     1      10.240   1.198  23.615  0.00  0.00    +0.046 A 
ATOM     16  C   UNL     1       9.710   0.116  24.327  0.00  0.00    +0.012 A 
BRANCH  14  17
ATOM     17  O   UNL     1      10.495   2.336  21.519  0.00  0.00    -0.507 OA
ATOM     18  H   UNL     1       9.808   3.020  21.449  0.00  0.00    +0.292 HD
ENDBRANCH  14  17
ENDBRANCH   4  11
BRANCH   1  20
ATOM     19  N   UNL     1       7.313  -5.599  27.991  0.00  0.00    -0.095 NA
ATOM     20  C   UNL     1       6.931  -5.373  26.774  0.00  0.00    +0.161 C 
BRANCH  19  21
ATOM     21  O   UNL     1       6.721  -6.787  28.436  0.00  0.00    -0.409 OA
ATOM     22  H   UNL     1       7.383  -7.457  28.185  0.00  0.00    +0.328 HD
ENDBRANCH  19  21
ENDBRANCH   1  20
TORSDOF 4
ENDMDL
MODEL 6
REMARK VINA RESULT:      -6.1      2.316      3.796
REMARK  Name = 
REMARK  4 active torsions:
REMARK  status: ('A' for Active; 'I' for Inactive)
REMARK    1  A    between atoms: O_1  and  N_2
REMARK    2  A    between atoms: C_3  and  C_4
REMARK    3  A    between atoms: C_11  and  C_14
REMARK    4  A    between atoms: C_17  and  O_18
REMARK                            x       y       z     vdW  Elec       q    Type
REMARK                         _______ _______ _______ _____ _____    ______ ____
ROOT
ATOM      1  C   UNL     1       8.281  -3.355  26.031  0.00  0.00    +0.004 A 
ATOM      2  C   UNL     1       8.650  -2.226  26.760  0.00  0.00    +0.011 A 
ATOM      3  C   UNL     1       8.722  -0.987  26.133  0.00  0.00    +0.010 A 
ATOM      4  C   UNL     1       8.470  -0.835  24.752  0.00  0.00    -0.010 A 
ATOM      5  C   UNL     1       8.141  -2.011  23.988  0.00  0.00    -0.010 A 
ATOM      6  C   UNL     1       7.946  -2.006  22.585  0.00  0.00    +0.009 A 
ATOM      7  C   UNL     1       7.481  -3.117  21.873  0.00  0.00    +0.001 A 
ATOM      8  C   UNL     1       7.245  -4.300  22.541  0.00  0.00    +0.001 A 
ATOM      9  C   UNL     1       7.520  -4.382  23.902  0.00  0.00    +0.009 A 
ATOM     10  C   UNL     1       7.989  -3.269  24.648  0.00  0.00    -0.009 A 
ENDROOT
BRANCH   4  11
ATOM     11  C   UNL     1       8.514   0.552  24.189  0.00  0.00    -0.017 A 
ATOM     12  C   UNL     1       7.341   1.317  24.022  0.00  0.00    +0.012 A 
ATOM     13  C   UNL     1       7.375   2.608  23.480  0.00  0.00    +0.046 A 
ATOM     14  C   UNL     1       8.590   3.175  23.132  0.00  0.00    +0.117 A 
ATOM     15  C   UNL     1       9.766   2.450  23.258  0.00  0.00    +0.046 A 
ATOM     16  C   UNL     1       9.716   1.138  23.745  0.00  0.00    +0.012 A 
BRANCH  14  17
ATOM     17  O   UNL     1       8.590   4.455  22.667  0.00  0.00    -0.507 OA
ATOM     18  H   UNL     1       7.800   4.908  23.007  0.00  0.00    +0.292 HD
ENDBRANCH  14  17
ENDBRANCH   4  11
BRANCH   1  20
ATOM     19  N   UNL     1       7.235  -4.973  27.512  0.00  0.00    -0.095 NA
ATOM     20  C   UNL     1       8.234  -4.644  26.755  0.00  0.00    +0.161 C 
BRANCH  19  21
ATOM     21  O   UNL     1       7.466  -6.252  28.032  0.00  0.00    -0.409 OA
ATOM     22  H   UNL     1       6.613  -6.698  27.875  0.00  0.00    +0.328 HD
ENDBRANCH  19  21
ENDBRANCH   1  20
TORSDOF 4
ENDMDL
MODEL 7
REMARK VINA RESULT:      -6.0      2.079      2.666
REMARK  Name = 
REMARK  4 active torsions:
REMARK  status: ('A' for Active; 'I' for Inactive)
REMARK    1  A    between atoms: O_1  and  N_2
REMARK    2  A    between atoms: C_3  and  C_4
REMARK    3  A    between atoms: C_11  and  C_14
REMARK    4  A    between atoms: C_17  and  O_18
REMARK                            x       y       z     vdW  Elec       q    Type
REMARK                         _______ _______ _______ _____ _____    ______ ____
ROOT
ATOM      1  C   UNL     1       6.375  -3.590  23.323  0.00  0.00    +0.004 A 
ATOM      2  C   UNL     1       7.433  -3.437  22.428  0.00  0.00    +0.011 A 
ATOM      3  C   UNL     1       8.156  -2.250  22.404  0.00  0.00    +0.010 A 
ATOM      4  C   UNL     1       7.827  -1.160  23.238  0.00  0.00    -0.010 A 
ATOM      5  C   UNL     1       6.701  -1.299  24.125  0.00  0.00    -0.010 A 
ATOM      6  C   UNL     1       6.219  -0.255  24.952  0.00  0.00    +0.009 A 
ATOM      7  C   UNL     1       5.223  -0.439  25.917  0.00  0.00    +0.001 A 
ATOM      8  C   UNL     1       4.630  -1.677  26.051  0.00  0.00    +0.001 A 
ATOM      9  C   UNL     1       4.999  -2.707  25.192  0.00  0.00    +0.009 A 
ATOM     10  C   UNL     1       6.009  -2.546  24.207  0.00  0.00    -0.009 A 
ENDROOT
BRANCH   4  11
ATOM     11  C   UNL     1       8.707   0.050  23.177  0.00  0.00    -0.017 A 
ATOM     12  C   UNL     1       8.726   0.891  22.046  0.00  0.00    +0.012 A 
ATOM     13  C   UNL     1       9.559   2.014  21.978  0.00  0.00    +0.046 A 
ATOM     14  C   UNL     1      10.361   2.342  23.059  0.00  0.00    +0.117 A 
ATOM     15  C   UNL     1      10.390   1.530  24.184  0.00  0.00    +0.046 A 
ATOM     16  C   UNL     1       9.599   0.376  24.219  0.00  0.00    +0.012 A 
BRANCH  14  17
ATOM     17  O   UNL     1      11.111   3.476  22.980  0.00  0.00    -0.507 OA
ATOM     18  H   UNL     1      11.932   3.272  22.502  0.00  0.00    +0.292 HD
ENDBRANCH  14  17
ENDBRANCH   4  11
BRANCH   1  20
ATOM     19  N   UNL     1       4.797  -5.161  22.350  0.00  0.00    -0.095 NA
ATOM     20  C   UNL     1       5.640  -4.873  23.291  0.00  0.00    +0.161 C 
BRANCH  19  21
ATOM     21  O   UNL     1       4.290  -6.446  22.577  0.00  0.00    -0.409 OA
ATOM     22  H   UNL     1       3.403  -6.260  22.939  0.00  0.00    +0.328 HD
ENDBRANCH  19  21
ENDBRANCH   1  20
TORSDOF 4
ENDMDL
MODEL 8
REMARK VINA RESULT:      -6.0      2.677      6.735
REMARK  Name = 
REMARK  4 active torsions:
REMARK  status: ('A' for Active; 'I' for Inactive)
REMARK    1  A    between atoms: O_1  and  N_2
REMARK    2  A    between atoms: C_3  and  C_4
REMARK    3  A    between atoms: C_11  and  C_14
REMARK    4  A    between atoms: C_17  and  O_18
REMARK                            x       y       z     vdW  Elec       q    Type
REMARK                         _______ _______ _______ _____ _____    ______ ____
ROOT
ATOM      1  C   UNL     1       8.195  -0.493  23.058  0.00  0.00    +0.004 A 
ATOM      2  C   UNL     1       8.530  -1.691  22.428  0.00  0.00    +0.011 A 
ATOM      3  C   UNL     1       7.798  -2.843  22.690  0.00  0.00    +0.010 A 
ATOM      4  C   UNL     1       6.733  -2.855  23.617  0.00  0.00    -0.010 A 
ATOM      5  C   UNL     1       6.421  -1.630  24.308  0.00  0.00    -0.010 A 
ATOM      6  C   UNL     1       5.434  -1.528  25.319  0.00  0.00    +0.009 A 
ATOM      7  C   UNL     1       5.033  -0.311  25.879  0.00  0.00    +0.001 A 
ATOM      8  C   UNL     1       5.652   0.855  25.480  0.00  0.00    +0.001 A 
ATOM      9  C   UNL     1       6.697   0.793  24.565  0.00  0.00    +0.009 A 
ATOM     10  C   UNL     1       7.121  -0.429  23.980  0.00  0.00    -0.009 A 
ENDROOT
BRANCH   4  11
ATOM     11  C   UNL     1       5.970  -4.132  23.780  0.00  0.00    -0.017 A 
ATOM     12  C   UNL     1       4.986  -4.526  22.851  0.00  0.00    +0.012 A 
ATOM     13  C   UNL     1       4.258  -5.712  23.008  0.00  0.00    +0.046 A 
ATOM     14  C   UNL     1       4.531  -6.550  24.077  0.00  0.00    +0.117 A 
ATOM     15  C   UNL     1       5.476  -6.191  25.027  0.00  0.00    +0.046 A 
ATOM     16  C   UNL     1       6.156  -4.975  24.896  0.00  0.00    +0.012 A 
BRANCH  14  17
ATOM     17  O   UNL     1       3.846  -7.724  24.162  0.00  0.00    -0.507 OA
ATOM     18  H   UNL     1       4.462  -8.423  24.438  0.00  0.00    +0.292 HD
ENDBRANCH  14  17
ENDBRANCH   4  11
BRANCH   1  20
ATOM     19  N   UNL     1       9.407   0.963  21.536  0.00  0.00    -0.095 NA
ATOM     20  C   UNL     1       9.020   0.693  22.744  0.00  0.00    +0.161 C 
BRANCH  19  21
ATOM     21  O   UNL     1      10.141   2.154  21.555  0.00  0.00    -0.409 OA
ATOM     22  H   UNL     1       9.962   2.496  22.451  0.00  0.00    +0.328 HD
ENDBRANCH  19  21
ENDBRANCH   1  20
TORSDOF 4
ENDMDL
MODEL 9
REMARK VINA RESULT:      -5.9      3.225      6.804
REMARK  Name = 
REMARK  4 active torsions:
REMARK  status: ('A' for Active; 'I' for Inactive)
REMARK    1  A    between atoms: O_1  and  N_2
REMARK    2  A    between atoms: C_3  and  C_4
REMARK    3  A    between atoms: C_11  and  C_14
REMARK    4  A    between atoms: C_17  and  O_18
REMARK                            x       y       z     vdW  Elec       q    Type
REMARK                         _______ _______ _______ _____ _____    ______ ____
ROOT
ATOM      1  C   UNL     1       6.561   1.416  23.393  0.00  0.00    +0.004 A 
ATOM      2  C   UNL     1       5.792   0.996  24.477  0.00  0.00    +0.011 A 
ATOM      3  C   UNL     1       6.035  -0.240  25.065  0.00  0.00    +0.010 A 
ATOM      4  C   UNL     1       7.023  -1.119  24.571  0.00  0.00    -0.010 A 
ATOM      5  C   UNL     1       7.782  -0.708  23.418  0.00  0.00    -0.010 A 
ATOM      6  C   UNL     1       8.743  -1.528  22.778  0.00  0.00    +0.009 A 
ATOM      7  C   UNL     1       9.581  -1.071  21.755  0.00  0.00    +0.001 A 
ATOM      8  C   UNL     1       9.447   0.223  21.296  0.00  0.00    +0.001 A 
ATOM      9  C   UNL     1       8.448   1.034  21.824  0.00  0.00    +0.009 A 
ATOM     10  C   UNL     1       7.587   0.595  22.864  0.00  0.00    -0.009 A 
ENDROOT
BRANCH   4  11
ATOM     11  C   UNL     1       7.246  -2.399  25.314  0.00  0.00    -0.017 A 
ATOM     12  C   UNL     1       8.440  -2.640  26.024  0.00  0.00    +0.012 A 
ATOM     13  C   UNL     1       8.660  -3.843  26.707  0.00  0.00    +0.046 A 
ATOM     14  C   UNL     1       7.670  -4.812  26.728  0.00  0.00    +0.117 A 
ATOM     15  C   UNL     1       6.489  -4.626  26.025  0.00  0.00    +0.046 A 
ATOM     16  C   UNL     1       6.302  -3.446  25.295  0.00  0.00    +0.012 A 
BRANCH  14  17
ATOM     17  O   UNL     1       7.896  -5.942  27.455  0.00  0.00    -0.507 OA
ATOM     18  H   UNL     1       8.185  -6.646  26.850  0.00  0.00    +0.292 HD
ENDBRANCH  14  17
ENDBRANCH   4  11
BRANCH   1  20
ATOM     19  N   UNL     1       5.034   3.195  22.755  0.00  0.00    -0.095 NA
ATOM     20  C   UNL     1       6.245   2.736  22.807  0.00  0.00    +0.161 C 
BRANCH  19  21
ATOM     21  O   UNL     1       5.059   4.469  22.178  0.00  0.00    -0.409 OA
ATOM     22  H   UNL     1       4.858   5.047  22.938  0.00  0.00    +0.328 HD
ENDBRANCH  19  21
ENDBRANCH   1  20
TORSDOF 4
ENDMDL
