MODEL 1
REMARK VINA RESULT:      -6.4      0.000      0.000
REMARK  Name = 
REMARK  5 active torsions:
REMARK  status: ('A' for Active; 'I' for Inactive)
REMARK    1  A    between atoms: C_1  and  C_2
REMARK    2  A    between atoms: C_2  and  O_3
REMARK    3  A    between atoms: O_3  and  C_4
REMARK    4  A    between atoms: C_4  and  C_6
REMARK    5  A    between atoms: C_11  and  O_12
REMARK                            x       y       z     vdW  Elec       q    Type
REMARK                         _______ _______ _______ _____ _____    ______ ____
ROOT
ATOM      1  C   UNL     1       8.656  -3.439  23.931  0.00  0.00    +0.144 A 
ATOM      2  C   UNL     1       7.974  -3.258  22.631  0.00  0.00    +0.351 A 
ATOM      3  O   UNL     1       7.250  -4.108  22.125  0.00  0.00    -0.244 OA
ATOM      4  O   UNL     1       8.160  -2.030  21.997  0.00  0.00    -0.421 OA
ATOM      5  C   UNL     1       8.958  -1.017  22.554  0.00  0.00    +0.143 A 
ATOM      6  C   UNL     1       9.571  -1.194  23.791  0.00  0.00    +0.019 A 
ATOM      7  C   UNL     1      10.376  -0.172  24.299  0.00  0.00    +0.015 A 
ATOM      8  C   UNL     1      10.564   1.004  23.563  0.00  0.00    +0.046 A 
ATOM      9  C   UNL     1       9.934   1.153  22.329  0.00  0.00    +0.120 A 
ATOM     10  C   UNL     1       9.122   0.151  21.815  0.00  0.00    +0.092 A 
ATOM     11  C   UNL     1       9.382  -2.455  24.489  0.00  0.00    +0.033 A 
ENDROOT
BRANCH   1  12
ATOM     12  C   UNL     1       8.607  -4.713  24.680  0.00  0.00    +0.346 C 
ATOM     13  O   UNL     1       9.386  -5.641  24.496  0.00  0.00    -0.245 OA
BRANCH  12  14
ATOM     14  O   UNL     1       7.526  -4.746  25.493  0.00  0.00    -0.461 OA
BRANCH  14  16
ATOM     15  C   UNL     1       6.430  -5.221  27.587  0.00  0.00    +0.048 C 
ATOM     16  C   UNL     1       7.749  -5.192  26.838  0.00  0.00    +0.229 C 
ENDBRANCH  14  16
ENDBRANCH  12  14
ENDBRANCH   1  12
BRANCH   9  17
ATOM     17  O   UNL     1      10.100   2.277  21.576  0.00  0.00    -0.507 OA
ATOM     18  H   UNL     1      10.200   3.041  22.167  0.00  0.00    +0.292 HD
ENDBRANCH   9  17
TORSDOF 4
ENDMDL
MODEL 2
REMARK VINA RESULT:      -6.1      1.633      2.739
REMARK  Name = 
REMARK  5 active torsions:
REMARK  status: ('A' for Active; 'I' for Inactive)
REMARK    1  A    between atoms: C_1  and  C_2
REMARK    2  A    between atoms: C_2  and  O_3
REMARK    3  A    between atoms: O_3  and  C_4
REMARK    4  A    between atoms: C_4  and  C_6
REMARK    5  A    between atoms: C_11  and  O_12
REMARK                            x       y       z     vdW  Elec       q    Type
REMARK                         _______ _______ _______ _____ _____    ______ ____
ROOT
ATOM      1  C   UNL     1       7.917  -2.913  24.001  0.00  0.00    +0.144 A 
ATOM      2  C   UNL     1       9.394  -3.002  24.009  0.00  0.00    +0.351 A 
ATOM      3  O   UNL     1      10.008  -3.979  24.424  0.00  0.00    -0.244 OA
ATOM      4  O   UNL     1      10.085  -1.915  23.478  0.00  0.00    -0.421 OA
ATOM      5  C   UNL     1       9.421  -0.786  22.967  0.00  0.00    +0.143 A 
ATOM      6  C   UNL     1       8.031  -0.730  22.943  0.00  0.00    +0.019 A 
ATOM      7  C   UNL     1       7.409   0.419  22.450  0.00  0.00    +0.015 A 
ATOM      8  C   UNL     1       8.182   1.495  21.998  0.00  0.00    +0.046 A 
ATOM      9  C   UNL     1       9.572   1.407  22.032  0.00  0.00    +0.120 A 
ATOM     10  C   UNL     1      10.206   0.268  22.510  0.00  0.00    +0.092 A 
ATOM     11  C   UNL     1       7.278  -1.857  23.471  0.00  0.00    +0.033 A 
ENDROOT
BRANCH   1  12
ATOM     12  C   UNL     1       7.058  -3.959  24.597  0.00  0.00    +0.346 C 
ATOM     13  O   UNL     1       7.020  -4.207  25.797  0.00  0.00    -0.245 OA
BRANCH  12  14
ATOM     14  O   UNL     1       6.425  -4.662  23.630  0.00  0.00    -0.461 OA
BRANCH  14  16
ATOM     15  C   UNL     1       6.711  -5.614  21.434  0.00  0.00    +0.048 C 
ATOM     16  C   UNL     1       7.231  -5.562  22.858  0.00  0.00    +0.229 C 
ENDBRANCH  14  16
ENDBRANCH  12  14
ENDBRANCH   1  12
BRANCH   9  17
ATOM     17  O   UNL     1      10.360   2.437  21.612  0.00  0.00    -0.507 OA
ATOM     18  H   UNL     1      11.152   2.075  21.181  0.00  0.00    +0.292 HD
ENDBRANCH   9  17
TORSDOF 4
ENDMDL
MODEL 3
REMARK VINA RESULT:      -6.0      1.874      2.925
REMARK  Name = 
REMARK  5 active torsions:
REMARK  status: ('A' for Active; 'I' for Inactive)
REMARK    1  A    between atoms: C_1  and  C_2
REMARK    2  A    between atoms: C_2  and  O_3
REMARK    3  A    between atoms: O_3  and  C_4
REMARK    4  A    between atoms: C_4  and  C_6
REMARK    5  A    between atoms: C_11  and  O_12
REMARK                            x       y       z     vdW  Elec       q    Type
REMARK                         _______ _______ _______ _____ _____    ______ ____
ROOT
ATOM      1  C   UNL     1       9.015  -2.287  24.341  0.00  0.00    +0.144 A 
ATOM      2  C   UNL     1       8.848  -1.531  25.601  0.00  0.00    +0.351 A 
ATOM      3  O   UNL     1       8.568  -2.059  26.672  0.00  0.00    -0.244 OA
ATOM      4  O   UNL     1       9.065  -0.156  25.535  0.00  0.00    -0.421 OA
ATOM      5  C   UNL     1       9.414   0.486  24.334  0.00  0.00    +0.143 A 
ATOM      6  C   UNL     1       9.592  -0.243  23.163  0.00  0.00    +0.019 A 
ATOM      7  C   UNL     1       9.915   0.436  21.986  0.00  0.00    +0.015 A 
ATOM      8  C   UNL     1      10.047   1.829  21.995  0.00  0.00    +0.046 A 
ATOM      9  C   UNL     1       9.866   2.532  23.184  0.00  0.00    +0.120 A 
ATOM     10  C   UNL     1       9.555   1.871  24.365  0.00  0.00    +0.092 A 
ATOM     11  C   UNL     1       9.394  -1.683  23.202  0.00  0.00    +0.033 A 
ENDROOT
BRANCH   1  12
ATOM     12  C   UNL     1       8.747  -3.739  24.247  0.00  0.00    +0.346 C 
ATOM     13  O   UNL     1       9.577  -4.602  24.509  0.00  0.00    -0.245 OA
BRANCH  12  14
ATOM     14  O   UNL     1       7.519  -3.964  23.727  0.00  0.00    -0.461 OA
BRANCH  14  16
ATOM     15  C   UNL     1       7.164  -5.453  21.864  0.00  0.00    +0.048 C 
ATOM     16  C   UNL     1       7.210  -5.319  23.374  0.00  0.00    +0.229 C 
ENDBRANCH  14  16
ENDBRANCH  12  14
ENDBRANCH   1  12
BRANCH   9  17
ATOM     17  O   UNL     1       9.973   3.890  23.232  0.00  0.00    -0.507 OA
ATOM     18  H   UNL     1      10.817   4.126  23.651  0.00  0.00    +0.292 HD
ENDBRANCH   9  17
TORSDOF 4
ENDMDL
MODEL 4
REMARK VINA RESULT:      -5.9      2.049      3.107
REMARK  Name = 
REMARK  5 active torsions:
REMARK  status: ('A' for Active; 'I' for Inactive)
REMARK    1  A    between atoms: C_1  and  C_2
REMARK    2  A    between atoms: C_2  and  O_3
REMARK    3  A    between atoms: O_3  and  C_4
REMARK    4  A    between atoms: C_4  and  C_6
REMARK    5  A    between atoms: C_11  and  O_12
REMARK                            x       y       z     vdW  Elec       q    Type
REMARK                         _______ _______ _______ _____ _____    ______ ____
ROOT
ATOM      1  C   UNL     1       8.207  -2.367  23.223  0.00  0.00    +0.144 A 
ATOM      2  C   UNL     1       9.586  -2.386  23.756  0.00  0.00    +0.351 A 
ATOM      3  O   UNL     1      10.135  -3.402  24.168  0.00  0.00    -0.244 OA
ATOM      4  O   UNL     1      10.277  -1.176  23.738  0.00  0.00    -0.421 OA
ATOM      5  C   UNL     1       9.696   0.007  23.249  0.00  0.00    +0.143 A 
ATOM      6  C   UNL     1       8.406   0.002  22.727  0.00  0.00    +0.019 A 
ATOM      7  C   UNL     1       7.856   1.203  22.273  0.00  0.00    +0.015 A 
ATOM      8  C   UNL     1       8.596   2.388  22.355  0.00  0.00    +0.046 A 
ATOM      9  C   UNL     1       9.886   2.360  22.881  0.00  0.00    +0.120 A 
ATOM     10  C   UNL     1      10.452   1.173  23.326  0.00  0.00    +0.092 A 
ATOM     11  C   UNL     1       7.665  -1.249  22.712  0.00  0.00    +0.033 A 
ENDROOT
BRANCH   1  12
ATOM     12  C   UNL     1       7.333  -3.560  23.246  0.00  0.00    +0.346 C 
ATOM     13  O   UNL     1       6.718  -3.934  24.237  0.00  0.00    -0.245 OA
BRANCH  12  14
ATOM     14  O   UNL     1       7.406  -4.226  22.070  0.00  0.00    -0.461 OA
BRANCH  14  16
ATOM     15  C   UNL     1       6.060  -5.983  21.115  0.00  0.00    +0.048 C 
ATOM     16  C   UNL     1       7.147  -5.635  22.114  0.00  0.00    +0.229 C 
ENDBRANCH  14  16
ENDBRANCH  12  14
ENDBRANCH   1  12
BRANCH   9  17
ATOM     17  O   UNL     1      10.635   3.494  22.989  0.00  0.00    -0.507 OA
ATOM     18  H   UNL     1      10.174   4.123  23.568  0.00  0.00    +0.292 HD
ENDBRANCH   9  17
TORSDOF 4
ENDMDL
MODEL 5
REMARK VINA RESULT:      -5.7      1.409      2.344
REMARK  Name = 
REMARK  5 active torsions:
REMARK  status: ('A' for Active; 'I' for Inactive)
REMARK    1  A    between atoms: C_1  and  C_2
REMARK    2  A    between atoms: C_2  and  O_3
REMARK    3  A    between atoms: O_3  and  C_4
REMARK    4  A    between atoms: C_4  and  C_6
REMARK    5  A    between atoms: C_11  and  O_12
REMARK                            x       y       z     vdW  Elec       q    Type
REMARK                         _______ _______ _______ _____ _____    ______ ____
ROOT
ATOM      1  C   UNL     1       8.267  -2.602  23.127  0.00  0.00    +0.144 A 
ATOM      2  C   UNL     1       9.588  -2.609  23.793  0.00  0.00    +0.351 A 
ATOM      3  O   UNL     1      10.081  -3.609  24.302  0.00  0.00    -0.244 OA
ATOM      4  O   UNL     1      10.293  -1.406  23.788  0.00  0.00    -0.421 OA
ATOM      5  C   UNL     1       9.777  -0.243  23.191  0.00  0.00    +0.143 A 
ATOM      6  C   UNL     1       8.544  -0.260  22.546  0.00  0.00    +0.019 A 
ATOM      7  C   UNL     1       8.057   0.923  21.987  0.00  0.00    +0.015 A 
ATOM      8  C   UNL     1       8.801   2.104  22.087  0.00  0.00    +0.046 A 
ATOM      9  C   UNL     1      10.034   2.089  22.737  0.00  0.00    +0.120 A 
ATOM     10  C   UNL     1      10.537   0.919  23.288  0.00  0.00    +0.092 A 
ATOM     11  C   UNL     1       7.792  -1.504  22.516  0.00  0.00    +0.033 A 
ENDROOT
BRANCH   1  12
ATOM     12  C   UNL     1       7.379  -3.785  23.119  0.00  0.00    +0.346 C 
ATOM     13  O   UNL     1       7.203  -4.497  22.137  0.00  0.00    -0.245 OA
BRANCH  12  14
ATOM     14  O   UNL     1       6.715  -3.890  24.293  0.00  0.00    -0.461 OA
BRANCH  14  16
ATOM     15  C   UNL     1       7.509  -4.989  26.286  0.00  0.00    +0.048 C 
ATOM     16  C   UNL     1       6.790  -5.156  24.961  0.00  0.00    +0.229 C 
ENDBRANCH  14  16
ENDBRANCH  12  14
ENDBRANCH   1  12
BRANCH   9  17
ATOM     17  O   UNL     1      10.783   3.221  22.866  0.00  0.00    -0.507 OA
ATOM     18  H   UNL     1      11.105   3.489  21.989  0.00  0.00    +0.292 HD
ENDBRANCH   9  17
TORSDOF 4
ENDMDL
MODEL 6
REMARK VINA RESULT:      -5.6      1.671      2.145
REMARK  Name = 
REMARK  5 active torsions:
REMARK  status: ('A' for Active; 'I' for Inactive)
REMARK    1  A    between atoms: C_1  and  C_2
REMARK    2  A    between atoms: C_2  and  O_3
REMARK    3  A    between atoms: O_3  and  C_4
REMARK    4  A    between atoms: C_4  and  C_6
REMARK    5  A    between atoms: C_11  and  O_12
REMARK                            x       y       z     vdW  Elec       q    Type
REMARK                         _______ _______ _______ _____ _____    ______ ____
ROOT
ATOM      1  C   UNL     1       7.810  -2.796  23.339  0.00  0.00    +0.144 A 
ATOM      2  C   UNL     1       6.553  -2.127  23.740  0.00  0.00    +0.351 A 
ATOM      3  O   UNL     1       5.618  -2.715  24.273  0.00  0.00    -0.244 OA
ATOM      4  O   UNL     1       6.480  -0.753  23.518  0.00  0.00    -0.421 OA
ATOM      5  C   UNL     1       7.539  -0.036  22.935  0.00  0.00    +0.143 A 
ATOM      6  C   UNL     1       8.725  -0.675  22.587  0.00  0.00    +0.019 A 
ATOM      7  C   UNL     1       9.744   0.070  21.988  0.00  0.00    +0.015 A 
ATOM      8  C   UNL     1       9.560   1.435  21.739  0.00  0.00    +0.046 A 
ATOM      9  C   UNL     1       8.362   2.047  22.101  0.00  0.00    +0.120 A 
ATOM     10  C   UNL     1       7.344   1.323  22.707  0.00  0.00    +0.092 A 
ATOM     11  C   UNL     1       8.842  -2.104  22.825  0.00  0.00    +0.033 A 
ENDROOT
BRANCH   1  12
ATOM     12  C   UNL     1       8.000  -4.258  23.449  0.00  0.00    +0.346 C 
ATOM     13  O   UNL     1       7.207  -5.082  23.009  0.00  0.00    -0.245 OA
BRANCH  12  14
ATOM     14  O   UNL     1       9.093  -4.541  24.194  0.00  0.00    -0.461 OA
BRANCH  14  16
ATOM     15  C   UNL     1       8.584  -4.341  26.542  0.00  0.00    +0.048 C 
ATOM     16  C   UNL     1       8.874  -5.292  25.396  0.00  0.00    +0.229 C 
ENDBRANCH  14  16
ENDBRANCH  12  14
ENDBRANCH   1  12
BRANCH   9  17
ATOM     17  O   UNL     1       8.140   3.371  21.864  0.00  0.00    -0.507 OA
ATOM     18  H   UNL     1       7.775   3.779  22.667  0.00  0.00    +0.292 HD
ENDBRANCH   9  17
TORSDOF 4
ENDMDL
MODEL 7
REMARK VINA RESULT:      -5.6      2.198      6.213
REMARK  Name = 
REMARK  5 active torsions:
REMARK  status: ('A' for Active; 'I' for Inactive)
REMARK    1  A    between atoms: C_1  and  C_2
REMARK    2  A    between atoms: C_2  and  O_3
REMARK    3  A    between atoms: O_3  and  C_4
REMARK    4  A    between atoms: C_4  and  C_6
REMARK    5  A    between atoms: C_11  and  O_12
REMARK                            x       y       z     vdW  Elec       q    Type
REMARK                         _______ _______ _______ _____ _____    ______ ____
ROOT
ATOM      1  C   UNL     1       9.333  -0.476  24.848  0.00  0.00    +0.144 A 
ATOM      2  C   UNL     1       8.335  -0.275  25.921  0.00  0.00    +0.351 A 
ATOM      3  O   UNL     1       7.937   0.831  26.272  0.00  0.00    -0.244 OA
ATOM      4  O   UNL     1       7.818  -1.425  26.513  0.00  0.00    -0.421 OA
ATOM      5  C   UNL     1       8.225  -2.713  26.122  0.00  0.00    +0.143 A 
ATOM      6  C   UNL     1       9.146  -2.885  25.094  0.00  0.00    +0.019 A 
ATOM      7  C   UNL     1       9.543  -4.180  24.752  0.00  0.00    +0.015 A 
ATOM      8  C   UNL     1       9.023  -5.278  25.446  0.00  0.00    +0.046 A 
ATOM      9  C   UNL     1       8.100  -5.074  26.470  0.00  0.00    +0.120 A 
ATOM     10  C   UNL     1       7.687  -3.794  26.814  0.00  0.00    +0.092 A 
ATOM     11  C   UNL     1       9.690  -1.706  24.440  0.00  0.00    +0.033 A 
ENDROOT
BRANCH   1  12
ATOM     12  C   UNL     1      10.019   0.652  24.182  0.00  0.00    +0.346 C 
ATOM     13  O   UNL     1      11.144   1.036  24.479  0.00  0.00    -0.245 OA
BRANCH  12  14
ATOM     14  O   UNL     1       9.191   1.257  23.299  0.00  0.00    -0.461 OA
BRANCH  14  16
ATOM     15  C   UNL     1       9.331   0.055  21.214  0.00  0.00    +0.048 C 
ATOM     16  C   UNL     1       9.652   1.346  21.944  0.00  0.00    +0.229 C 
ENDBRANCH  14  16
ENDBRANCH  12  14
ENDBRANCH   1  12
BRANCH   9  17
ATOM     17  O   UNL     1       7.580  -6.116  27.177  0.00  0.00    -0.507 OA
ATOM     18  H   UNL     1       7.314  -6.816  26.559  0.00  0.00    +0.292 HD
ENDBRANCH   9  17
TORSDOF 4
ENDMDL
MODEL 8
REMARK VINA RESULT:      -5.6      2.374      6.082
REMARK  Name = 
REMARK  5 active torsions:
REMARK  status: ('A' for Active; 'I' for Inactive)
REMARK    1  A    between atoms: C_1  and  C_2
REMARK    2  A    between atoms: C_2  and  O_3
REMARK    3  A    between atoms: O_3  and  C_4
REMARK    4  A    between atoms: C_4  and  C_6
REMARK    5  A    between atoms: C_11  and  O_12
REMARK                            x       y       z     vdW  Elec       q    Type
REMARK                         _______ _______ _______ _____ _____    ______ ____
ROOT
ATOM      1  C   UNL     1       8.243  -1.945  22.905  0.00  0.00    +0.144 A 
ATOM      2  C   UNL     1       9.087  -2.988  23.527  0.00  0.00    +0.351 A 
ATOM      3  O   UNL     1      10.273  -2.826  23.792  0.00  0.00    -0.244 OA
ATOM      4  O   UNL     1       8.457  -4.191  23.845  0.00  0.00    -0.421 OA
ATOM      5  C   UNL     1       7.093  -4.409  23.584  0.00  0.00    +0.143 A 
ATOM      6  C   UNL     1       6.307  -3.408  23.023  0.00  0.00    +0.019 A 
ATOM      7  C   UNL     1       4.962  -3.674  22.757  0.00  0.00    +0.015 A 
ATOM      8  C   UNL     1       4.426  -4.934  23.047  0.00  0.00    +0.046 A 
ATOM      9  C   UNL     1       5.239  -5.916  23.611  0.00  0.00    +0.120 A 
ATOM     10  C   UNL     1       6.575  -5.664  23.891  0.00  0.00    +0.092 A 
ATOM     11  C   UNL     1       6.928  -2.135  22.697  0.00  0.00    +0.033 A 
ENDROOT
BRANCH   1  12
ATOM     12  C   UNL     1       8.791  -0.650  22.450  0.00  0.00    +0.346 C 
ATOM     13  O   UNL     1       9.304  -0.477  21.350  0.00  0.00    -0.245 OA
BRANCH  12  14
ATOM     14  O   UNL     1       8.751   0.262  23.449  0.00  0.00    -0.461 OA
BRANCH  14  16
ATOM     15  C   UNL     1      10.733   0.482  24.803  0.00  0.00    +0.048 C 
ATOM     16  C   UNL     1       9.932   1.050  23.646  0.00  0.00    +0.229 C 
ENDBRANCH  14  16
ENDBRANCH  12  14
ENDBRANCH   1  12
BRANCH   9  17
ATOM     17  O   UNL     1       4.758  -7.159  23.896  0.00  0.00    -0.507 OA
ATOM     18  H   UNL     1       5.448  -7.668  24.353  0.00  0.00    +0.292 HD
ENDBRANCH   9  17
TORSDOF 4
ENDMDL
MODEL 9
REMARK VINA RESULT:      -5.6      2.769      6.205
REMARK  Name = 
REMARK  5 active torsions:
REMARK  status: ('A' for Active; 'I' for Inactive)
REMARK    1  A    between atoms: C_1  and  C_2
REMARK    2  A    between atoms: C_2  and  O_3
REMARK    3  A    between atoms: O_3  and  C_4
REMARK    4  A    between atoms: C_4  and  C_6
REMARK    5  A    between atoms: C_11  and  O_12
REMARK                            x       y       z     vdW  Elec       q    Type
REMARK                         _______ _______ _______ _____ _____    ______ ____
ROOT
ATOM      1  C   UNL     1       8.017  -1.691  23.026  0.00  0.00    +0.144 A 
ATOM      2  C   UNL     1       6.711  -1.239  23.553  0.00  0.00    +0.351 A 
ATOM      3  O   UNL     1       6.512  -0.106  23.978  0.00  0.00    -0.244 OA
ATOM      4  O   UNL     1       5.670  -2.165  23.515  0.00  0.00    -0.421 OA
ATOM      5  C   UNL     1       5.848  -3.465  23.011  0.00  0.00    +0.143 A 
ATOM      6  C   UNL     1       7.076  -3.866  22.495  0.00  0.00    +0.019 A 
ATOM      7  C   UNL     1       7.217  -5.174  22.026  0.00  0.00    +0.015 A 
ATOM      8  C   UNL     1       6.137  -6.061  22.087  0.00  0.00    +0.046 A 
ATOM      9  C   UNL     1       4.919  -5.629  22.608  0.00  0.00    +0.120 A 
ATOM     10  C   UNL     1       4.758  -4.329  23.068  0.00  0.00    +0.092 A 
ATOM     11  C   UNL     1       8.178  -2.918  22.501  0.00  0.00    +0.033 A 
ENDROOT
BRANCH   1  12
ATOM     12  C   UNL     1       9.226  -0.841  23.070  0.00  0.00    +0.346 C 
ATOM     13  O   UNL     1       9.833  -0.573  24.100  0.00  0.00    -0.245 OA
BRANCH  12  14
ATOM     14  O   UNL     1       9.486  -0.320  21.849  0.00  0.00    -0.461 OA
BRANCH  14  16
ATOM     15  C   UNL     1       8.366   1.805  21.641  0.00  0.00    +0.048 C 
ATOM     16  C   UNL     1       9.699   1.097  21.788  0.00  0.00    +0.229 C 
ENDBRANCH  14  16
ENDBRANCH  12  14
ENDBRANCH   1  12
BRANCH   9  17
ATOM     17  O   UNL     1       3.846  -6.466  22.696  0.00  0.00    -0.507 OA
ATOM     18  H   UNL     1       3.043  -5.937  22.836  0.00  0.00    +0.292 HD
ENDBRANCH   9  17
TORSDOF 4
ENDMDL
