MODEL 1
REMARK VINA RESULT:      -6.1      0.000      0.000
REMARK  Name = 
REMARK  7 active torsions:
REMARK  status: ('A' for Active; 'I' for Inactive)
REMARK    1  A    between atoms: C_1  and  O_2
REMARK    2  A    between atoms: O_2  and  C_3
REMARK    3  A    between atoms: C_6  and  C_9
REMARK    4  A    between atoms: N_11  and  N_12
REMARK    5  A    between atoms: C_13  and  C_14
REMARK    6  A    between atoms: C_18  and  O_19
REMARK    7  A    between atoms: C_22  and  O_23
REMARK                            x       y       z     vdW  Elec       q    Type
REMARK                         _______ _______ _______ _____ _____    ______ ____
ROOT
ATOM      1  N   UNL     1       7.273  -1.155  23.810  0.00  0.00    -0.187 NA
ATOM      2  C   UNL     1       7.559  -2.185  24.537  0.00  0.00    +0.142 C 
ENDROOT
BRANCH   2   3
ATOM      3  C   UNL     1       6.880  -3.475  24.283  0.00  0.00    +0.038 A 
ATOM      4  C   UNL     1       6.825  -4.012  22.993  0.00  0.00    +0.143 A 
ATOM      5  C   UNL     1       6.195  -5.248  22.776  0.00  0.00    +0.102 A 
ATOM      6 BR   UNL     1       6.131  -5.968  21.016  0.00  0.00    -0.043 Br
ATOM      7  C   UNL     1       5.624  -5.941  23.850  0.00  0.00    +0.148 A 
ATOM      8  C   UNL     1       5.677  -5.396  25.136  0.00  0.00    +0.061 A 
ATOM      9 BR   UNL     1       4.910  -6.309  26.610  0.00  0.00    -0.046 Br
ATOM     10  C   UNL     1       6.301  -4.169  25.355  0.00  0.00    +0.032 A 
BRANCH   4  11
ATOM     11  O   UNL     1       7.394  -3.321  21.955  0.00  0.00    -0.505 OA
ATOM     12  H   UNL     1       6.674  -2.875  21.467  0.00  0.00    +0.292 HD
ENDBRANCH   4  11
BRANCH   7  13
ATOM     13  O   UNL     1       5.018  -7.150  23.629  0.00  0.00    -0.504 OA
ATOM     14  H   UNL     1       5.567  -7.653  23.000  0.00  0.00    +0.292 HD
ENDBRANCH   7  13
ENDBRANCH   2   3
BRANCH   1  16
ATOM     15  C   UNL     1       8.587   0.655  23.085  0.00  0.00    +0.263 C 
ATOM     16  N   UNL     1       7.890   0.020  24.106  0.00  0.00    -0.203 N 
ATOM     17  H   UNL     1       7.687   0.486  24.982  0.00  0.00    +0.178 HD
ATOM     18  O   UNL     1       8.744   0.195  21.954  0.00  0.00    -0.268 OA
BRANCH  15  22
ATOM     19  C   UNL     1      10.276   4.521  23.865  0.00  0.00    +0.120 A 
ATOM     20  C   UNL     1       8.910   4.315  24.084  0.00  0.00    +0.046 A 
ATOM     21  C   UNL     1       8.325   3.066  23.838  0.00  0.00    +0.016 A 
ATOM     22  C   UNL     1       9.120   2.010  23.380  0.00  0.00    +0.039 A 
ATOM     23  C   UNL     1      10.498   2.206  23.214  0.00  0.00    +0.016 A 
ATOM     24  C   UNL     1      11.075   3.454  23.456  0.00  0.00    +0.046 A 
BRANCH  19  26
ATOM     25  C   UNL     1      12.139   5.961  23.907  0.00  0.00    +0.277 C 
ATOM     26  O   UNL     1      10.739   5.785  24.112  0.00  0.00    -0.495 OA
ENDBRANCH  19  26
ENDBRANCH  15  22
ENDBRANCH   1  16
TORSDOF 6
ENDMDL
MODEL 2
REMARK VINA RESULT:      -6.1      1.901      2.830
REMARK  Name = 
REMARK  7 active torsions:
REMARK  status: ('A' for Active; 'I' for Inactive)
REMARK    1  A    between atoms: C_1  and  O_2
REMARK    2  A    between atoms: O_2  and  C_3
REMARK    3  A    between atoms: C_6  and  C_9
REMARK    4  A    between atoms: N_11  and  N_12
REMARK    5  A    between atoms: C_13  and  C_14
REMARK    6  A    between atoms: C_18  and  O_19
REMARK    7  A    between atoms: C_22  and  O_23
REMARK                            x       y       z     vdW  Elec       q    Type
REMARK                         _______ _______ _______ _____ _____    ______ ____
ROOT
ATOM      1  N   UNL     1       7.019   0.164  22.828  0.00  0.00    -0.187 NA
ATOM      2  C   UNL     1       7.516  -1.025  22.942  0.00  0.00    +0.142 C 
ENDROOT
BRANCH   2   3
ATOM      3  C   UNL     1       6.612  -2.186  23.099  0.00  0.00    +0.038 A 
ATOM      4  C   UNL     1       5.587  -2.172  24.049  0.00  0.00    +0.143 A 
ATOM      5  C   UNL     1       4.727  -3.275  24.168  0.00  0.00    +0.102 A 
ATOM      6 BR   UNL     1       3.335  -3.240  25.465  0.00  0.00    -0.043 Br
ATOM      7  C   UNL     1       4.895  -4.386  23.333  0.00  0.00    +0.148 A 
ATOM      8  C   UNL     1       5.924  -4.396  22.388  0.00  0.00    +0.061 A 
ATOM      9 BR   UNL     1       6.178  -5.888  21.244  0.00  0.00    -0.046 Br
ATOM     10  C   UNL     1       6.780  -3.303  22.269  0.00  0.00    +0.032 A 
BRANCH   4  11
ATOM     11  O   UNL     1       5.436  -1.073  24.855  0.00  0.00    -0.505 OA
ATOM     12  H   UNL     1       4.593  -1.173  25.338  0.00  0.00    +0.292 HD
ENDBRANCH   4  11
BRANCH   7  13
ATOM     13  O   UNL     1       4.044  -5.455  23.451  0.00  0.00    -0.504 OA
ATOM     14  H   UNL     1       4.583  -6.259  23.568  0.00  0.00    +0.292 HD
ENDBRANCH   7  13
ENDBRANCH   2   3
BRANCH   1  16
ATOM     15  C   UNL     1       8.154   1.933  23.881  0.00  0.00    +0.263 C 
ATOM     16  N   UNL     1       7.889   1.205  22.728  0.00  0.00    -0.203 N 
ATOM     17  H   UNL     1       8.445   1.313  21.889  0.00  0.00    +0.178 HD
ATOM     18  O   UNL     1       7.605   1.748  24.968  0.00  0.00    -0.268 OA
BRANCH  15  22
ATOM     19  C   UNL     1      11.136   5.013  23.715  0.00  0.00    +0.120 A 
ATOM     20  C   UNL     1      11.455   3.727  23.266  0.00  0.00    +0.046 A 
ATOM     21  C   UNL     1      10.506   2.698  23.307  0.00  0.00    +0.016 A 
ATOM     22  C   UNL     1       9.222   2.963  23.792  0.00  0.00    +0.039 A 
ATOM     23  C   UNL     1       8.890   4.265  24.190  0.00  0.00    +0.016 A 
ATOM     24  C   UNL     1       9.840   5.286  24.152  0.00  0.00    +0.046 A 
BRANCH  19  26
ATOM     25  C   UNL     1      13.142   5.668  22.670  0.00  0.00    +0.277 C 
ATOM     26  O   UNL     1      12.144   5.936  23.654  0.00  0.00    -0.495 OA
ENDBRANCH  19  26
ENDBRANCH  15  22
ENDBRANCH   1  16
TORSDOF 6
ENDMDL
MODEL 3
REMARK VINA RESULT:      -5.9      4.208      9.359
REMARK  Name = 
REMARK  7 active torsions:
REMARK  status: ('A' for Active; 'I' for Inactive)
REMARK    1  A    between atoms: C_1  and  O_2
REMARK    2  A    between atoms: O_2  and  C_3
REMARK    3  A    between atoms: C_6  and  C_9
REMARK    4  A    between atoms: N_11  and  N_12
REMARK    5  A    between atoms: C_13  and  C_14
REMARK    6  A    between atoms: C_18  and  O_19
REMARK    7  A    between atoms: C_22  and  O_23
REMARK                            x       y       z     vdW  Elec       q    Type
REMARK                         _______ _______ _______ _____ _____    ______ ____
ROOT
ATOM      1  N   UNL     1       9.108   1.029  23.497  0.00  0.00    -0.187 NA
ATOM      2  C   UNL     1       8.396   2.108  23.534  0.00  0.00    +0.142 C 
ENDROOT
BRANCH   2   3
ATOM      3  C   UNL     1       9.019   3.384  23.953  0.00  0.00    +0.038 A 
ATOM      4  C   UNL     1      10.251   3.785  23.429  0.00  0.00    +0.143 A 
ATOM      5  C   UNL     1      10.814   5.009  23.823  0.00  0.00    +0.102 A 
ATOM      6 BR   UNL     1      12.491   5.543  23.099  0.00  0.00    -0.043 Br
ATOM      7  C   UNL     1      10.141   5.827  24.739  0.00  0.00    +0.148 A 
ATOM      8  C   UNL     1       8.912   5.418  25.263  0.00  0.00    +0.061 A 
ATOM      9 BR   UNL     1       7.978   6.502  26.507  0.00  0.00    -0.046 Br
ATOM     10  C   UNL     1       8.351   4.203  24.874  0.00  0.00    +0.032 A 
BRANCH   4  11
ATOM     11  O   UNL     1      10.893   2.973  22.530  0.00  0.00    -0.505 OA
ATOM     12  H   UNL     1      10.345   2.933  21.722  0.00  0.00    +0.292 HD
ENDBRANCH   4  11
BRANCH   7  13
ATOM     13  O   UNL     1      10.696   7.024  25.112  0.00  0.00    -0.504 OA
ATOM     14  H   UNL     1       9.980   7.600  25.438  0.00  0.00    +0.292 HD
ENDBRANCH   7  13
ENDBRANCH   2   3
BRANCH   1  16
ATOM     15  C   UNL     1       9.100  -1.322  23.501  0.00  0.00    +0.263 C 
ATOM     16  N   UNL     1       8.485  -0.128  23.146  0.00  0.00    -0.203 N 
ATOM     17  H   UNL     1       7.531  -0.099  22.807  0.00  0.00    +0.178 HD
ATOM     18  O   UNL     1      10.200  -1.407  24.047  0.00  0.00    -0.268 OA
BRANCH  15  22
ATOM     19  C   UNL     1       6.946  -4.989  22.933  0.00  0.00    +0.120 A 
ATOM     20  C   UNL     1       6.685  -3.904  22.088  0.00  0.00    +0.046 A 
ATOM     21  C   UNL     1       7.369  -2.692  22.246  0.00  0.00    +0.016 A 
ATOM     22  C   UNL     1       8.332  -2.570  23.253  0.00  0.00    +0.039 A 
ATOM     23  C   UNL     1       8.629  -3.675  24.061  0.00  0.00    +0.016 A 
ATOM     24  C   UNL     1       7.941  -4.879  23.903  0.00  0.00    +0.046 A 
BRANCH  19  26
ATOM     25  C   UNL     1       5.097  -6.291  23.588  0.00  0.00    +0.277 C 
ATOM     26  O   UNL     1       6.204  -6.116  22.706  0.00  0.00    -0.495 OA
ENDBRANCH  19  26
ENDBRANCH  15  22
ENDBRANCH   1  16
TORSDOF 6
ENDMDL
MODEL 4
REMARK VINA RESULT:      -5.9      1.000      2.217
REMARK  Name = 
REMARK  7 active torsions:
REMARK  status: ('A' for Active; 'I' for Inactive)
REMARK    1  A    between atoms: C_1  and  O_2
REMARK    2  A    between atoms: O_2  and  C_3
REMARK    3  A    between atoms: C_6  and  C_9
REMARK    4  A    between atoms: N_11  and  N_12
REMARK    5  A    between atoms: C_13  and  C_14
REMARK    6  A    between atoms: C_18  and  O_19
REMARK    7  A    between atoms: C_22  and  O_23
REMARK                            x       y       z     vdW  Elec       q    Type
REMARK                         _______ _______ _______ _____ _____    ______ ____
ROOT
ATOM      1  N   UNL     1       7.307  -1.230  23.813  0.00  0.00    -0.187 NA
ATOM      2  C   UNL     1       7.531  -2.226  24.607  0.00  0.00    +0.142 C 
ENDROOT
BRANCH   2   3
ATOM      3  C   UNL     1       6.860  -3.523  24.364  0.00  0.00    +0.038 A 
ATOM      4  C   UNL     1       6.238  -4.213  25.408  0.00  0.00    +0.143 A 
ATOM      5  C   UNL     1       5.589  -5.432  25.153  0.00  0.00    +0.102 A 
ATOM      6 BR   UNL     1       4.744  -6.358  26.585  0.00  0.00    -0.043 Br
ATOM      7  C   UNL     1       5.564  -5.953  23.854  0.00  0.00    +0.148 A 
ATOM      8  C   UNL     1       6.192  -5.261  22.816  0.00  0.00    +0.061 A 
ATOM      9 BR   UNL     1       6.177  -5.943  21.046  0.00  0.00    -0.046 Br
ATOM     10  C   UNL     1       6.838  -4.052  23.066  0.00  0.00    +0.032 A 
BRANCH   4  11
ATOM     11  O   UNL     1       6.270  -3.685  26.673  0.00  0.00    -0.505 OA
ATOM     12  H   UNL     1       7.207  -3.611  26.939  0.00  0.00    +0.292 HD
ENDBRANCH   4  11
BRANCH   7  13
ATOM     13  O   UNL     1       4.920  -7.139  23.614  0.00  0.00    -0.504 OA
ATOM     14  H   UNL     1       5.176  -7.769  24.314  0.00  0.00    +0.292 HD
ENDBRANCH   7  13
ENDBRANCH   2   3
BRANCH   1  16
ATOM     15  C   UNL     1       8.557   0.612  23.058  0.00  0.00    +0.263 C 
ATOM     16  N   UNL     1       7.912  -0.046  24.099  0.00  0.00    -0.203 N 
ATOM     17  H   UNL     1       7.733   0.407  24.986  0.00  0.00    +0.178 HD
ATOM     18  O   UNL     1       8.680   0.167  21.917  0.00  0.00    -0.268 OA
BRANCH  15  22
ATOM     19  C   UNL     1      10.202   4.500  23.823  0.00  0.00    +0.120 A 
ATOM     20  C   UNL     1       8.835   4.285  24.024  0.00  0.00    +0.046 A 
ATOM     21  C   UNL     1       8.264   3.028  23.783  0.00  0.00    +0.016 A 
ATOM     22  C   UNL     1       9.075   1.975  23.348  0.00  0.00    +0.039 A 
ATOM     23  C   UNL     1      10.453   2.181  23.199  0.00  0.00    +0.016 A 
ATOM     24  C   UNL     1      11.015   3.436  23.437  0.00  0.00    +0.046 A 
BRANCH  19  26
ATOM     25  C   UNL     1      12.056   5.950  23.904  0.00  0.00    +0.277 C 
ATOM     26  O   UNL     1      10.650   5.770  24.064  0.00  0.00    -0.495 OA
ENDBRANCH  19  26
ENDBRANCH  15  22
ENDBRANCH   1  16
TORSDOF 6
ENDMDL
MODEL 5
REMARK VINA RESULT:      -5.7      4.227      9.563
REMARK  Name = 
REMARK  7 active torsions:
REMARK  status: ('A' for Active; 'I' for Inactive)
REMARK    1  A    between atoms: C_1  and  O_2
REMARK    2  A    between atoms: O_2  and  C_3
REMARK    3  A    between atoms: C_6  and  C_9
REMARK    4  A    between atoms: N_11  and  N_12
REMARK    5  A    between atoms: C_13  and  C_14
REMARK    6  A    between atoms: C_18  and  O_19
REMARK    7  A    between atoms: C_22  and  O_23
REMARK                            x       y       z     vdW  Elec       q    Type
REMARK                         _______ _______ _______ _____ _____    ______ ____
ROOT
ATOM      1  N   UNL     1       8.658   1.101  24.183  0.00  0.00    -0.187 NA
ATOM      2  C   UNL     1       8.995   1.949  23.267  0.00  0.00    +0.142 C 
ENDROOT
BRANCH   2   3
ATOM      3  C   UNL     1       9.560   3.262  23.654  0.00  0.00    +0.038 A 
ATOM      4  C   UNL     1       8.832   4.145  24.456  0.00  0.00    +0.143 A 
ATOM      5  C   UNL     1       9.394   5.376  24.830  0.00  0.00    +0.102 A 
ATOM      6 BR   UNL     1       8.391   6.567  25.925  0.00  0.00    -0.043 Br
ATOM      7  C   UNL     1      10.681   5.717  24.400  0.00  0.00    +0.148 A 
ATOM      8  C   UNL     1      11.402   4.832  23.594  0.00  0.00    +0.061 A 
ATOM      9 BR   UNL     1      13.148   5.267  22.994  0.00  0.00    -0.046 Br
ATOM     10  C   UNL     1      10.847   3.609  23.220  0.00  0.00    +0.032 A 
BRANCH   4  11
ATOM     11  O   UNL     1       7.573   3.791  24.871  0.00  0.00    -0.505 OA
ATOM     12  H   UNL     1       7.652   3.418  25.770  0.00  0.00    +0.292 HD
ENDBRANCH   4  11
BRANCH   7  13
ATOM     13  O   UNL     1      11.224   6.918  24.777  0.00  0.00    -0.504 OA
ATOM     14  H   UNL     1      12.112   6.747  25.142  0.00  0.00    +0.292 HD
ENDBRANCH   7  13
ENDBRANCH   2   3
BRANCH   1  16
ATOM     15  C   UNL     1       8.908  -1.210  23.828  0.00  0.00    +0.263 C 
ATOM     16  N   UNL     1       8.106  -0.076  23.783  0.00  0.00    -0.203 N 
ATOM     17  H   UNL     1       7.106  -0.135  23.638  0.00  0.00    +0.178 HD
ATOM     18  O   UNL     1      10.100  -1.213  24.136  0.00  0.00    -0.268 OA
BRANCH  15  22
ATOM     19  C   UNL     1       6.917  -4.886  22.863  0.00  0.00    +0.120 A 
ATOM     20  C   UNL     1       7.920  -4.888  23.838  0.00  0.00    +0.046 A 
ATOM     21  C   UNL     1       8.592  -3.706  24.176  0.00  0.00    +0.016 A 
ATOM     22  C   UNL     1       8.245  -2.509  23.541  0.00  0.00    +0.039 A 
ATOM     23  C   UNL     1       7.203  -2.502  22.605  0.00  0.00    +0.016 A 
ATOM     24  C   UNL     1       6.540  -3.683  22.267  0.00  0.00    +0.046 A 
BRANCH  19  26
ATOM     25  C   UNL     1       5.157  -6.379  23.332  0.00  0.00    +0.277 C 
ATOM     26  O   UNL     1       6.344  -6.098  22.591  0.00  0.00    -0.495 OA
ENDBRANCH  19  26
ENDBRANCH  15  22
ENDBRANCH   1  16
TORSDOF 6
ENDMDL
MODEL 6
REMARK VINA RESULT:      -5.7      3.779      9.309
REMARK  Name = 
REMARK  7 active torsions:
REMARK  status: ('A' for Active; 'I' for Inactive)
REMARK    1  A    between atoms: C_1  and  O_2
REMARK    2  A    between atoms: O_2  and  C_3
REMARK    3  A    between atoms: C_6  and  C_9
REMARK    4  A    between atoms: N_11  and  N_12
REMARK    5  A    between atoms: C_13  and  C_14
REMARK    6  A    between atoms: C_18  and  O_19
REMARK    7  A    between atoms: C_22  and  O_23
REMARK                            x       y       z     vdW  Elec       q    Type
REMARK                         _______ _______ _______ _____ _____    ______ ____
ROOT
ATOM      1  N   UNL     1       6.850   0.053  22.862  0.00  0.00    -0.187 NA
ATOM      2  C   UNL     1       6.589   1.026  23.673  0.00  0.00    +0.142 C 
ENDROOT
BRANCH   2   3
ATOM      3  C   UNL     1       7.265   2.330  23.496  0.00  0.00    +0.038 A 
ATOM      4  C   UNL     1       8.658   2.430  23.562  0.00  0.00    +0.143 A 
ATOM      5  C   UNL     1       9.280   3.674  23.370  0.00  0.00    +0.102 A 
ATOM      6 BR   UNL     1      11.177   3.793  23.462  0.00  0.00    -0.043 Br
ATOM      7  C   UNL     1       8.507   4.811  23.110  0.00  0.00    +0.148 A 
ATOM      8  C   UNL     1       7.115   4.706  23.049  0.00  0.00    +0.061 A 
ATOM      9 BR   UNL     1       6.040   6.229  22.700  0.00  0.00    -0.046 Br
ATOM     10  C   UNL     1       6.494   3.473  23.240  0.00  0.00    +0.032 A 
BRANCH   4  11
ATOM     11  O   UNL     1       9.398   1.304  23.815  0.00  0.00    -0.505 OA
ATOM     12  H   UNL     1       8.840   0.530  23.605  0.00  0.00    +0.292 HD
ENDBRANCH   4  11
BRANCH   7  13
ATOM     13  O   UNL     1       9.125   6.019  22.915  0.00  0.00    -0.504 OA
ATOM     14  H   UNL     1      10.083   5.858  22.827  0.00  0.00    +0.292 HD
ENDBRANCH   7  13
ENDBRANCH   2   3
BRANCH   1  16
ATOM     15  C   UNL     1       6.937  -2.294  22.756  0.00  0.00    +0.263 C 
ATOM     16  N   UNL     1       6.237  -1.140  23.088  0.00  0.00    -0.203 N 
ATOM     17  H   UNL     1       5.391  -1.171  23.642  0.00  0.00    +0.178 HD
ATOM     18  O   UNL     1       8.039  -2.311  22.207  0.00  0.00    -0.268 OA
BRANCH  15  22
ATOM     19  C   UNL     1       5.172  -6.079  23.741  0.00  0.00    +0.120 A 
ATOM     20  C   UNL     1       5.552  -5.212  24.772  0.00  0.00    +0.046 A 
ATOM     21  C   UNL     1       6.132  -3.970  24.486  0.00  0.00    +0.016 A 
ATOM     22  C   UNL     1       6.322  -3.588  23.155  0.00  0.00    +0.039 A 
ATOM     23  C   UNL     1       5.891  -4.435  22.126  0.00  0.00    +0.016 A 
ATOM     24  C   UNL     1       5.318  -5.674  22.415  0.00  0.00    +0.046 A 
BRANCH  19  26
ATOM     25  C   UNL     1       3.972  -7.252  25.393  0.00  0.00    +0.277 C 
ATOM     26  O   UNL     1       4.639  -7.276  24.132  0.00  0.00    -0.495 OA
ENDBRANCH  19  26
ENDBRANCH  15  22
ENDBRANCH   1  16
TORSDOF 6
ENDMDL
MODEL 7
REMARK VINA RESULT:      -5.6      2.160      3.204
REMARK  Name = 
REMARK  7 active torsions:
REMARK  status: ('A' for Active; 'I' for Inactive)
REMARK    1  A    between atoms: C_1  and  O_2
REMARK    2  A    between atoms: O_2  and  C_3
REMARK    3  A    between atoms: C_6  and  C_9
REMARK    4  A    between atoms: N_11  and  N_12
REMARK    5  A    between atoms: C_13  and  C_14
REMARK    6  A    between atoms: C_18  and  O_19
REMARK    7  A    between atoms: C_22  and  O_23
REMARK                            x       y       z     vdW  Elec       q    Type
REMARK                         _______ _______ _______ _____ _____    ______ ____
ROOT
ATOM      1  N   UNL     1       7.547  -2.508  25.628  0.00  0.00    -0.187 NA
ATOM      2  C   UNL     1       7.313  -3.537  24.880  0.00  0.00    +0.142 C 
ENDROOT
BRANCH   2   3
ATOM      3  C   UNL     1       6.390  -4.593  25.353  0.00  0.00    +0.038 A 
ATOM      4  C   UNL     1       6.487  -5.097  26.653  0.00  0.00    +0.143 A 
ATOM      5  C   UNL     1       5.589  -6.084  27.090  0.00  0.00    +0.102 A 
ATOM      6 BR   UNL     1       5.731  -6.759  28.863  0.00  0.00    -0.043 Br
ATOM      7  C   UNL     1       4.597  -6.561  26.224  0.00  0.00    +0.148 A 
ATOM      8  C   UNL     1       4.509  -6.056  24.924  0.00  0.00    +0.061 A 
ATOM      9 BR   UNL     1       3.178  -6.683  23.727  0.00  0.00    -0.046 Br
ATOM     10  C   UNL     1       5.399  -5.077  24.487  0.00  0.00    +0.032 A 
BRANCH   4  11
ATOM     11  O   UNL     1       7.462  -4.615  27.488  0.00  0.00    -0.505 OA
ATOM     12  H   UNL     1       7.925  -5.383  27.877  0.00  0.00    +0.292 HD
ENDBRANCH   4  11
BRANCH   7  13
ATOM     13  O   UNL     1       3.720  -7.518  26.662  0.00  0.00    -0.504 OA
ATOM     14  H   UNL     1       3.016  -7.613  25.994  0.00  0.00    +0.292 HD
ENDBRANCH   7  13
ENDBRANCH   2   3
BRANCH   1  16
ATOM     15  C   UNL     1       7.915  -0.427  24.597  0.00  0.00    +0.263 C 
ATOM     16  N   UNL     1       8.433  -1.582  25.170  0.00  0.00    -0.203 N 
ATOM     17  H   UNL     1       9.412  -1.665  25.412  0.00  0.00    +0.178 HD
ATOM     18  O   UNL     1       6.717  -0.214  24.409  0.00  0.00    -0.268 OA
BRANCH  15  22
ATOM     19  C   UNL     1      10.593   2.764  23.572  0.00  0.00    +0.120 A 
ATOM     20  C   UNL     1      11.118   1.559  24.050  0.00  0.00    +0.046 A 
ATOM     21  C   UNL     1      10.272   0.497  24.395  0.00  0.00    +0.016 A 
ATOM     22  C   UNL     1       8.889   0.641  24.248  0.00  0.00    +0.039 A 
ATOM     23  C   UNL     1       8.372   1.830  23.719  0.00  0.00    +0.016 A 
ATOM     24  C   UNL     1       9.218   2.887  23.380  0.00  0.00    +0.046 A 
BRANCH  19  26
ATOM     25  C   UNL     1      11.105   5.061  23.661  0.00  0.00    +0.277 C 
ATOM     26  O   UNL     1      11.506   3.744  23.289  0.00  0.00    -0.495 OA
ENDBRANCH  19  26
ENDBRANCH  15  22
ENDBRANCH   1  16
TORSDOF 6
ENDMDL
MODEL 8
REMARK VINA RESULT:      -5.4      4.000      9.223
REMARK  Name = 
REMARK  7 active torsions:
REMARK  status: ('A' for Active; 'I' for Inactive)
REMARK    1  A    between atoms: C_1  and  O_2
REMARK    2  A    between atoms: O_2  and  C_3
REMARK    3  A    between atoms: C_6  and  C_9
REMARK    4  A    between atoms: N_11  and  N_12
REMARK    5  A    between atoms: C_13  and  C_14
REMARK    6  A    between atoms: C_18  and  O_19
REMARK    7  A    between atoms: C_22  and  O_23
REMARK                            x       y       z     vdW  Elec       q    Type
REMARK                         _______ _______ _______ _____ _____    ______ ____
ROOT
ATOM      1  N   UNL     1       7.493   0.268  24.036  0.00  0.00    -0.187 NA
ATOM      2  C   UNL     1       7.383   1.303  24.804  0.00  0.00    +0.142 C 
ENDROOT
BRANCH   2   3
ATOM      3  C   UNL     1       7.949   2.601  24.373  0.00  0.00    +0.038 A 
ATOM      4  C   UNL     1       9.319   2.738  24.131  0.00  0.00    +0.143 A 
ATOM      5  C   UNL     1       9.833   3.972  23.702  0.00  0.00    +0.102 A 
ATOM      6 BR   UNL     1      11.700   4.144  23.375  0.00  0.00    -0.043 Br
ATOM      7  C   UNL     1       8.974   5.062  23.515  0.00  0.00    +0.148 A 
ATOM      8  C   UNL     1       7.607   4.919  23.763  0.00  0.00    +0.061 A 
ATOM      9 BR   UNL     1       6.419   6.377  23.521  0.00  0.00    -0.046 Br
ATOM     10  C   UNL     1       7.093   3.696  24.190  0.00  0.00    +0.032 A 
BRANCH   4  11
ATOM     11  O   UNL     1      10.144   1.659  24.316  0.00  0.00    -0.505 OA
ATOM     12  H   UNL     1       9.915   0.992  23.639  0.00  0.00    +0.292 HD
ENDBRANCH   4  11
BRANCH   7  13
ATOM     13  O   UNL     1       9.485   6.260  23.088  0.00  0.00    -0.504 OA
ATOM     14  H   UNL     1      10.380   6.359  23.464  0.00  0.00    +0.292 HD
ENDBRANCH   7  13
ENDBRANCH   2   3
BRANCH   1  16
ATOM     15  C   UNL     1       7.806  -2.036  24.384  0.00  0.00    +0.263 C 
ATOM     16  N   UNL     1       6.994  -0.913  24.491  0.00  0.00    -0.203 N 
ATOM     17  H   UNL     1       6.147  -0.918  25.045  0.00  0.00    +0.178 HD
ATOM     18  O   UNL     1       8.912  -2.052  23.844  0.00  0.00    -0.268 OA
BRANCH  15  22
ATOM     19  C   UNL     1       6.421  -5.563  26.397  0.00  0.00    +0.120 A 
ATOM     20  C   UNL     1       6.171  -5.414  25.028  0.00  0.00    +0.046 A 
ATOM     21  C   UNL     1       6.607  -4.274  24.340  0.00  0.00    +0.016 A 
ATOM     22  C   UNL     1       7.312  -3.281  25.028  0.00  0.00    +0.039 A 
ATOM     23  C   UNL     1       7.608  -3.460  26.385  0.00  0.00    +0.016 A 
ATOM     24  C   UNL     1       7.167  -4.595  27.068  0.00  0.00    +0.046 A 
BRANCH  19  26
ATOM     25  C   UNL     1       4.673  -6.544  27.631  0.00  0.00    +0.277 C 
ATOM     26  O   UNL     1       5.929  -6.701  26.975  0.00  0.00    -0.495 OA
ENDBRANCH  19  26
ENDBRANCH  15  22
ENDBRANCH   1  16
TORSDOF 6
ENDMDL
MODEL 9
REMARK VINA RESULT:      -5.4      3.703      9.649
REMARK  Name = 
REMARK  7 active torsions:
REMARK  status: ('A' for Active; 'I' for Inactive)
REMARK    1  A    between atoms: C_1  and  O_2
REMARK    2  A    between atoms: O_2  and  C_3
REMARK    3  A    between atoms: C_6  and  C_9
REMARK    4  A    between atoms: N_11  and  N_12
REMARK    5  A    between atoms: C_13  and  C_14
REMARK    6  A    between atoms: C_18  and  O_19
REMARK    7  A    between atoms: C_22  and  O_23
REMARK                            x       y       z     vdW  Elec       q    Type
REMARK                         _______ _______ _______ _____ _____    ______ ____
ROOT
ATOM      1  N   UNL     1       6.074  -2.053  23.906  0.00  0.00    -0.187 NA
ATOM      2  C   UNL     1       6.501  -1.382  22.887  0.00  0.00    +0.142 C 
ENDROOT
BRANCH   2   3
ATOM      3  C   UNL     1       7.346  -0.186  23.098  0.00  0.00    +0.038 A 
ATOM      4  C   UNL     1       8.614  -0.298  23.675  0.00  0.00    +0.143 A 
ATOM      5  C   UNL     1       9.408   0.847  23.847  0.00  0.00    +0.102 A 
ATOM      6 BR   UNL     1      11.133   0.677  24.633  0.00  0.00    -0.043 Br
ATOM      7  C   UNL     1       8.932   2.098  23.438  0.00  0.00    +0.148 A 
ATOM      8  C   UNL     1       7.662   2.204  22.866  0.00  0.00    +0.061 A 
ATOM      9 BR   UNL     1       6.987   3.885  22.304  0.00  0.00    -0.046 Br
ATOM     10  C   UNL     1       6.870   1.070  22.695  0.00  0.00    +0.032 A 
BRANCH   4  11
ATOM     11  O   UNL     1       9.065  -1.533  24.066  0.00  0.00    -0.505 OA
ATOM     12  H   UNL     1       9.394  -1.451  24.982  0.00  0.00    +0.292 HD
ENDBRANCH   4  11
BRANCH   7  13
ATOM     13  O   UNL     1       9.719   3.208  23.603  0.00  0.00    -0.504 OA
ATOM     14  H   UNL     1       9.433   3.664  24.416  0.00  0.00    +0.292 HD
ENDBRANCH   7  13
ENDBRANCH   2   3
BRANCH   1  16
ATOM     15  C   UNL     1       5.462  -4.260  24.440  0.00  0.00    +0.263 C 
ATOM     16  N   UNL     1       5.266  -3.121  23.667  0.00  0.00    -0.203 N 
ATOM     17  H   UNL     1       4.449  -3.009  23.080  0.00  0.00    +0.178 HD
ATOM     18  O   UNL     1       6.358  -4.395  25.273  0.00  0.00    -0.268 OA
BRANCH  15  22
ATOM     19  C   UNL     1       2.654  -7.488  24.124  0.00  0.00    +0.120 A 
ATOM     20  C   UNL     1       2.612  -6.452  23.185  0.00  0.00    +0.046 A 
ATOM     21  C   UNL     1       3.513  -5.382  23.259  0.00  0.00    +0.016 A 
ATOM     22  C   UNL     1       4.472  -5.357  24.277  0.00  0.00    +0.039 A 
ATOM     23  C   UNL     1       4.545  -6.424  25.182  0.00  0.00    +0.016 A 
ATOM     24  C   UNL     1       3.642  -7.485  25.107  0.00  0.00    +0.046 A 
BRANCH  19  26
ATOM     25  C   UNL     1       1.066  -8.490  22.702  0.00  0.00    +0.277 C 
ATOM     26  O   UNL     1       1.713  -8.470  23.974  0.00  0.00    -0.495 OA
ENDBRANCH  19  26
ENDBRANCH  15  22
ENDBRANCH   1  16
TORSDOF 6
ENDMDL
