MODEL 1
REMARK VINA RESULT:      -7.0      0.000      0.000
REMARK  Name = 
REMARK  18 active torsions:
REMARK  status: ('A' for Active; 'I' for Inactive)
REMARK    1  A    between atoms: O_1  and  C_2
REMARK    2  A    between atoms: C_2  and  C_3
REMARK    3  A    between atoms: C_6  and  N_10
REMARK    4  A    between atoms: C_11  and  C_13
REMARK    5  A    between atoms: C_13  and  O_15
REMARK    6  A    between atoms: C_13  and  C_23
REMARK    7  A    between atoms: O_15  and  C_16
REMARK    8  A    between atoms: C_16  and  C_17
REMARK    9  A    between atoms: C_23  and  O_25
REMARK   10  A    between atoms: C_23  and  C_26
REMARK   11  A    between atoms: C_26  and  O_28
REMARK   12  A    between atoms: C_26  and  C_29
REMARK   13  A    between atoms: C_29  and  O_31
REMARK   14  A    between atoms: C_29  and  C_39
REMARK   15  A    between atoms: O_31  and  C_32
REMARK   16  A    between atoms: C_32  and  C_33
REMARK   17  A    between atoms: N_41  and  C_42
REMARK   18  A    between atoms: C_44  and  O_46
REMARK                            x       y       z     vdW  Elec       q    Type
REMARK                         _______ _______ _______ _____ _____    ______ ____
ROOT
ATOM      1  C   UNL     1       5.410  -2.066  26.580  0.00  0.00    +0.184 C 
ENDROOT
BRANCH   1   2
ATOM      2  O   UNL     1       4.005  -1.965  26.980  0.00  0.00    -0.386 OA
ATOM      3  H   UNL     1       3.716  -1.036  26.933  0.00  0.00    +0.210 HD
ENDBRANCH   1   2
BRANCH   1   4
ATOM      4  C   UNL     1       5.896  -3.235  27.457  0.00  0.00    +0.184 C 
BRANCH   4   5
ATOM      5  O   UNL     1       4.706  -3.771  28.113  0.00  0.00    -0.386 OA
ATOM      6  H   UNL     1       4.126  -4.124  27.402  0.00  0.00    +0.210 HD
ENDBRANCH   4   5
BRANCH   4   7
ATOM      7  C   UNL     1       6.659  -4.346  26.736  0.00  0.00    +0.235 C 
BRANCH   7  10
ATOM      8  N   UNL     1       4.800  -5.514  25.641  0.00  0.00    -0.308 N 
ATOM      9  H   UNL     1       4.749  -4.640  25.106  0.00  0.00    +0.149 HD
ATOM     10  C   UNL     1       5.795  -5.605  26.572  0.00  0.00    +0.245 C 
ATOM     11  O   UNL     1       6.026  -6.630  27.214  0.00  0.00    -0.273 OA
BRANCH   8  15
ATOM     12  C   UNL     1       2.367  -7.515  23.834  0.00  0.00    +0.145 C 
ATOM     13  O   UNL     1       1.690  -7.279  25.080  0.00  0.00    -0.372 OA
ATOM     14  C   UNL     1       2.664  -6.759  26.006  0.00  0.00    +0.182 C 
ATOM     15  C   UNL     1       3.989  -6.635  25.252  0.00  0.00    +0.101 C 
ATOM     16  C   UNL     1       3.531  -6.544  23.817  0.00  0.00    +0.058 C 
BRANCH  12  17
ATOM     17  C   UNL     1       1.420  -7.352  22.654  0.00  0.00    +0.187 C 
BRANCH  17  18
ATOM     18  O   UNL     1       1.636  -8.392  21.708  0.00  0.00    -0.392 OA
ATOM     19  H   UNL     1       0.903  -9.023  21.809  0.00  0.00    +0.210 HD
ENDBRANCH  17  18
ENDBRANCH  12  17
ENDBRANCH   8  15
ENDBRANCH   7  10
BRANCH   7  20
ATOM     20  O   UNL     1       7.152  -3.846  25.506  0.00  0.00    -0.360 OA
BRANCH  20  21
ATOM     21  C   UNL     1       7.787  -4.864  24.734  0.00  0.00    +0.196 C 
BRANCH  21  22
ATOM     22  C   UNL     1       7.222  -4.899  23.340  0.00  0.00    -0.022 A 
ATOM     23  C   UNL     1       6.522  -3.785  22.858  0.00  0.00    +0.006 A 
ATOM     24  C   UNL     1       5.960  -3.803  21.582  0.00  0.00    +0.000 A 
ATOM     25  C   UNL     1       6.078  -4.940  20.784  0.00  0.00    +0.000 A 
ATOM     26  C   UNL     1       6.750  -6.062  21.263  0.00  0.00    +0.000 A 
ATOM     27  C   UNL     1       7.313  -6.044  22.538  0.00  0.00    +0.006 A 
ENDBRANCH  21  22
ENDBRANCH  20  21
ENDBRANCH   7  20
ENDBRANCH   4   7
ENDBRANCH   1   4
BRANCH   1  28
ATOM     28  C   UNL     1       6.152  -0.701  26.715  0.00  0.00    +0.235 C 
BRANCH  28  29
ATOM     29  C   UNL     1       7.670  -0.796  26.365  0.00  0.00    +0.245 C 
ATOM     30  N   UNL     1       7.952  -0.987  25.022  0.00  0.00    -0.304 N 
ATOM     31  H   UNL     1       7.208  -1.182  24.367  0.00  0.00    +0.149 HD
ATOM     32  O   UNL     1       8.552  -0.696  27.201  0.00  0.00    -0.273 OA
BRANCH  30  33
ATOM     33  C   UNL     1       9.319  -1.040  24.497  0.00  0.00    +0.132 C 
ATOM     34  C   UNL     1       9.697   0.323  23.967  0.00  0.00    -0.022 A 
ATOM     35  C   UNL     1       9.879   0.318  22.584  0.00  0.00    -0.040 A 
ATOM     36  C   UNL     1      10.110   1.499  21.892  0.00  0.00    +0.004 A 
ATOM     37  C   UNL     1      10.160   2.696  22.606  0.00  0.00    +0.000 A 
ATOM     38  C   UNL     1      10.011   2.699  23.999  0.00  0.00    +0.000 A 
ATOM     39  C   UNL     1       9.751  -1.050  22.002  0.00  0.00    +0.069 C 
ATOM     40  C   UNL     1       9.786   1.505  24.687  0.00  0.00    +0.006 A 
ATOM     41  C   UNL     1       9.493  -1.949  23.233  0.00  0.00    +0.143 C 
BRANCH  41  42
ATOM     42  O   UNL     1      10.591  -2.864  23.377  0.00  0.00    -0.389 OA
ATOM     43  H   UNL     1      10.292  -3.625  23.903  0.00  0.00    +0.210 HD
ENDBRANCH  41  42
ENDBRANCH  30  33
ENDBRANCH  28  29
BRANCH  28  44
ATOM     44  O   UNL     1       5.697   0.287  25.768  0.00  0.00    -0.360 OA
BRANCH  44  45
ATOM     45  C   UNL     1       6.061   1.630  26.043  0.00  0.00    +0.196 C 
BRANCH  45  46
ATOM     46  C   UNL     1       6.270   2.347  24.743  0.00  0.00    -0.022 A 
ATOM     47  C   UNL     1       6.504   3.723  24.707  0.00  0.00    +0.006 A 
ATOM     48  C   UNL     1       6.704   4.360  23.483  0.00  0.00    +0.000 A 
ATOM     49  C   UNL     1       6.675   3.626  22.296  0.00  0.00    +0.000 A 
ATOM     50  C   UNL     1       6.445   2.254  22.325  0.00  0.00    +0.000 A 
ATOM     51  C   UNL     1       6.248   1.614  23.545  0.00  0.00    +0.006 A 
ENDBRANCH  45  46
ENDBRANCH  44  45
ENDBRANCH  28  44
ENDBRANCH   1  28
TORSDOF 18
ENDMDL
MODEL 2
REMARK VINA RESULT:      -6.7      2.517      8.620
REMARK  Name = 
REMARK  18 active torsions:
REMARK  status: ('A' for Active; 'I' for Inactive)
REMARK    1  A    between atoms: O_1  and  C_2
REMARK    2  A    between atoms: C_2  and  C_3
REMARK    3  A    between atoms: C_6  and  N_10
REMARK    4  A    between atoms: C_11  and  C_13
REMARK    5  A    between atoms: C_13  and  O_15
REMARK    6  A    between atoms: C_13  and  C_23
REMARK    7  A    between atoms: O_15  and  C_16
REMARK    8  A    between atoms: C_16  and  C_17
REMARK    9  A    between atoms: C_23  and  O_25
REMARK   10  A    between atoms: C_23  and  C_26
REMARK   11  A    between atoms: C_26  and  O_28
REMARK   12  A    between atoms: C_26  and  C_29
REMARK   13  A    between atoms: C_29  and  O_31
REMARK   14  A    between atoms: C_29  and  C_39
REMARK   15  A    between atoms: O_31  and  C_32
REMARK   16  A    between atoms: C_32  and  C_33
REMARK   17  A    between atoms: N_41  and  C_42
REMARK   18  A    between atoms: C_44  and  O_46
REMARK                            x       y       z     vdW  Elec       q    Type
REMARK                         _______ _______ _______ _____ _____    ______ ____
ROOT
ATOM      1  C   UNL     1       8.990  -1.369  25.931  0.00  0.00    +0.184 C 
ENDROOT
BRANCH   1   2
ATOM      2  O   UNL     1       9.134  -0.198  26.798  0.00  0.00    -0.386 OA
ATOM      3  H   UNL     1       8.981  -0.455  27.726  0.00  0.00    +0.210 HD
ENDBRANCH   1   2
BRANCH   1   4
ATOM      4  C   UNL     1       9.354  -0.778  24.556  0.00  0.00    +0.184 C 
BRANCH   4   5
ATOM      5  O   UNL     1      10.157  -1.793  23.879  0.00  0.00    -0.386 OA
ATOM      6  H   UNL     1      10.165  -2.583  24.464  0.00  0.00    +0.210 HD
ENDBRANCH   4   5
BRANCH   4   7
ATOM      7  C   UNL     1       8.181  -0.345  23.678  0.00  0.00    +0.235 C 
BRANCH   7  10
ATOM      8  N   UNL     1       9.253   1.858  23.820  0.00  0.00    -0.308 N 
ATOM      9  H   UNL     1       9.709   1.428  24.632  0.00  0.00    +0.149 HD
ATOM     10  C   UNL     1       8.396   1.066  23.111  0.00  0.00    +0.245 C 
ATOM     11  O   UNL     1       7.856   1.426  22.064  0.00  0.00    -0.273 OA
BRANCH   8  15
ATOM     12  C   UNL     1      11.354   4.768  23.270  0.00  0.00    +0.145 C 
ATOM     13  O   UNL     1      10.397   5.268  24.219  0.00  0.00    -0.372 OA
ATOM     14  C   UNL     1       9.323   4.310  24.291  0.00  0.00    +0.182 C 
ATOM     15  C   UNL     1       9.683   3.150  23.363  0.00  0.00    +0.101 C 
ATOM     16  C   UNL     1      11.187   3.262  23.285  0.00  0.00    +0.058 C 
BRANCH  12  17
ATOM     17  C   UNL     1      12.762   5.229  23.615  0.00  0.00    +0.187 C 
BRANCH  17  18
ATOM     18  O   UNL     1      12.709   6.347  24.492  0.00  0.00    -0.392 OA
ATOM     19  H   UNL     1      11.891   6.831  24.283  0.00  0.00    +0.210 HD
ENDBRANCH  17  18
ENDBRANCH  12  17
ENDBRANCH   8  15
ENDBRANCH   7  10
BRANCH   7  20
ATOM     20  O   UNL     1       7.969  -1.322  22.675  0.00  0.00    -0.360 OA
BRANCH  20  21
ATOM     21  C   UNL     1       6.674  -1.912  22.773  0.00  0.00    +0.196 C 
BRANCH  21  22
ATOM     22  C   UNL     1       6.742  -3.386  22.481  0.00  0.00    -0.022 A 
ATOM     23  C   UNL     1       7.707  -4.168  23.128  0.00  0.00    +0.006 A 
ATOM     24  C   UNL     1       7.815  -5.530  22.852  0.00  0.00    +0.000 A 
ATOM     25  C   UNL     1       6.969  -6.120  21.914  0.00  0.00    +0.000 A 
ATOM     26  C   UNL     1       6.021  -5.348  21.245  0.00  0.00    +0.000 A 
ATOM     27  C   UNL     1       5.913  -3.986  21.523  0.00  0.00    +0.006 A 
ENDBRANCH  21  22
ENDBRANCH  20  21
ENDBRANCH   7  20
ENDBRANCH   4   7
ENDBRANCH   1   4
BRANCH   1  28
ATOM     28  C   UNL     1       7.590  -2.037  26.086  0.00  0.00    +0.235 C 
BRANCH  28  29
ATOM     29  C   UNL     1       7.672  -3.506  26.606  0.00  0.00    +0.245 C 
ATOM     30  N   UNL     1       6.501  -4.238  26.489  0.00  0.00    -0.304 N 
ATOM     31  H   UNL     1       5.643  -3.785  26.211  0.00  0.00    +0.149 HD
ATOM     32  O   UNL     1       8.692  -3.991  27.069  0.00  0.00    -0.273 OA
BRANCH  30  33
ATOM     33  C   UNL     1       6.406  -5.650  26.867  0.00  0.00    +0.132 C 
ATOM     34  C   UNL     1       5.183  -6.253  26.219  0.00  0.00    -0.022 A 
ATOM     35  C   UNL     1       4.220  -6.626  27.157  0.00  0.00    -0.040 A 
ATOM     36  C   UNL     1       2.973  -7.088  26.753  0.00  0.00    +0.004 A 
ATOM     37  C   UNL     1       2.700  -7.173  25.388  0.00  0.00    +0.000 A 
ATOM     38  C   UNL     1       3.678  -6.831  24.445  0.00  0.00    +0.000 A 
ATOM     39  C   UNL     1       4.689  -6.426  28.559  0.00  0.00    +0.069 C 
ATOM     40  C   UNL     1       4.931  -6.375  24.860  0.00  0.00    +0.006 A 
ATOM     41  C   UNL     1       6.131  -5.895  28.391  0.00  0.00    +0.143 C 
BRANCH  41  42
ATOM     42  O   UNL     1       7.044  -6.850  28.954  0.00  0.00    -0.389 OA
ATOM     43  H   UNL     1       6.688  -7.743  28.806  0.00  0.00    +0.210 HD
ENDBRANCH  41  42
ENDBRANCH  30  33
ENDBRANCH  28  29
BRANCH  28  44
ATOM     44  O   UNL     1       6.775  -1.415  27.101  0.00  0.00    -0.360 OA
BRANCH  44  45
ATOM     45  C   UNL     1       5.581  -0.797  26.650  0.00  0.00    +0.196 C 
BRANCH  45  46
ATOM     46  C   UNL     1       4.451  -1.772  26.793  0.00  0.00    -0.022 A 
ATOM     47  C   UNL     1       3.869  -2.372  25.674  0.00  0.00    +0.006 A 
ATOM     48  C   UNL     1       2.826  -3.281  25.840  0.00  0.00    +0.000 A 
ATOM     49  C   UNL     1       2.365  -3.597  27.119  0.00  0.00    +0.000 A 
ATOM     50  C   UNL     1       2.943  -3.005  28.238  0.00  0.00    +0.000 A 
ATOM     51  C   UNL     1       3.986  -2.099  28.077  0.00  0.00    +0.006 A 
ENDBRANCH  45  46
ENDBRANCH  44  45
ENDBRANCH  28  44
ENDBRANCH   1  28
TORSDOF 18
ENDMDL
MODEL 3
REMARK VINA RESULT:      -6.6      2.509      8.225
REMARK  Name = 
REMARK  18 active torsions:
REMARK  status: ('A' for Active; 'I' for Inactive)
REMARK    1  A    between atoms: O_1  and  C_2
REMARK    2  A    between atoms: C_2  and  C_3
REMARK    3  A    between atoms: C_6  and  N_10
REMARK    4  A    between atoms: C_11  and  C_13
REMARK    5  A    between atoms: C_13  and  O_15
REMARK    6  A    between atoms: C_13  and  C_23
REMARK    7  A    between atoms: O_15  and  C_16
REMARK    8  A    between atoms: C_16  and  C_17
REMARK    9  A    between atoms: C_23  and  O_25
REMARK   10  A    between atoms: C_23  and  C_26
REMARK   11  A    between atoms: C_26  and  O_28
REMARK   12  A    between atoms: C_26  and  C_29
REMARK   13  A    between atoms: C_29  and  O_31
REMARK   14  A    between atoms: C_29  and  C_39
REMARK   15  A    between atoms: O_31  and  C_32
REMARK   16  A    between atoms: C_32  and  C_33
REMARK   17  A    between atoms: N_41  and  C_42
REMARK   18  A    between atoms: C_44  and  O_46
REMARK                            x       y       z     vdW  Elec       q    Type
REMARK                         _______ _______ _______ _____ _____    ______ ____
ROOT
ATOM      1  C   UNL     1       6.801  -1.265  23.991  0.00  0.00    +0.184 C 
ENDROOT
BRANCH   1   2
ATOM      2  O   UNL     1       6.005  -1.504  22.786  0.00  0.00    -0.386 OA
ATOM      3  H   UNL     1       5.431  -0.736  22.614  0.00  0.00    +0.210 HD
ENDBRANCH   1   2
BRANCH   1   4
ATOM      4  C   UNL     1       6.696   0.265  24.130  0.00  0.00    +0.184 C 
BRANCH   4   5
ATOM      5  O   UNL     1       6.249   0.759  22.831  0.00  0.00    -0.386 OA
ATOM      6  H   UNL     1       5.981  -0.027  22.306  0.00  0.00    +0.210 HD
ENDBRANCH   4   5
BRANCH   4   7
ATOM      7  C   UNL     1       5.785   0.780  25.244  0.00  0.00    +0.235 C 
BRANCH   7  10
ATOM      8  N   UNL     1       5.884   3.195  24.827  0.00  0.00    -0.308 N 
ATOM      9  H   UNL     1       6.877   3.050  25.039  0.00  0.00    +0.149 HD
ATOM     10  C   UNL     1       5.087   2.087  24.840  0.00  0.00    +0.245 C 
ATOM     11  O   UNL     1       3.900   2.105  24.512  0.00  0.00    -0.273 OA
BRANCH   8  15
ATOM     12  C   UNL     1       5.802   6.299  22.943  0.00  0.00    +0.145 C 
ATOM     13  O   UNL     1       6.127   6.762  24.264  0.00  0.00    -0.372 OA
ATOM     14  C   UNL     1       5.890   5.670  25.173  0.00  0.00    +0.182 C 
ATOM     15  C   UNL     1       5.439   4.471  24.337  0.00  0.00    +0.101 C 
ATOM     16  C   UNL     1       6.012   4.798  22.979  0.00  0.00    +0.058 C 
BRANCH  12  17
ATOM     17  C   UNL     1       6.643   7.006  21.890  0.00  0.00    +0.187 C 
BRANCH  17  18
ATOM     18  O   UNL     1       7.582   6.099  21.325  0.00  0.00    -0.392 OA
ATOM     19  H   UNL     1       7.426   6.092  20.366  0.00  0.00    +0.210 HD
ENDBRANCH  17  18
ENDBRANCH  12  17
ENDBRANCH   8  15
ENDBRANCH   7  10
BRANCH   7  20
ATOM     20  O   UNL     1       4.879  -0.245  25.611  0.00  0.00    -0.360 OA
BRANCH  20  21
ATOM     21  C   UNL     1       5.194  -0.803  26.886  0.00  0.00    +0.196 C 
BRANCH  21  22
ATOM     22  C   UNL     1       4.162  -1.820  27.288  0.00  0.00    -0.022 A 
ATOM     23  C   UNL     1       3.247  -2.281  26.332  0.00  0.00    +0.006 A 
ATOM     24  C   UNL     1       2.259  -3.198  26.685  0.00  0.00    +0.000 A 
ATOM     25  C   UNL     1       2.165  -3.651  28.000  0.00  0.00    +0.000 A 
ATOM     26  C   UNL     1       3.053  -3.181  28.965  0.00  0.00    +0.000 A 
ATOM     27  C   UNL     1       4.042  -2.264  28.611  0.00  0.00    +0.006 A 
ENDBRANCH  21  22
ENDBRANCH  20  21
ENDBRANCH   7  20
ENDBRANCH   4   7
ENDBRANCH   1   4
BRANCH   1  28
ATOM     28  C   UNL     1       8.227  -1.887  23.877  0.00  0.00    +0.235 C 
BRANCH  28  29
ATOM     29  C   UNL     1       8.299  -3.346  24.428  0.00  0.00    +0.245 C 
ATOM     30  N   UNL     1       7.158  -3.785  25.081  0.00  0.00    -0.304 N 
ATOM     31  H   UNL     1       6.409  -3.140  25.287  0.00  0.00    +0.149 HD
ATOM     32  O   UNL     1       9.276  -4.062  24.286  0.00  0.00    -0.273 OA
BRANCH  30  33
ATOM     33  C   UNL     1       7.019  -5.143  25.611  0.00  0.00    +0.132 C 
ATOM     34  C   UNL     1       5.705  -5.722  25.144  0.00  0.00    -0.022 A 
ATOM     35  C   UNL     1       4.819  -5.937  26.201  0.00  0.00    -0.040 A 
ATOM     36  C   UNL     1       3.514  -6.350  25.965  0.00  0.00    +0.004 A 
ATOM     37  C   UNL     1       3.103  -6.549  24.646  0.00  0.00    +0.000 A 
ATOM     38  C   UNL     1       4.000  -6.366  23.587  0.00  0.00    +0.000 A 
ATOM     39  C   UNL     1       5.436  -5.634  27.526  0.00  0.00    +0.069 C 
ATOM     40  C   UNL     1       5.312  -5.958  23.835  0.00  0.00    +0.006 A 
ATOM     41  C   UNL     1       6.882  -5.220  27.170  0.00  0.00    +0.143 C 
BRANCH  41  42
ATOM     42  O   UNL     1       7.790  -6.175  27.742  0.00  0.00    -0.389 OA
ATOM     43  H   UNL     1       7.752  -6.096  28.710  0.00  0.00    +0.210 HD
ENDBRANCH  41  42
ENDBRANCH  30  33
ENDBRANCH  28  29
BRANCH  28  44
ATOM     44  O   UNL     1       8.657  -2.070  22.513  0.00  0.00    -0.360 OA
BRANCH  44  45
ATOM     45  C   UNL     1       9.956  -1.596  22.200  0.00  0.00    +0.196 C 
BRANCH  45  46
ATOM     46  C   UNL     1      10.037  -0.143  22.560  0.00  0.00    -0.022 A 
ATOM     47  C   UNL     1       9.518   0.841  21.714  0.00  0.00    +0.006 A 
ATOM     48  C   UNL     1       9.601   2.183  22.082  0.00  0.00    +0.000 A 
ATOM     49  C   UNL     1      10.195   2.546  23.292  0.00  0.00    +0.000 A 
ATOM     50  C   UNL     1      10.711   1.571  24.140  0.00  0.00    +0.000 A 
ATOM     51  C   UNL     1      10.628   0.230  23.778  0.00  0.00    +0.006 A 
ENDBRANCH  45  46
ENDBRANCH  44  45
ENDBRANCH  28  44
ENDBRANCH   1  28
TORSDOF 18
ENDMDL
MODEL 4
REMARK VINA RESULT:      -6.5      2.366      5.332
REMARK  Name = 
REMARK  18 active torsions:
REMARK  status: ('A' for Active; 'I' for Inactive)
REMARK    1  A    between atoms: O_1  and  C_2
REMARK    2  A    between atoms: C_2  and  C_3
REMARK    3  A    between atoms: C_6  and  N_10
REMARK    4  A    between atoms: C_11  and  C_13
REMARK    5  A    between atoms: C_13  and  O_15
REMARK    6  A    between atoms: C_13  and  C_23
REMARK    7  A    between atoms: O_15  and  C_16
REMARK    8  A    between atoms: C_16  and  C_17
REMARK    9  A    between atoms: C_23  and  O_25
REMARK   10  A    between atoms: C_23  and  C_26
REMARK   11  A    between atoms: C_26  and  O_28
REMARK   12  A    between atoms: C_26  and  C_29
REMARK   13  A    between atoms: C_29  and  O_31
REMARK   14  A    between atoms: C_29  and  C_39
REMARK   15  A    between atoms: O_31  and  C_32
REMARK   16  A    between atoms: C_32  and  C_33
REMARK   17  A    between atoms: N_41  and  C_42
REMARK   18  A    between atoms: C_44  and  O_46
REMARK                            x       y       z     vdW  Elec       q    Type
REMARK                         _______ _______ _______ _____ _____    ______ ____
ROOT
ATOM      1  C   UNL     1       9.019  -0.468  23.449  0.00  0.00    +0.184 C 
ENDROOT
BRANCH   1   2
ATOM      2  O   UNL     1      10.006  -0.819  24.473  0.00  0.00    -0.386 OA
ATOM      3  H   UNL     1      10.773  -0.221  24.408  0.00  0.00    +0.210 HD
ENDBRANCH   1   2
BRANCH   1   4
ATOM      4  C   UNL     1       9.158  -1.650  22.472  0.00  0.00    +0.184 C 
BRANCH   4   5
ATOM      5  O   UNL     1      10.559  -2.060  22.529  0.00  0.00    -0.386 OA
ATOM      6  H   UNL     1      10.748  -2.536  21.690  0.00  0.00    +0.210 HD
ENDBRANCH   4   5
BRANCH   4   7
ATOM      7  C   UNL     1       8.237  -2.843  22.722  0.00  0.00    +0.235 C 
BRANCH   7  10
ATOM      8  N   UNL     1       7.342  -3.273  24.966  0.00  0.00    -0.308 N 
ATOM      9  H   UNL     1       6.498  -2.857  24.557  0.00  0.00    +0.149 HD
ATOM     10  C   UNL     1       8.421  -3.406  24.139  0.00  0.00    +0.245 C 
ATOM     11  O   UNL     1       9.461  -3.973  24.474  0.00  0.00    -0.273 OA
BRANCH   8  15
ATOM     12  C   UNL     1       6.352  -5.462  27.689  0.00  0.00    +0.145 C 
ATOM     13  O   UNL     1       5.743  -4.217  28.073  0.00  0.00    -0.372 OA
ATOM     14  C   UNL     1       6.311  -3.187  27.240  0.00  0.00    +0.182 C 
ATOM     15  C   UNL     1       7.282  -3.865  26.274  0.00  0.00    +0.101 C 
ATOM     16  C   UNL     1       6.760  -5.282  26.241  0.00  0.00    +0.058 C 
BRANCH  12  17
ATOM     17  C   UNL     1       5.403  -6.630  27.915  0.00  0.00    +0.187 C 
BRANCH  17  18
ATOM     18  O   UNL     1       5.975  -7.553  28.834  0.00  0.00    -0.392 OA
ATOM     19  H   UNL     1       5.338  -8.280  28.937  0.00  0.00    +0.210 HD
ENDBRANCH  17  18
ENDBRANCH  12  17
ENDBRANCH   8  15
ENDBRANCH   7  10
BRANCH   7  20
ATOM     20  O   UNL     1       6.901  -2.463  22.443  0.00  0.00    -0.360 OA
BRANCH  20  21
ATOM     21  C   UNL     1       6.242  -3.411  21.606  0.00  0.00    +0.196 C 
BRANCH  21  22
ATOM     22  C   UNL     1       5.443  -4.381  22.432  0.00  0.00    -0.022 A 
ATOM     23  C   UNL     1       4.406  -3.899  23.241  0.00  0.00    +0.006 A 
ATOM     24  C   UNL     1       3.671  -4.771  24.042  0.00  0.00    +0.000 A 
ATOM     25  C   UNL     1       3.977  -6.131  24.055  0.00  0.00    +0.000 A 
ATOM     26  C   UNL     1       5.022  -6.619  23.274  0.00  0.00    +0.000 A 
ATOM     27  C   UNL     1       5.756  -5.746  22.472  0.00  0.00    +0.006 A 
ENDBRANCH  21  22
ENDBRANCH  20  21
ENDBRANCH   7  20
ENDBRANCH   4   7
ENDBRANCH   1   4
BRANCH   1  28
ATOM     28  C   UNL     1       9.251   0.969  22.888  0.00  0.00    +0.235 C 
BRANCH  28  29
ATOM     29  C   UNL     1       7.957   1.603  22.290  0.00  0.00    +0.245 C 
ATOM     30  N   UNL     1       7.118   2.209  23.212  0.00  0.00    -0.304 N 
ATOM     31  H   UNL     1       7.293   2.109  24.201  0.00  0.00    +0.149 HD
ATOM     32  O   UNL     1       7.699   1.588  21.097  0.00  0.00    -0.273 OA
BRANCH  30  33
ATOM     33  C   UNL     1       5.890   2.909  22.829  0.00  0.00    +0.132 C 
ATOM     34  C   UNL     1       6.183   4.384  22.700  0.00  0.00    -0.022 A 
ATOM     35  C   UNL     1       5.519   5.140  23.667  0.00  0.00    -0.040 A 
ATOM     36  C   UNL     1       5.754   6.503  23.792  0.00  0.00    +0.004 A 
ATOM     37  C   UNL     1       6.669   7.107  22.928  0.00  0.00    +0.000 A 
ATOM     38  C   UNL     1       7.311   6.356  21.935  0.00  0.00    +0.000 A 
ATOM     39  C   UNL     1       4.615   4.307  24.513  0.00  0.00    +0.069 C 
ATOM     40  C   UNL     1       7.062   4.988  21.813  0.00  0.00    +0.006 A 
ATOM     41  C   UNL     1       4.765   2.887  23.920  0.00  0.00    +0.143 C 
BRANCH  41  42
ATOM     42  O   UNL     1       3.500   2.476  23.378  0.00  0.00    -0.389 OA
ATOM     43  H   UNL     1       2.797   2.747  23.994  0.00  0.00    +0.210 HD
ENDBRANCH  41  42
ENDBRANCH  30  33
ENDBRANCH  28  29
BRANCH  28  44
ATOM     44  O   UNL     1       9.599   1.926  23.909  0.00  0.00    -0.360 OA
BRANCH  44  45
ATOM     45  C   UNL     1      10.539   2.920  23.539  0.00  0.00    +0.196 C 
BRANCH  45  46
ATOM     46  C   UNL     1      10.106   4.232  24.121  0.00  0.00    -0.022 A 
ATOM     47  C   UNL     1      10.682   5.434  23.702  0.00  0.00    +0.006 A 
ATOM     48  C   UNL     1      10.251   6.638  24.257  0.00  0.00    +0.000 A 
ATOM     49  C   UNL     1       9.244   6.647  25.224  0.00  0.00    +0.000 A 
ATOM     50  C   UNL     1       8.664   5.454  25.643  0.00  0.00    +0.000 A 
ATOM     51  C   UNL     1       9.089   4.250  25.090  0.00  0.00    +0.006 A 
ENDBRANCH  45  46
ENDBRANCH  44  45
ENDBRANCH  28  44
ENDBRANCH   1  28
TORSDOF 18
ENDMDL
MODEL 5
REMARK VINA RESULT:      -6.3      1.984      3.786
REMARK  Name = 
REMARK  18 active torsions:
REMARK  status: ('A' for Active; 'I' for Inactive)
REMARK    1  A    between atoms: O_1  and  C_2
REMARK    2  A    between atoms: C_2  and  C_3
REMARK    3  A    between atoms: C_6  and  N_10
REMARK    4  A    between atoms: C_11  and  C_13
REMARK    5  A    between atoms: C_13  and  O_15
REMARK    6  A    between atoms: C_13  and  C_23
REMARK    7  A    between atoms: O_15  and  C_16
REMARK    8  A    between atoms: C_16  and  C_17
REMARK    9  A    between atoms: C_23  and  O_25
REMARK   10  A    between atoms: C_23  and  C_26
REMARK   11  A    between atoms: C_26  and  O_28
REMARK   12  A    between atoms: C_26  and  C_29
REMARK   13  A    between atoms: C_29  and  O_31
REMARK   14  A    between atoms: C_29  and  C_39
REMARK   15  A    between atoms: O_31  and  C_32
REMARK   16  A    between atoms: C_32  and  C_33
REMARK   17  A    between atoms: N_41  and  C_42
REMARK   18  A    between atoms: C_44  and  O_46
REMARK                            x       y       z     vdW  Elec       q    Type
REMARK                         _______ _______ _______ _____ _____    ______ ____
ROOT
ATOM      1  C   UNL     1       5.472  -1.189  27.585  0.00  0.00    +0.184 C 
ENDROOT
BRANCH   1   2
ATOM      2  O   UNL     1       6.070  -2.468  27.197  0.00  0.00    -0.386 OA
ATOM      3  H   UNL     1       6.373  -2.943  27.992  0.00  0.00    +0.210 HD
ENDBRANCH   1   2
BRANCH   1   4
ATOM      4  C   UNL     1       4.184  -1.185  26.740  0.00  0.00    +0.184 C 
BRANCH   4   5
ATOM      5  O   UNL     1       4.614  -1.263  25.347  0.00  0.00    -0.386 OA
ATOM      6  H   UNL     1       5.059  -2.132  25.237  0.00  0.00    +0.210 HD
ENDBRANCH   4   5
BRANCH   4   7
ATOM      7  C   UNL     1       3.169  -2.284  27.053  0.00  0.00    +0.235 C 
BRANCH   7  10
ATOM      8  N   UNL     1       3.835  -4.254  25.750  0.00  0.00    -0.308 N 
ATOM      9  H   UNL     1       4.519  -4.351  26.509  0.00  0.00    +0.149 HD
ATOM     10  C   UNL     1       2.958  -3.212  25.848  0.00  0.00    +0.245 C 
ATOM     11  O   UNL     1       2.029  -3.036  25.059  0.00  0.00    -0.273 OA
BRANCH   8  15
ATOM     12  C   UNL     1       2.761  -7.340  24.167  0.00  0.00    +0.145 C 
ATOM     13  O   UNL     1       4.126  -7.639  24.504  0.00  0.00    -0.372 OA
ATOM     14  C   UNL     1       4.762  -6.397  24.861  0.00  0.00    +0.182 C 
ATOM     15  C   UNL     1       3.701  -5.299  24.774  0.00  0.00    +0.101 C 
ATOM     16  C   UNL     1       2.421  -6.082  24.941  0.00  0.00    +0.058 C 
BRANCH  12  17
ATOM     17  C   UNL     1       1.847  -8.515  24.481  0.00  0.00    +0.187 C 
BRANCH  17  18
ATOM     18  O   UNL     1       2.513  -9.435  25.338  0.00  0.00    -0.392 OA
ATOM     19  H   UNL     1       2.957  -8.911  26.025  0.00  0.00    +0.210 HD
ENDBRANCH  17  18
ENDBRANCH  12  17
ENDBRANCH   8  15
ENDBRANCH   7  10
BRANCH   7  20
ATOM     20  O   UNL     1       3.580  -2.973  28.221  0.00  0.00    -0.360 OA
BRANCH  20  21
ATOM     21  C   UNL     1       2.471  -3.331  29.044  0.00  0.00    +0.196 C 
BRANCH  21  22
ATOM     22  C   UNL     1       2.074  -4.761  28.804  0.00  0.00    -0.022 A 
ATOM     23  C   UNL     1       3.039  -5.769  28.928  0.00  0.00    +0.006 A 
ATOM     24  C   UNL     1       2.707  -7.100  28.679  0.00  0.00    +0.000 A 
ATOM     25  C   UNL     1       1.412  -7.434  28.288  0.00  0.00    +0.000 A 
ATOM     26  C   UNL     1       0.450  -6.438  28.137  0.00  0.00    +0.000 A 
ATOM     27  C   UNL     1       0.782  -5.107  28.388  0.00  0.00    +0.006 A 
ENDBRANCH  21  22
ENDBRANCH  20  21
ENDBRANCH   7  20
ENDBRANCH   4   7
ENDBRANCH   1   4
BRANCH   1  28
ATOM     28  C   UNL     1       6.467  -0.002  27.398  0.00  0.00    +0.235 C 
BRANCH  28  29
ATOM     29  C   UNL     1       7.860  -0.457  26.860  0.00  0.00    +0.245 C 
ATOM     30  N   UNL     1       7.874  -0.865  25.535  0.00  0.00    -0.304 N 
ATOM     31  H   UNL     1       7.008  -0.978  25.028  0.00  0.00    +0.149 HD
ATOM     32  O   UNL     1       8.872  -0.442  27.541  0.00  0.00    -0.273 OA
BRANCH  30  33
ATOM     33  C   UNL     1       9.099  -1.268  24.842  0.00  0.00    +0.132 C 
ATOM     34  C   UNL     1       9.598  -0.111  24.010  0.00  0.00    -0.022 A 
ATOM     35  C   UNL     1       9.531  -0.378  22.642  0.00  0.00    -0.040 A 
ATOM     36  C   UNL     1       9.829   0.606  21.708  0.00  0.00    +0.004 A 
ATOM     37  C   UNL     1      10.200   1.872  22.163  0.00  0.00    +0.000 A 
ATOM     38  C   UNL     1      10.301   2.131  23.536  0.00  0.00    +0.000 A 
ATOM     39  C   UNL     1       9.079  -1.772  22.360  0.00  0.00    +0.069 C 
ATOM     40  C   UNL     1      10.006   1.134  24.467  0.00  0.00    +0.006 A 
ATOM     41  C   UNL     1       8.896  -2.389  23.766  0.00  0.00    +0.143 C 
BRANCH  41  42
ATOM     42  O   UNL     1       9.836  -3.463  23.925  0.00  0.00    -0.389 OA
ATOM     43  H   UNL     1       9.684  -4.114  23.218  0.00  0.00    +0.210 HD
ENDBRANCH  41  42
ENDBRANCH  30  33
ENDBRANCH  28  29
BRANCH  28  44
ATOM     44  O   UNL     1       6.051   0.929  26.378  0.00  0.00    -0.360 OA
BRANCH  44  45
ATOM     45  C   UNL     1       6.694   2.193  26.387  0.00  0.00    +0.196 C 
BRANCH  45  46
ATOM     46  C   UNL     1       6.797   2.691  24.977  0.00  0.00    -0.022 A 
ATOM     47  C   UNL     1       7.321   3.954  24.693  0.00  0.00    +0.006 A 
ATOM     48  C   UNL     1       7.411   4.384  23.371  0.00  0.00    +0.000 A 
ATOM     49  C   UNL     1       6.985   3.557  22.330  0.00  0.00    +0.000 A 
ATOM     50  C   UNL     1       6.465   2.296  22.606  0.00  0.00    +0.000 A 
ATOM     51  C   UNL     1       6.376   1.861  23.925  0.00  0.00    +0.006 A 
ENDBRANCH  45  46
ENDBRANCH  44  45
ENDBRANCH  28  44
ENDBRANCH   1  28
TORSDOF 18
ENDMDL
MODEL 6
REMARK VINA RESULT:      -6.3      2.113      5.778
REMARK  Name = 
REMARK  18 active torsions:
REMARK  status: ('A' for Active; 'I' for Inactive)
REMARK    1  A    between atoms: O_1  and  C_2
REMARK    2  A    between atoms: C_2  and  C_3
REMARK    3  A    between atoms: C_6  and  N_10
REMARK    4  A    between atoms: C_11  and  C_13
REMARK    5  A    between atoms: C_13  and  O_15
REMARK    6  A    between atoms: C_13  and  C_23
REMARK    7  A    between atoms: O_15  and  C_16
REMARK    8  A    between atoms: C_16  and  C_17
REMARK    9  A    between atoms: C_23  and  O_25
REMARK   10  A    between atoms: C_23  and  C_26
REMARK   11  A    between atoms: C_26  and  O_28
REMARK   12  A    between atoms: C_26  and  C_29
REMARK   13  A    between atoms: C_29  and  O_31
REMARK   14  A    between atoms: C_29  and  C_39
REMARK   15  A    between atoms: O_31  and  C_32
REMARK   16  A    between atoms: C_32  and  C_33
REMARK   17  A    between atoms: N_41  and  C_42
REMARK   18  A    between atoms: C_44  and  O_46
REMARK                            x       y       z     vdW  Elec       q    Type
REMARK                         _______ _______ _______ _____ _____    ______ ____
ROOT
ATOM      1  C   UNL     1       6.793  -0.275  24.340  0.00  0.00    +0.184 C 
ENDROOT
BRANCH   1   2
ATOM      2  O   UNL     1       6.352   0.434  23.137  0.00  0.00    -0.386 OA
ATOM      3  H   UNL     1       6.744   1.326  23.120  0.00  0.00    +0.210 HD
ENDBRANCH   1   2
BRANCH   1   4
ATOM      4  C   UNL     1       6.720  -1.742  23.876  0.00  0.00    +0.184 C 
BRANCH   4   5
ATOM      5  O   UNL     1       6.159  -1.712  22.528  0.00  0.00    -0.386 OA
ATOM      6  H   UNL     1       6.109  -2.645  22.223  0.00  0.00    +0.210 HD
ENDBRANCH   4   5
BRANCH   4   7
ATOM      7  C   UNL     1       8.036  -2.520  23.895  0.00  0.00    +0.235 C 
BRANCH   7  10
ATOM      8  N   UNL     1       6.578  -4.295  24.757  0.00  0.00    -0.308 N 
ATOM      9  H   UNL     1       5.907  -3.521  24.820  0.00  0.00    +0.149 HD
ATOM     10  C   UNL     1       7.807  -3.999  24.242  0.00  0.00    +0.245 C 
ATOM     11  O   UNL     1       8.670  -4.849  24.024  0.00  0.00    -0.273 OA
BRANCH   8  15
ATOM     12  C   UNL     1       4.419  -7.209  24.949  0.00  0.00    +0.145 C 
ATOM     13  O   UNL     1       4.561  -6.853  26.335  0.00  0.00    -0.372 OA
ATOM     14  C   UNL     1       5.638  -5.900  26.425  0.00  0.00    +0.182 C 
ATOM     15  C   UNL     1       6.138  -5.641  25.003  0.00  0.00    +0.101 C 
ATOM     16  C   UNL     1       4.935  -6.015  24.171  0.00  0.00    +0.058 C 
BRANCH  12  17
ATOM     17  C   UNL     1       2.979  -7.574  24.621  0.00  0.00    +0.187 C 
BRANCH  17  18
ATOM     18  O   UNL     1       2.693  -8.890  25.078  0.00  0.00    -0.392 OA
ATOM     19  H   UNL     1       2.326  -9.379  24.321  0.00  0.00    +0.210 HD
ENDBRANCH  17  18
ENDBRANCH  12  17
ENDBRANCH   8  15
ENDBRANCH   7  10
BRANCH   7  20
ATOM     20  O   UNL     1       8.700  -2.335  22.658  0.00  0.00    -0.360 OA
BRANCH  20  21
ATOM     21  C   UNL     1      10.037  -1.871  22.837  0.00  0.00    +0.196 C 
BRANCH  21  22
ATOM     22  C   UNL     1      10.078  -0.367  22.847  0.00  0.00    -0.022 A 
ATOM     23  C   UNL     1      10.537   0.297  23.991  0.00  0.00    +0.006 A 
ATOM     24  C   UNL     1      10.554   1.691  24.040  0.00  0.00    +0.000 A 
ATOM     25  C   UNL     1      10.097   2.432  22.951  0.00  0.00    +0.000 A 
ATOM     26  C   UNL     1       9.615   1.782  21.817  0.00  0.00    +0.000 A 
ATOM     27  C   UNL     1       9.599   0.389  21.768  0.00  0.00    +0.006 A 
ENDBRANCH  21  22
ENDBRANCH  20  21
ENDBRANCH   7  20
ENDBRANCH   4   7
ENDBRANCH   1   4
BRANCH   1  28
ATOM     28  C   UNL     1       5.957   0.132  25.593  0.00  0.00    +0.235 C 
BRANCH  28  29
ATOM     29  C   UNL     1       5.294   1.537  25.450  0.00  0.00    +0.245 C 
ATOM     30  N   UNL     1       6.119   2.610  25.748  0.00  0.00    -0.304 N 
ATOM     31  H   UNL     1       7.029   2.454  26.155  0.00  0.00    +0.149 HD
ATOM     32  O   UNL     1       4.140   1.693  25.086  0.00  0.00    -0.273 OA
BRANCH  30  33
ATOM     33  C   UNL     1       5.689   4.004  25.613  0.00  0.00    +0.132 C 
ATOM     34  C   UNL     1       6.446   4.644  24.473  0.00  0.00    -0.022 A 
ATOM     35  C   UNL     1       7.306   5.651  24.912  0.00  0.00    -0.040 A 
ATOM     36  C   UNL     1       8.179   6.276  24.031  0.00  0.00    +0.004 A 
ATOM     37  C   UNL     1       8.179   5.881  22.693  0.00  0.00    +0.000 A 
ATOM     38  C   UNL     1       7.292   4.894  22.244  0.00  0.00    +0.000 A 
ATOM     39  C   UNL     1       7.182   5.901  26.378  0.00  0.00    +0.069 C 
ATOM     40  C   UNL     1       6.413   4.276  23.136  0.00  0.00    +0.006 A 
ATOM     41  C   UNL     1       6.073   4.921  26.824  0.00  0.00    +0.143 C 
BRANCH  41  42
ATOM     42  O   UNL     1       4.950   5.678  27.301  0.00  0.00    -0.389 OA
ATOM     43  H   UNL     1       4.873   5.545  28.261  0.00  0.00    +0.210 HD
ENDBRANCH  41  42
ENDBRANCH  30  33
ENDBRANCH  28  29
BRANCH  28  44
ATOM     44  O   UNL     1       4.807  -0.712  25.804  0.00  0.00    -0.360 OA
BRANCH  44  45
ATOM     45  C   UNL     1       4.843  -1.539  26.955  0.00  0.00    +0.196 C 
BRANCH  45  46
ATOM     46  C   UNL     1       3.798  -2.605  26.814  0.00  0.00    -0.022 A 
ATOM     47  C   UNL     1       3.274  -2.942  25.564  0.00  0.00    +0.006 A 
ATOM     48  C   UNL     1       2.310  -3.944  25.465  0.00  0.00    +0.000 A 
ATOM     49  C   UNL     1       1.872  -4.614  26.608  0.00  0.00    +0.000 A 
ATOM     50  C   UNL     1       2.393  -4.286  27.856  0.00  0.00    +0.000 A 
ATOM     51  C   UNL     1       3.357  -3.288  27.960  0.00  0.00    +0.006 A 
ENDBRANCH  45  46
ENDBRANCH  44  45
ENDBRANCH  28  44
ENDBRANCH   1  28
TORSDOF 18
ENDMDL
MODEL 7
REMARK VINA RESULT:      -6.2      2.014      5.872
REMARK  Name = 
REMARK  18 active torsions:
REMARK  status: ('A' for Active; 'I' for Inactive)
REMARK    1  A    between atoms: O_1  and  C_2
REMARK    2  A    between atoms: C_2  and  C_3
REMARK    3  A    between atoms: C_6  and  N_10
REMARK    4  A    between atoms: C_11  and  C_13
REMARK    5  A    between atoms: C_13  and  O_15
REMARK    6  A    between atoms: C_13  and  C_23
REMARK    7  A    between atoms: O_15  and  C_16
REMARK    8  A    between atoms: C_16  and  C_17
REMARK    9  A    between atoms: C_23  and  O_25
REMARK   10  A    between atoms: C_23  and  C_26
REMARK   11  A    between atoms: C_26  and  O_28
REMARK   12  A    between atoms: C_26  and  C_29
REMARK   13  A    between atoms: C_29  and  O_31
REMARK   14  A    between atoms: C_29  and  C_39
REMARK   15  A    between atoms: O_31  and  C_32
REMARK   16  A    between atoms: C_32  and  C_33
REMARK   17  A    between atoms: N_41  and  C_42
REMARK   18  A    between atoms: C_44  and  O_46
REMARK                            x       y       z     vdW  Elec       q    Type
REMARK                         _______ _______ _______ _____ _____    ______ ____
ROOT
ATOM      1  C   UNL     1       8.321   0.303  26.055  0.00  0.00    +0.184 C 
ENDROOT
BRANCH   1   2
ATOM      2  O   UNL     1       8.748  -0.170  27.373  0.00  0.00    -0.386 OA
ATOM      3  H   UNL     1       8.232   0.280  28.066  0.00  0.00    +0.210 HD
ENDBRANCH   1   2
BRANCH   1   4
ATOM      4  C   UNL     1       7.163  -0.663  25.742  0.00  0.00    +0.184 C 
BRANCH   4   5
ATOM      5  O   UNL     1       7.165  -1.656  26.813  0.00  0.00    -0.386 OA
ATOM      6  H   UNL     1       6.322  -2.156  26.736  0.00  0.00    +0.210 HD
ENDBRANCH   4   5
BRANCH   4   7
ATOM      7  C   UNL     1       5.779  -0.032  25.595  0.00  0.00    +0.235 C 
BRANCH   7  10
ATOM      8  N   UNL     1       4.525  -2.141  25.577  0.00  0.00    -0.308 N 
ATOM      9  H   UNL     1       5.174  -2.358  24.812  0.00  0.00    +0.149 HD
ATOM     10  C   UNL     1       4.686  -0.931  26.191  0.00  0.00    +0.245 C 
ATOM     11  O   UNL     1       4.039  -0.586  27.179  0.00  0.00    -0.273 OA
BRANCH   8  15
ATOM     12  C   UNL     1       3.342  -5.396  26.668  0.00  0.00    +0.145 C 
ATOM     13  O   UNL     1       2.653  -5.234  25.416  0.00  0.00    -0.372 OA
ATOM     14  C   UNL     1       2.792  -3.854  25.025  0.00  0.00    +0.182 C 
ATOM     15  C   UNL     1       3.654  -3.165  26.084  0.00  0.00    +0.101 C 
ATOM     16  C   UNL     1       4.415  -4.325  26.679  0.00  0.00    +0.058 C 
BRANCH  12  17
ATOM     17  C   UNL     1       3.889  -6.808  26.815  0.00  0.00    +0.187 C 
BRANCH  17  18
ATOM     18  O   UNL     1       5.304  -6.770  26.960  0.00  0.00    -0.392 OA
ATOM     19  H   UNL     1       5.510  -7.166  27.824  0.00  0.00    +0.210 HD
ENDBRANCH  17  18
ENDBRANCH  12  17
ENDBRANCH   8  15
ENDBRANCH   7  10
BRANCH   7  20
ATOM     20  O   UNL     1       5.801   1.266  26.161  0.00  0.00    -0.360 OA
BRANCH  20  21
ATOM     21  C   UNL     1       5.349   2.256  25.239  0.00  0.00    +0.196 C 
BRANCH  21  22
ATOM     22  C   UNL     1       5.786   3.627  25.678  0.00  0.00    -0.022 A 
ATOM     23  C   UNL     1       5.027   4.741  25.299  0.00  0.00    +0.006 A 
ATOM     24  C   UNL     1       5.428   6.026  25.664  0.00  0.00    +0.000 A 
ATOM     25  C   UNL     1       6.599   6.209  26.398  0.00  0.00    +0.000 A 
ATOM     26  C   UNL     1       7.375   5.111  26.759  0.00  0.00    +0.000 A 
ATOM     27  C   UNL     1       6.974   3.826  26.395  0.00  0.00    +0.006 A 
ENDBRANCH  21  22
ENDBRANCH  20  21
ENDBRANCH   7  20
ENDBRANCH   4   7
ENDBRANCH   1   4
BRANCH   1  28
ATOM     28  C   UNL     1       9.509   0.362  25.046  0.00  0.00    +0.235 C 
BRANCH  28  29
ATOM     29  C   UNL     1       9.770  -1.003  24.335  0.00  0.00    +0.245 C 
ATOM     30  N   UNL     1       9.258  -2.113  24.987  0.00  0.00    -0.304 N 
ATOM     31  H   UNL     1       8.872  -2.025  25.915  0.00  0.00    +0.149 HD
ATOM     32  O   UNL     1      10.365  -1.096  23.274  0.00  0.00    -0.273 OA
BRANCH  30  33
ATOM     33  C   UNL     1       9.352  -3.469  24.440  0.00  0.00    +0.132 C 
ATOM     34  C   UNL     1       8.094  -3.775  23.662  0.00  0.00    -0.022 A 
ATOM     35  C   UNL     1       7.339  -4.786  24.257  0.00  0.00    -0.040 A 
ATOM     36  C   UNL     1       6.088  -5.127  23.761  0.00  0.00    +0.004 A 
ATOM     37  C   UNL     1       5.597  -4.440  22.650  0.00  0.00    +0.000 A 
ATOM     38  C   UNL     1       6.368  -3.448  22.031  0.00  0.00    +0.000 A 
ATOM     39  C   UNL     1       8.019  -5.370  25.450  0.00  0.00    +0.069 C 
ATOM     40  C   UNL     1       7.628  -3.117  22.533  0.00  0.00    +0.006 A 
ATOM     41  C   UNL     1       9.360  -4.604  25.520  0.00  0.00    +0.143 C 
BRANCH  41  42
ATOM     42  O   UNL     1      10.435  -5.533  25.314  0.00  0.00    -0.389 OA
ATOM     43  H   UNL     1      10.921  -5.271  24.513  0.00  0.00    +0.210 HD
ENDBRANCH  41  42
ENDBRANCH  30  33
ENDBRANCH  28  29
BRANCH  28  44
ATOM     44  O   UNL     1       9.257   1.231  23.924  0.00  0.00    -0.360 OA
BRANCH  44  45
ATOM     45  C   UNL     1      10.010   2.432  23.884  0.00  0.00    +0.196 C 
BRANCH  45  46
ATOM     46  C   UNL     1       9.118   3.543  23.413  0.00  0.00    -0.022 A 
ATOM     47  C   UNL     1       7.974   3.279  22.656  0.00  0.00    +0.006 A 
ATOM     48  C   UNL     1       7.161   4.332  22.241  0.00  0.00    +0.000 A 
ATOM     49  C   UNL     1       7.483   5.647  22.584  0.00  0.00    +0.000 A 
ATOM     50  C   UNL     1       8.619   5.915  23.341  0.00  0.00    +0.000 A 
ATOM     51  C   UNL     1       9.433   4.867  23.759  0.00  0.00    +0.006 A 
ENDBRANCH  45  46
ENDBRANCH  44  45
ENDBRANCH  28  44
ENDBRANCH   1  28
TORSDOF 18
ENDMDL
MODEL 8
REMARK VINA RESULT:      -6.2      2.119      8.668
REMARK  Name = 
REMARK  18 active torsions:
REMARK  status: ('A' for Active; 'I' for Inactive)
REMARK    1  A    between atoms: O_1  and  C_2
REMARK    2  A    between atoms: C_2  and  C_3
REMARK    3  A    between atoms: C_6  and  N_10
REMARK    4  A    between atoms: C_11  and  C_13
REMARK    5  A    between atoms: C_13  and  O_15
REMARK    6  A    between atoms: C_13  and  C_23
REMARK    7  A    between atoms: O_15  and  C_16
REMARK    8  A    between atoms: C_16  and  C_17
REMARK    9  A    between atoms: C_23  and  O_25
REMARK   10  A    between atoms: C_23  and  C_26
REMARK   11  A    between atoms: C_26  and  O_28
REMARK   12  A    between atoms: C_26  and  C_29
REMARK   13  A    between atoms: C_29  and  O_31
REMARK   14  A    between atoms: C_29  and  C_39
REMARK   15  A    between atoms: O_31  and  C_32
REMARK   16  A    between atoms: C_32  and  C_33
REMARK   17  A    between atoms: N_41  and  C_42
REMARK   18  A    between atoms: C_44  and  O_46
REMARK                            x       y       z     vdW  Elec       q    Type
REMARK                         _______ _______ _______ _____ _____    ______ ____
ROOT
ATOM      1  C   UNL     1       7.424  -4.255  24.199  0.00  0.00    +0.184 C 
ENDROOT
BRANCH   1   2
ATOM      2  O   UNL     1       7.689  -3.479  25.411  0.00  0.00    -0.386 OA
ATOM      3  H   UNL     1       8.272  -3.986  26.005  0.00  0.00    +0.210 HD
ENDBRANCH   1   2
BRANCH   1   4
ATOM      4  C   UNL     1       6.836  -3.178  23.268  0.00  0.00    +0.184 C 
BRANCH   4   5
ATOM      5  O   UNL     1       5.518  -2.854  23.806  0.00  0.00    -0.386 OA
ATOM      6  H   UNL     1       5.179  -2.092  23.284  0.00  0.00    +0.210 HD
ENDBRANCH   4   5
BRANCH   4   7
ATOM      7  C   UNL     1       7.673  -1.911  23.091  0.00  0.00    +0.235 C 
BRANCH   7  10
ATOM      8  N   UNL     1       6.982  -0.714  25.118  0.00  0.00    -0.308 N 
ATOM      9  H   UNL     1       7.455  -1.500  25.576  0.00  0.00    +0.149 HD
ATOM     10  C   UNL     1       7.001  -0.699  23.753  0.00  0.00    +0.245 C 
ATOM     11  O   UNL     1       6.554   0.232  23.082  0.00  0.00    -0.273 OA
BRANCH   8  15
ATOM     12  C   UNL     1       6.677   1.632  27.873  0.00  0.00    +0.145 C 
ATOM     13  O   UNL     1       5.465   0.868  27.999  0.00  0.00    -0.372 OA
ATOM     14  C   UNL     1       5.311   0.105  26.786  0.00  0.00    +0.182 C 
ATOM     15  C   UNL     1       6.526   0.399  25.905  0.00  0.00    +0.101 C 
ATOM     16  C   UNL     1       7.553   0.846  26.919  0.00  0.00    +0.058 C 
BRANCH  12  17
ATOM     17  C   UNL     1       7.319   1.872  29.232  0.00  0.00    +0.187 C 
BRANCH  17  18
ATOM     18  O   UNL     1       8.317   0.890  29.480  0.00  0.00    -0.392 OA
ATOM     19  H   UNL     1       8.460   0.869  30.441  0.00  0.00    +0.210 HD
ENDBRANCH  17  18
ENDBRANCH  12  17
ENDBRANCH   8  15
ENDBRANCH   7  10
BRANCH   7  20
ATOM     20  O   UNL     1       8.983  -2.152  23.570  0.00  0.00    -0.360 OA
BRANCH  20  21
ATOM     21  C   UNL     1       9.976  -1.645  22.680  0.00  0.00    +0.196 C 
BRANCH  21  22
ATOM     22  C   UNL     1      10.125  -0.158  22.846  0.00  0.00    -0.022 A 
ATOM     23  C   UNL     1       9.813   0.685  21.771  0.00  0.00    +0.006 A 
ATOM     24  C   UNL     1       9.973   2.065  21.886  0.00  0.00    +0.000 A 
ATOM     25  C   UNL     1      10.460   2.614  23.071  0.00  0.00    +0.000 A 
ATOM     26  C   UNL     1      10.797   1.785  24.138  0.00  0.00    +0.000 A 
ATOM     27  C   UNL     1      10.636   0.405  24.023  0.00  0.00    +0.006 A 
ENDBRANCH  21  22
ENDBRANCH  20  21
ENDBRANCH   7  20
ENDBRANCH   4   7
ENDBRANCH   1   4
BRANCH   1  28
ATOM     28  C   UNL     1       6.550  -5.513  24.495  0.00  0.00    +0.235 C 
BRANCH  28  29
ATOM     29  C   UNL     1       5.995  -5.538  25.953  0.00  0.00    +0.245 C 
ATOM     30  N   UNL     1       4.946  -4.666  26.198  0.00  0.00    -0.304 N 
ATOM     31  H   UNL     1       4.677  -3.985  25.503  0.00  0.00    +0.149 HD
ATOM     32  O   UNL     1       6.434  -6.277  26.819  0.00  0.00    -0.273 OA
BRANCH  30  33
ATOM     33  C   UNL     1       4.259  -4.593  27.489  0.00  0.00    +0.132 C 
ATOM     34  C   UNL     1       2.978  -5.389  27.411  0.00  0.00    -0.022 A 
ATOM     35  C   UNL     1       1.847  -4.578  27.518  0.00  0.00    -0.040 A 
ATOM     36  C   UNL     1       0.573  -5.105  27.348  0.00  0.00    +0.004 A 
ATOM     37  C   UNL     1       0.443  -6.466  27.068  0.00  0.00    +0.000 A 
ATOM     38  C   UNL     1       1.575  -7.287  26.994  0.00  0.00    +0.000 A 
ATOM     39  C   UNL     1       2.197  -3.152  27.782  0.00  0.00    +0.069 C 
ATOM     40  C   UNL     1       2.851  -6.749  27.174  0.00  0.00    +0.006 A 
ATOM     41  C   UNL     1       3.741  -3.163  27.868  0.00  0.00    +0.143 C 
BRANCH  41  42
ATOM     42  O   UNL     1       4.133  -2.785  29.197  0.00  0.00    -0.389 OA
ATOM     43  H   UNL     1       4.841  -2.121  29.132  0.00  0.00    +0.210 HD
ENDBRANCH  41  42
ENDBRANCH  30  33
ENDBRANCH  28  29
BRANCH  28  44
ATOM     44  O   UNL     1       5.335  -5.553  23.721  0.00  0.00    -0.360 OA
BRANCH  44  45
ATOM     45  C   UNL     1       4.635  -6.787  23.721  0.00  0.00    +0.196 C 
BRANCH  45  46
ATOM     46  C   UNL     1       3.167  -6.507  23.600  0.00  0.00    -0.022 A 
ATOM     47  C   UNL     1       2.249  -7.540  23.397  0.00  0.00    +0.006 A 
ATOM     48  C   UNL     1       0.890  -7.249  23.298  0.00  0.00    +0.000 A 
ATOM     49  C   UNL     1       0.443  -5.931  23.406  0.00  0.00    +0.000 A 
ATOM     50  C   UNL     1       1.352  -4.897  23.611  0.00  0.00    +0.000 A 
ATOM     51  C   UNL     1       2.710  -5.184  23.714  0.00  0.00    +0.006 A 
ENDBRANCH  45  46
ENDBRANCH  44  45
ENDBRANCH  28  44
ENDBRANCH   1  28
TORSDOF 18
ENDMDL
MODEL 9
REMARK VINA RESULT:      -6.2      2.638      5.189
REMARK  Name = 
REMARK  18 active torsions:
REMARK  status: ('A' for Active; 'I' for Inactive)
REMARK    1  A    between atoms: O_1  and  C_2
REMARK    2  A    between atoms: C_2  and  C_3
REMARK    3  A    between atoms: C_6  and  N_10
REMARK    4  A    between atoms: C_11  and  C_13
REMARK    5  A    between atoms: C_13  and  O_15
REMARK    6  A    between atoms: C_13  and  C_23
REMARK    7  A    between atoms: O_15  and  C_16
REMARK    8  A    between atoms: C_16  and  C_17
REMARK    9  A    between atoms: C_23  and  O_25
REMARK   10  A    between atoms: C_23  and  C_26
REMARK   11  A    between atoms: C_26  and  O_28
REMARK   12  A    between atoms: C_26  and  C_29
REMARK   13  A    between atoms: C_29  and  O_31
REMARK   14  A    between atoms: C_29  and  C_39
REMARK   15  A    between atoms: O_31  and  C_32
REMARK   16  A    between atoms: C_32  and  C_33
REMARK   17  A    between atoms: N_41  and  C_42
REMARK   18  A    between atoms: C_44  and  O_46
REMARK                            x       y       z     vdW  Elec       q    Type
REMARK                         _______ _______ _______ _____ _____    ______ ____
ROOT
ATOM      1  C   UNL     1       6.970  -0.080  24.144  0.00  0.00    +0.184 C 
ENDROOT
BRANCH   1   2
ATOM      2  O   UNL     1       6.426   0.172  22.808  0.00  0.00    -0.386 OA
ATOM      3  H   UNL     1       5.644   0.748  22.875  0.00  0.00    +0.210 HD
ENDBRANCH   1   2
BRANCH   1   4
ATOM      4  C   UNL     1       6.801  -1.607  24.261  0.00  0.00    +0.184 C 
BRANCH   4   5
ATOM      5  O   UNL     1       5.687  -1.959  23.385  0.00  0.00    -0.386 OA
ATOM      6  H   UNL     1       5.194  -2.682  23.833  0.00  0.00    +0.210 HD
ENDBRANCH   4   5
BRANCH   4   7
ATOM      7  C   UNL     1       8.034  -2.448  23.929  0.00  0.00    +0.235 C 
BRANCH   7  10
ATOM      8  N   UNL     1       6.722  -4.209  25.025  0.00  0.00    -0.308 N 
ATOM      9  H   UNL     1       6.154  -3.407  25.321  0.00  0.00    +0.149 HD
ATOM     10  C   UNL     1       7.791  -3.937  24.220  0.00  0.00    +0.245 C 
ATOM     11  O   UNL     1       8.497  -4.811  23.717  0.00  0.00    -0.273 OA
BRANCH   8  15
ATOM     12  C   UNL     1       4.559  -7.124  25.122  0.00  0.00    +0.145 C 
ATOM     13  O   UNL     1       4.553  -6.704  26.497  0.00  0.00    -0.372 OA
ATOM     14  C   UNL     1       5.613  -5.742  26.657  0.00  0.00    +0.182 C 
ATOM     15  C   UNL     1       6.260  -5.544  25.285  0.00  0.00    +0.101 C 
ATOM     16  C   UNL     1       5.153  -5.963  24.348  0.00  0.00    +0.058 C 
BRANCH  12  17
ATOM     17  C   UNL     1       3.162  -7.513  24.659  0.00  0.00    +0.187 C 
BRANCH  17  18
ATOM     18  O   UNL     1       2.711  -8.654  25.378  0.00  0.00    -0.392 OA
ATOM     19  H   UNL     1       2.489  -8.353  26.276  0.00  0.00    +0.210 HD
ENDBRANCH  17  18
ENDBRANCH  12  17
ENDBRANCH   8  15
ENDBRANCH   7  10
BRANCH   7  20
ATOM     20  O   UNL     1       8.417  -2.197  22.589  0.00  0.00    -0.360 OA
BRANCH  20  21
ATOM     21  C   UNL     1       9.803  -1.872  22.485  0.00  0.00    +0.196 C 
BRANCH  21  22
ATOM     22  C   UNL     1      10.028  -0.418  22.795  0.00  0.00    -0.022 A 
ATOM     23  C   UNL     1       9.772   0.540  21.805  0.00  0.00    +0.006 A 
ATOM     24  C   UNL     1      10.004   1.893  22.054  0.00  0.00    +0.000 A 
ATOM     25  C   UNL     1      10.510   2.297  23.289  0.00  0.00    +0.000 A 
ATOM     26  C   UNL     1      10.792   1.351  24.272  0.00  0.00    +0.000 A 
ATOM     27  C   UNL     1      10.558  -0.000  24.023  0.00  0.00    +0.006 A 
ENDBRANCH  21  22
ENDBRANCH  20  21
ENDBRANCH   7  20
ENDBRANCH   4   7
ENDBRANCH   1   4
BRANCH   1  28
ATOM     28  C   UNL     1       6.286   0.810  25.227  0.00  0.00    +0.235 C 
BRANCH  28  29
ATOM     29  C   UNL     1       6.978   2.199  25.397  0.00  0.00    +0.245 C 
ATOM     30  N   UNL     1       6.902   3.033  24.294  0.00  0.00    -0.304 N 
ATOM     31  H   UNL     1       6.539   2.687  23.418  0.00  0.00    +0.149 HD
ATOM     32  O   UNL     1       7.534   2.541  26.428  0.00  0.00    -0.273 OA
BRANCH  30  33
ATOM     33  C   UNL     1       7.440   4.395  24.290  0.00  0.00    +0.132 C 
ATOM     34  C   UNL     1       6.338   5.362  24.651  0.00  0.00    -0.022 A 
ATOM     35  C   UNL     1       6.007   6.205  23.590  0.00  0.00    -0.040 A 
ATOM     36  C   UNL     1       4.935   7.082  23.683  0.00  0.00    +0.004 A 
ATOM     37  C   UNL     1       4.191   7.108  24.864  0.00  0.00    +0.000 A 
ATOM     38  C   UNL     1       4.542   6.286  25.942  0.00  0.00    +0.000 A 
ATOM     39  C   UNL     1       6.896   6.000  22.408  0.00  0.00    +0.069 C 
ATOM     40  C   UNL     1       5.627   5.413  25.841  0.00  0.00    +0.006 A 
ATOM     41  C   UNL     1       7.887   4.912  22.880  0.00  0.00    +0.143 C 
BRANCH  41  42
ATOM     42  O   UNL     1       9.209   5.471  22.907  0.00  0.00    -0.389 OA
ATOM     43  H   UNL     1       9.847   4.766  22.698  0.00  0.00    +0.210 HD
ENDBRANCH  41  42
ENDBRANCH  30  33
ENDBRANCH  28  29
BRANCH  28  44
ATOM     44  O   UNL     1       4.942   1.197  24.874  0.00  0.00    -0.360 OA
BRANCH  44  45
ATOM     45  C   UNL     1       4.198   1.859  25.883  0.00  0.00    +0.196 C 
BRANCH  45  46
ATOM     46  C   UNL     1       3.265   2.835  25.231  0.00  0.00    -0.022 A 
ATOM     47  C   UNL     1       2.235   3.442  25.953  0.00  0.00    +0.006 A 
ATOM     48  C   UNL     1       1.389   4.352  25.320  0.00  0.00    +0.000 A 
ATOM     49  C   UNL     1       1.572   4.661  23.971  0.00  0.00    +0.000 A 
ATOM     50  C   UNL     1       2.598   4.062  23.247  0.00  0.00    +0.000 A 
ATOM     51  C   UNL     1       3.446   3.155  23.876  0.00  0.00    +0.006 A 
ENDBRANCH  45  46
ENDBRANCH  44  45
ENDBRANCH  28  44
ENDBRANCH   1  28
TORSDOF 18
ENDMDL
