MODEL 1
REMARK VINA RESULT:      -5.5      0.000      0.000
REMARK  Name = 
REMARK  12 active torsions:
REMARK  status: ('A' for Active; 'I' for Inactive)
REMARK    1  A    between atoms: C_1  and  N_2
REMARK    2  A    between atoms: N_2  and  C_3
REMARK    3  A    between atoms: N_2  and  C_14
REMARK    4  A    between atoms: C_3  and  C_4
REMARK    5  A    between atoms: C_4  and  O_5
REMARK    6  A    between atoms: O_5  and  P_6
REMARK    7  A    between atoms: P_6  and  O_9
REMARK    8  A    between atoms: O_9  and  P_10
REMARK    9  A    between atoms: C_14  and  C_15
REMARK   10  A    between atoms: C_15  and  C_16
REMARK   11  A    between atoms: C_17  and  C_18
REMARK   12  A    between atoms: C_17  and  C_19
REMARK                            x       y       z     vdW  Elec       q    Type
REMARK                         _______ _______ _______ _____ _____    ______ ____
ROOT
ATOM      1  C   UNL     1       6.856  -2.619  22.965  0.00  0.00    +0.183 C 
ENDROOT
BRANCH   1   2
ATOM      2  C   UNL     1       7.829  -1.453  22.706  0.00  0.00    +0.112 C 
BRANCH   2   4
ATOM      3  C   UNL     1      10.075  -2.015  23.368  0.00  0.00    +0.105 C 
ATOM      4  N   UNL     1       9.203  -1.813  22.200  0.00  0.00    -0.303 NA
BRANCH   4   5
ATOM      5  C   UNL     1       9.660  -0.645  21.409  0.00  0.00    +0.088 C 
BRANCH   5   6
ATOM      6  C   UNL     1       8.861   0.633  21.694  0.00  0.00    +0.042 C 
BRANCH   6   7
ATOM      7  C   UNL     1       9.749   1.809  22.017  0.00  0.00    -0.027 C 
ATOM      8  C   UNL     1      10.143   2.204  23.244  0.00  0.00    -0.080 C 
ATOM      9  C   UNL     1      11.057   3.384  23.420  0.00  0.00    +0.038 C 
ATOM     10  C   UNL     1       9.695   1.560  24.529  0.00  0.00    +0.038 C 
ENDBRANCH   6   7
ENDBRANCH   5   6
ENDBRANCH   4   5
ENDBRANCH   2   4
ENDBRANCH   1   2
BRANCH   1  11
ATOM     11  O   UNL     1       7.189  -3.775  22.224  0.00  0.00    -0.326 OA
BRANCH  11  12
ATOM     12  P   UNL     1       7.054  -5.257  22.989  0.00  0.00    +0.215 P 
ATOM     13  O   UNL     1       6.929  -6.062  21.463  0.00  0.00    -0.437 OA
ATOM     14  O   UNL     1       5.536  -5.478  23.310  0.00  0.00    -0.517 OA
BRANCH  12  15
ATOM     15  O   UNL     1       7.179  -4.452  24.515  0.00  0.00    -0.314 OA
BRANCH  15  16
ATOM     16  P   UNL     1       8.356  -4.885  25.565  0.00  0.00    -0.007 P 
ATOM     17  O   UNL     1       8.821  -3.597  26.234  0.00  0.00    -0.637 OA
ATOM     18  O   UNL     1       9.436  -5.550  24.718  0.00  0.00    -0.577 OA
ATOM     19  O   UNL     1       7.674  -5.847  26.540  0.00  0.00    -0.577 OA
ENDBRANCH  15  16
ENDBRANCH  12  15
ENDBRANCH  11  12
ENDBRANCH   1  11
TORSDOF 9
ENDMDL
MODEL 2
REMARK VINA RESULT:      -5.3      2.955      4.602
REMARK  Name = 
REMARK  12 active torsions:
REMARK  status: ('A' for Active; 'I' for Inactive)
REMARK    1  A    between atoms: C_1  and  N_2
REMARK    2  A    between atoms: N_2  and  C_3
REMARK    3  A    between atoms: N_2  and  C_14
REMARK    4  A    between atoms: C_3  and  C_4
REMARK    5  A    between atoms: C_4  and  O_5
REMARK    6  A    between atoms: O_5  and  P_6
REMARK    7  A    between atoms: P_6  and  O_9
REMARK    8  A    between atoms: O_9  and  P_10
REMARK    9  A    between atoms: C_14  and  C_15
REMARK   10  A    between atoms: C_15  and  C_16
REMARK   11  A    between atoms: C_17  and  C_18
REMARK   12  A    between atoms: C_17  and  C_19
REMARK                            x       y       z     vdW  Elec       q    Type
REMARK                         _______ _______ _______ _____ _____    ______ ____
ROOT
ATOM      1  C   UNL     1       7.884  -5.216  26.565  0.00  0.00    +0.183 C 
ENDROOT
BRANCH   1   2
ATOM      2  C   UNL     1       7.503  -3.727  26.460  0.00  0.00    +0.112 C 
BRANCH   2   4
ATOM      3  C   UNL     1       8.321  -1.471  26.649  0.00  0.00    +0.105 C 
ATOM      4  N   UNL     1       8.586  -2.775  26.022  0.00  0.00    -0.303 NA
BRANCH   4   5
ATOM      5  C   UNL     1       8.464  -2.676  24.548  0.00  0.00    +0.088 C 
BRANCH   5   6
ATOM      6  C   UNL     1       9.802  -2.413  23.844  0.00  0.00    +0.042 C 
BRANCH   6   7
ATOM      7  C   UNL     1       9.742  -1.226  22.915  0.00  0.00    -0.027 C 
ATOM      8  C   UNL     1      10.151   0.030  23.189  0.00  0.00    -0.080 C 
ATOM      9  C   UNL     1      10.058   1.116  22.156  0.00  0.00    +0.038 C 
ATOM     10  C   UNL     1      10.687   0.476  24.523  0.00  0.00    +0.038 C 
ENDBRANCH   6   7
ENDBRANCH   5   6
ENDBRANCH   4   5
ENDBRANCH   2   4
ENDBRANCH   1   2
BRANCH   1  11
ATOM     11  O   UNL     1       7.500  -5.785  27.800  0.00  0.00    -0.326 OA
BRANCH  11  12
ATOM     12  P   UNL     1       5.866  -6.001  28.085  0.00  0.00    +0.215 P 
ATOM     13  O   UNL     1       6.029  -5.338  29.675  0.00  0.00    -0.437 OA
ATOM     14  O   UNL     1       5.678  -7.457  28.634  0.00  0.00    -0.517 OA
BRANCH  12  15
ATOM     15  O   UNL     1       5.702  -6.663  26.495  0.00  0.00    -0.314 OA
BRANCH  15  16
ATOM     16  P   UNL     1       4.329  -6.402  25.646  0.00  0.00    -0.007 P 
ATOM     17  O   UNL     1       3.260  -6.041  26.670  0.00  0.00    -0.637 OA
ATOM     18  O   UNL     1       4.047  -7.709  24.912  0.00  0.00    -0.577 OA
ATOM     19  O   UNL     1       4.667  -5.242  24.706  0.00  0.00    -0.577 OA
ENDBRANCH  15  16
ENDBRANCH  12  15
ENDBRANCH  11  12
ENDBRANCH   1  11
TORSDOF 9
ENDMDL
MODEL 3
REMARK VINA RESULT:      -5.2      1.220      1.903
REMARK  Name = 
REMARK  12 active torsions:
REMARK  status: ('A' for Active; 'I' for Inactive)
REMARK    1  A    between atoms: C_1  and  N_2
REMARK    2  A    between atoms: N_2  and  C_3
REMARK    3  A    between atoms: N_2  and  C_14
REMARK    4  A    between atoms: C_3  and  C_4
REMARK    5  A    between atoms: C_4  and  O_5
REMARK    6  A    between atoms: O_5  and  P_6
REMARK    7  A    between atoms: P_6  and  O_9
REMARK    8  A    between atoms: O_9  and  P_10
REMARK    9  A    between atoms: C_14  and  C_15
REMARK   10  A    between atoms: C_15  and  C_16
REMARK   11  A    between atoms: C_17  and  C_18
REMARK   12  A    between atoms: C_17  and  C_19
REMARK                            x       y       z     vdW  Elec       q    Type
REMARK                         _______ _______ _______ _____ _____    ______ ____
ROOT
ATOM      1  C   UNL     1       7.173  -2.446  22.766  0.00  0.00    +0.183 C 
ENDROOT
BRANCH   1   2
ATOM      2  C   UNL     1       8.117  -1.398  23.385  0.00  0.00    +0.112 C 
BRANCH   2   4
ATOM      3  C   UNL     1       6.911   0.500  24.244  0.00  0.00    +0.105 C 
ATOM      4  N   UNL     1       7.644  -0.712  24.641  0.00  0.00    -0.303 NA
BRANCH   4   5
ATOM      5  C   UNL     1       8.871  -0.354  25.392  0.00  0.00    +0.088 C 
BRANCH   5   6
ATOM      6  C   UNL     1      10.115  -0.231  24.501  0.00  0.00    +0.042 C 
BRANCH   6   7
ATOM      7  C   UNL     1      10.610   1.190  24.394  0.00  0.00    -0.027 C 
ATOM      8  C   UNL     1      10.490   2.004  23.326  0.00  0.00    -0.080 C 
ATOM      9  C   UNL     1      11.007   3.413  23.366  0.00  0.00    +0.038 C 
ATOM     10  C   UNL     1       9.887   1.594  22.009  0.00  0.00    +0.038 C 
ENDBRANCH   6   7
ENDBRANCH   5   6
ENDBRANCH   4   5
ENDBRANCH   2   4
ENDBRANCH   1   2
BRANCH   1  11
ATOM     11  O   UNL     1       7.843  -3.644  22.429  0.00  0.00    -0.326 OA
BRANCH  11  12
ATOM     12  P   UNL     1       7.218  -5.080  23.019  0.00  0.00    +0.215 P 
ATOM     13  O   UNL     1       7.209  -5.759  21.428  0.00  0.00    -0.437 OA
ATOM     14  O   UNL     1       5.658  -4.932  23.042  0.00  0.00    -0.517 OA
BRANCH  12  15
ATOM     15  O   UNL     1       7.229  -4.401  24.610  0.00  0.00    -0.314 OA
BRANCH  15  16
ATOM     16  P   UNL     1       8.356  -4.887  25.691  0.00  0.00    -0.007 P 
ATOM     17  O   UNL     1       8.745  -3.646  26.484  0.00  0.00    -0.637 OA
ATOM     18  O   UNL     1       9.500  -5.457  24.860  0.00  0.00    -0.577 OA
ATOM     19  O   UNL     1       7.647  -5.940  26.546  0.00  0.00    -0.577 OA
ENDBRANCH  15  16
ENDBRANCH  12  15
ENDBRANCH  11  12
ENDBRANCH   1  11
TORSDOF 9
ENDMDL
MODEL 4
REMARK VINA RESULT:      -5.2      1.578      3.295
REMARK  Name = 
REMARK  12 active torsions:
REMARK  status: ('A' for Active; 'I' for Inactive)
REMARK    1  A    between atoms: C_1  and  N_2
REMARK    2  A    between atoms: N_2  and  C_3
REMARK    3  A    between atoms: N_2  and  C_14
REMARK    4  A    between atoms: C_3  and  C_4
REMARK    5  A    between atoms: C_4  and  O_5
REMARK    6  A    between atoms: O_5  and  P_6
REMARK    7  A    between atoms: P_6  and  O_9
REMARK    8  A    between atoms: O_9  and  P_10
REMARK    9  A    between atoms: C_14  and  C_15
REMARK   10  A    between atoms: C_15  and  C_16
REMARK   11  A    between atoms: C_17  and  C_18
REMARK   12  A    between atoms: C_17  and  C_19
REMARK                            x       y       z     vdW  Elec       q    Type
REMARK                         _______ _______ _______ _____ _____    ______ ____
ROOT
ATOM      1  C   UNL     1       8.534  -2.600  23.261  0.00  0.00    +0.183 C 
ENDROOT
BRANCH   1   2
ATOM      2  C   UNL     1      10.008  -2.225  23.503  0.00  0.00    +0.112 C 
BRANCH   2   4
ATOM      3  C   UNL     1       9.915  -0.049  24.528  0.00  0.00    +0.105 C 
ATOM      4  N   UNL     1      10.379  -0.774  23.335  0.00  0.00    -0.303 NA
BRANCH   4   5
ATOM      5  C   UNL     1       9.651  -0.309  22.130  0.00  0.00    +0.088 C 
BRANCH   5   6
ATOM      6  C   UNL     1       9.825   1.190  21.855  0.00  0.00    +0.042 C 
BRANCH   6   7
ATOM      7  C   UNL     1       8.506   1.908  21.709  0.00  0.00    -0.027 C 
ATOM      8  C   UNL     1       8.071   2.947  22.450  0.00  0.00    -0.080 C 
ATOM      9  C   UNL     1       6.740   3.588  22.176  0.00  0.00    +0.038 C 
ATOM     10  C   UNL     1       8.822   3.533  23.616  0.00  0.00    +0.038 C 
ENDBRANCH   6   7
ENDBRANCH   5   6
ENDBRANCH   4   5
ENDBRANCH   2   4
ENDBRANCH   1   2
BRANCH   1  11
ATOM     11  O   UNL     1       7.913  -3.125  24.416  0.00  0.00    -0.326 OA
BRANCH  11  12
ATOM     12  P   UNL     1       7.590  -4.766  24.450  0.00  0.00    +0.215 P 
ATOM     13  O   UNL     1       7.894  -4.817  26.153  0.00  0.00    -0.437 OA
ATOM     14  O   UNL     1       8.928  -5.510  24.117  0.00  0.00    -0.517 OA
BRANCH  12  15
ATOM     15  O   UNL     1       7.285  -4.716  22.748  0.00  0.00    -0.314 OA
BRANCH  15  16
ATOM     16  P   UNL     1       5.800  -5.097  22.179  0.00  0.00    -0.007 P 
ATOM     17  O   UNL     1       4.967  -3.825  22.281  0.00  0.00    -0.637 OA
ATOM     18  O   UNL     1       5.295  -6.224  23.074  0.00  0.00    -0.577 OA
ATOM     19  O   UNL     1       6.039  -5.536  20.732  0.00  0.00    -0.577 OA
ENDBRANCH  15  16
ENDBRANCH  12  15
ENDBRANCH  11  12
ENDBRANCH   1  11
TORSDOF 9
ENDMDL
MODEL 5
REMARK VINA RESULT:      -5.2      3.747      5.872
REMARK  Name = 
REMARK  12 active torsions:
REMARK  status: ('A' for Active; 'I' for Inactive)
REMARK    1  A    between atoms: C_1  and  N_2
REMARK    2  A    between atoms: N_2  and  C_3
REMARK    3  A    between atoms: N_2  and  C_14
REMARK    4  A    between atoms: C_3  and  C_4
REMARK    5  A    between atoms: C_4  and  O_5
REMARK    6  A    between atoms: O_5  and  P_6
REMARK    7  A    between atoms: P_6  and  O_9
REMARK    8  A    between atoms: O_9  and  P_10
REMARK    9  A    between atoms: C_14  and  C_15
REMARK   10  A    between atoms: C_15  and  C_16
REMARK   11  A    between atoms: C_17  and  C_18
REMARK   12  A    between atoms: C_17  and  C_19
REMARK                            x       y       z     vdW  Elec       q    Type
REMARK                         _______ _______ _______ _____ _____    ______ ____
ROOT
ATOM      1  C   UNL     1       7.870  -5.255  26.683  0.00  0.00    +0.183 C 
ENDROOT
BRANCH   1   2
ATOM      2  C   UNL     1       7.614  -3.736  26.647  0.00  0.00    +0.112 C 
BRANCH   2   4
ATOM      3  C   UNL     1       8.131  -1.553  25.773  0.00  0.00    +0.105 C 
ATOM      4  N   UNL     1       8.706  -2.875  26.064  0.00  0.00    -0.303 NA
BRANCH   4   5
ATOM      5  C   UNL     1       9.123  -3.546  24.809  0.00  0.00    +0.088 C 
BRANCH   5   6
ATOM      6  C   UNL     1       8.185  -3.262  23.628  0.00  0.00    +0.042 C 
BRANCH   6   7
ATOM      7  C   UNL     1       7.649  -4.525  23.001  0.00  0.00    -0.027 C 
ATOM      8  C   UNL     1       6.615  -4.618  22.140  0.00  0.00    -0.080 C 
ATOM      9  C   UNL     1       6.203  -5.944  21.567  0.00  0.00    +0.038 C 
ATOM     10  C   UNL     1       5.764  -3.455  21.707  0.00  0.00    +0.038 C 
ENDBRANCH   6   7
ENDBRANCH   5   6
ENDBRANCH   4   5
ENDBRANCH   2   4
ENDBRANCH   1   2
BRANCH   1  11
ATOM     11  O   UNL     1       7.429  -5.848  27.887  0.00  0.00    -0.326 OA
BRANCH  11  12
ATOM     12  P   UNL     1       5.781  -6.037  28.106  0.00  0.00    +0.215 P 
ATOM     13  O   UNL     1       5.885  -5.340  29.686  0.00  0.00    -0.437 OA
ATOM     14  O   UNL     1       5.551  -7.477  28.679  0.00  0.00    -0.517 OA
BRANCH  12  15
ATOM     15  O   UNL     1       5.677  -6.733  26.525  0.00  0.00    -0.314 OA
BRANCH  15  16
ATOM     16  P   UNL     1       4.383  -6.407  25.580  0.00  0.00    -0.007 P 
ATOM     17  O   UNL     1       4.364  -7.483  24.502  0.00  0.00    -0.637 OA
ATOM     18  O   UNL     1       4.621  -5.005  25.030  0.00  0.00    -0.577 OA
ATOM     19  O   UNL     1       3.181  -6.489  26.523  0.00  0.00    -0.577 OA
ENDBRANCH  15  16
ENDBRANCH  12  15
ENDBRANCH  11  12
ENDBRANCH   1  11
TORSDOF 9
ENDMDL
MODEL 6
REMARK VINA RESULT:      -5.2      1.598      3.519
REMARK  Name = 
REMARK  12 active torsions:
REMARK  status: ('A' for Active; 'I' for Inactive)
REMARK    1  A    between atoms: C_1  and  N_2
REMARK    2  A    between atoms: N_2  and  C_3
REMARK    3  A    between atoms: N_2  and  C_14
REMARK    4  A    between atoms: C_3  and  C_4
REMARK    5  A    between atoms: C_4  and  O_5
REMARK    6  A    between atoms: O_5  and  P_6
REMARK    7  A    between atoms: P_6  and  O_9
REMARK    8  A    between atoms: O_9  and  P_10
REMARK    9  A    between atoms: C_14  and  C_15
REMARK   10  A    between atoms: C_15  and  C_16
REMARK   11  A    between atoms: C_17  and  C_18
REMARK   12  A    between atoms: C_17  and  C_19
REMARK                            x       y       z     vdW  Elec       q    Type
REMARK                         _______ _______ _______ _____ _____    ______ ____
ROOT
ATOM      1  C   UNL     1       8.558  -3.033  26.043  0.00  0.00    +0.183 C 
ENDROOT
BRANCH   1   2
ATOM      2  C   UNL     1       8.614  -1.494  25.989  0.00  0.00    +0.112 C 
BRANCH   2   4
ATOM      3  C   UNL     1       9.867  -1.938  23.981  0.00  0.00    +0.105 C 
ATOM      4  N   UNL     1       9.183  -0.877  24.737  0.00  0.00    -0.303 NA
BRANCH   4   5
ATOM      5  C   UNL     1      10.158   0.142  25.196  0.00  0.00    +0.088 C 
BRANCH   5   6
ATOM      6  C   UNL     1      10.659   1.055  24.069  0.00  0.00    +0.042 C 
BRANCH   6   7
ATOM      7  C   UNL     1       9.566   1.929  23.506  0.00  0.00    -0.027 C 
ATOM      8  C   UNL     1       8.911   1.745  22.341  0.00  0.00    -0.080 C 
ATOM      9  C   UNL     1       7.818   2.683  21.913  0.00  0.00    +0.038 C 
ATOM     10  C   UNL     1       9.219   0.648  21.358  0.00  0.00    +0.038 C 
ENDBRANCH   6   7
ENDBRANCH   5   6
ENDBRANCH   4   5
ENDBRANCH   2   4
ENDBRANCH   1   2
BRANCH   1  11
ATOM     11  O   UNL     1       7.359  -3.548  25.500  0.00  0.00    -0.326 OA
BRANCH  11  12
ATOM     12  P   UNL     1       7.416  -5.055  24.775  0.00  0.00    +0.215 P 
ATOM     13  O   UNL     1       7.689  -5.810  26.308  0.00  0.00    -0.437 OA
ATOM     14  O   UNL     1       8.895  -5.294  24.315  0.00  0.00    -0.517 OA
BRANCH  12  15
ATOM     15  O   UNL     1       7.143  -4.300  23.243  0.00  0.00    -0.314 OA
BRANCH  15  16
ATOM     16  P   UNL     1       6.240  -5.064  22.113  0.00  0.00    -0.007 P 
ATOM     17  O   UNL     1       5.269  -5.954  22.878  0.00  0.00    -0.637 OA
ATOM     18  O   UNL     1       7.231  -5.845  21.257  0.00  0.00    -0.577 OA
ATOM     19  O   UNL     1       5.538  -3.938  21.350  0.00  0.00    -0.577 OA
ENDBRANCH  15  16
ENDBRANCH  12  15
ENDBRANCH  11  12
ENDBRANCH   1  11
TORSDOF 9
ENDMDL
MODEL 7
REMARK VINA RESULT:      -5.1      1.850      2.714
REMARK  Name = 
REMARK  12 active torsions:
REMARK  status: ('A' for Active; 'I' for Inactive)
REMARK    1  A    between atoms: C_1  and  N_2
REMARK    2  A    between atoms: N_2  and  C_3
REMARK    3  A    between atoms: N_2  and  C_14
REMARK    4  A    between atoms: C_3  and  C_4
REMARK    5  A    between atoms: C_4  and  O_5
REMARK    6  A    between atoms: O_5  and  P_6
REMARK    7  A    between atoms: P_6  and  O_9
REMARK    8  A    between atoms: O_9  and  P_10
REMARK    9  A    between atoms: C_14  and  C_15
REMARK   10  A    between atoms: C_15  and  C_16
REMARK   11  A    between atoms: C_17  and  C_18
REMARK   12  A    between atoms: C_17  and  C_19
REMARK                            x       y       z     vdW  Elec       q    Type
REMARK                         _______ _______ _______ _____ _____    ______ ____
ROOT
ATOM      1  C   UNL     1       9.199  -2.430  24.645  0.00  0.00    +0.183 C 
ENDROOT
BRANCH   1   2
ATOM      2  C   UNL     1       8.952  -1.775  23.272  0.00  0.00    +0.112 C 
BRANCH   2   4
ATOM      3  C   UNL     1      10.556  -0.035  23.714  0.00  0.00    +0.105 C 
ATOM      4  N   UNL     1      10.086  -0.976  22.685  0.00  0.00    -0.303 NA
BRANCH   4   5
ATOM      5  C   UNL     1       9.507  -0.239  21.535  0.00  0.00    +0.088 C 
BRANCH   5   6
ATOM      6  C   UNL     1       9.580   1.286  21.693  0.00  0.00    +0.042 C 
BRANCH   6   7
ATOM      7  C   UNL     1       8.221   1.937  21.630  0.00  0.00    -0.027 C 
ATOM      8  C   UNL     1       7.747   2.887  22.462  0.00  0.00    -0.080 C 
ATOM      9  C   UNL     1       6.377   3.472  22.267  0.00  0.00    +0.038 C 
ATOM     10  C   UNL     1       8.491   3.416  23.659  0.00  0.00    +0.038 C 
ENDBRANCH   6   7
ENDBRANCH   5   6
ENDBRANCH   4   5
ENDBRANCH   2   4
ENDBRANCH   1   2
BRANCH   1  11
ATOM     11  O   UNL     1       8.168  -3.325  25.010  0.00  0.00    -0.326 OA
BRANCH  11  12
ATOM     12  P   UNL     1       8.516  -4.961  24.998  0.00  0.00    +0.215 P 
ATOM     13  O   UNL     1      10.194  -4.629  24.734  0.00  0.00    -0.437 OA
ATOM     14  O   UNL     1       8.313  -5.470  23.530  0.00  0.00    -0.517 OA
BRANCH  12  15
ATOM     15  O   UNL     1       6.840  -5.294  25.264  0.00  0.00    -0.314 OA
BRANCH  15  16
ATOM     16  P   UNL     1       6.291  -5.528  26.787  0.00  0.00    -0.007 P 
ATOM     17  O   UNL     1       5.461  -4.298  27.131  0.00  0.00    -0.637 OA
ATOM     18  O   UNL     1       7.538  -5.678  27.652  0.00  0.00    -0.577 OA
ATOM     19  O   UNL     1       5.454  -6.806  26.707  0.00  0.00    -0.577 OA
ENDBRANCH  15  16
ENDBRANCH  12  15
ENDBRANCH  11  12
ENDBRANCH   1  11
TORSDOF 9
ENDMDL
MODEL 8
REMARK VINA RESULT:      -4.9      1.814      3.504
REMARK  Name = 
REMARK  12 active torsions:
REMARK  status: ('A' for Active; 'I' for Inactive)
REMARK    1  A    between atoms: C_1  and  N_2
REMARK    2  A    between atoms: N_2  and  C_3
REMARK    3  A    between atoms: N_2  and  C_14
REMARK    4  A    between atoms: C_3  and  C_4
REMARK    5  A    between atoms: C_4  and  O_5
REMARK    6  A    between atoms: O_5  and  P_6
REMARK    7  A    between atoms: P_6  and  O_9
REMARK    8  A    between atoms: O_9  and  P_10
REMARK    9  A    between atoms: C_14  and  C_15
REMARK   10  A    between atoms: C_15  and  C_16
REMARK   11  A    between atoms: C_17  and  C_18
REMARK   12  A    between atoms: C_17  and  C_19
REMARK                            x       y       z     vdW  Elec       q    Type
REMARK                         _______ _______ _______ _____ _____    ______ ____
ROOT
ATOM      1  C   UNL     1       8.267  -4.153  24.254  0.00  0.00    +0.183 C 
ENDROOT
BRANCH   1   2
ATOM      2  C   UNL     1       8.231  -2.737  24.860  0.00  0.00    +0.112 C 
BRANCH   2   4
ATOM      3  C   UNL     1       6.540  -1.294  23.935  0.00  0.00    +0.105 C 
ATOM      4  N   UNL     1       7.980  -1.595  23.909  0.00  0.00    -0.303 NA
BRANCH   4   5
ATOM      5  C   UNL     1       8.381  -2.090  22.570  0.00  0.00    +0.088 C 
BRANCH   5   6
ATOM      6  C   UNL     1       9.735  -1.541  22.099  0.00  0.00    +0.042 C 
BRANCH   6   7
ATOM      7  C   UNL     1       9.717  -0.044  21.913  0.00  0.00    -0.027 C 
ATOM      8  C   UNL     1      10.208   0.877  22.767  0.00  0.00    -0.080 C 
ATOM      9  C   UNL     1      10.148   2.342  22.441  0.00  0.00    +0.038 C 
ATOM     10  C   UNL     1      10.809   0.556  24.109  0.00  0.00    +0.038 C 
ENDBRANCH   6   7
ENDBRANCH   5   6
ENDBRANCH   4   5
ENDBRANCH   2   4
ENDBRANCH   1   2
BRANCH   1  11
ATOM     11  O   UNL     1       7.780  -5.134  25.147  0.00  0.00    -0.326 OA
BRANCH  11  12
ATOM     12  P   UNL     1       6.178  -5.034  25.617  0.00  0.00    +0.215 P 
ATOM     13  O   UNL     1       6.650  -4.620  27.229  0.00  0.00    -0.437 OA
ATOM     14  O   UNL     1       5.728  -6.474  26.043  0.00  0.00    -0.517 OA
BRANCH  12  15
ATOM     15  O   UNL     1       5.705  -5.448  24.005  0.00  0.00    -0.314 OA
BRANCH  15  16
ATOM     16  P   UNL     1       4.493  -4.624  23.279  0.00  0.00    -0.007 P 
ATOM     17  O   UNL     1       3.477  -5.668  22.835  0.00  0.00    -0.637 OA
ATOM     18  O   UNL     1       5.143  -3.879  22.118  0.00  0.00    -0.577 OA
ATOM     19  O   UNL     1       3.951  -3.692  24.366  0.00  0.00    -0.577 OA
ENDBRANCH  15  16
ENDBRANCH  12  15
ENDBRANCH  11  12
ENDBRANCH   1  11
TORSDOF 9
ENDMDL
MODEL 9
REMARK VINA RESULT:      -4.9      1.919      3.434
REMARK  Name = 
REMARK  12 active torsions:
REMARK  status: ('A' for Active; 'I' for Inactive)
REMARK    1  A    between atoms: C_1  and  N_2
REMARK    2  A    between atoms: N_2  and  C_3
REMARK    3  A    between atoms: N_2  and  C_14
REMARK    4  A    between atoms: C_3  and  C_4
REMARK    5  A    between atoms: C_4  and  O_5
REMARK    6  A    between atoms: O_5  and  P_6
REMARK    7  A    between atoms: P_6  and  O_9
REMARK    8  A    between atoms: O_9  and  P_10
REMARK    9  A    between atoms: C_14  and  C_15
REMARK   10  A    between atoms: C_15  and  C_16
REMARK   11  A    between atoms: C_17  and  C_18
REMARK   12  A    between atoms: C_17  and  C_19
REMARK                            x       y       z     vdW  Elec       q    Type
REMARK                         _______ _______ _______ _____ _____    ______ ____
ROOT
ATOM      1  C   UNL     1       7.020  -3.295  26.516  0.00  0.00    +0.183 C 
ENDROOT
BRANCH   1   2
ATOM      2  C   UNL     1       8.465  -3.022  26.057  0.00  0.00    +0.112 C 
BRANCH   2   4
ATOM      3  C   UNL     1       9.687  -2.771  23.998  0.00  0.00    +0.105 C 
ATOM      4  N   UNL     1       8.640  -2.161  24.833  0.00  0.00    -0.303 NA
BRANCH   4   5
ATOM      5  C   UNL     1       9.083  -0.836  25.331  0.00  0.00    +0.088 C 
BRANCH   5   6
ATOM      6  C   UNL     1      10.283  -0.268  24.563  0.00  0.00    +0.042 C 
BRANCH   6   7
ATOM      7  C   UNL     1      10.287   1.240  24.532  0.00  0.00    -0.027 C 
ATOM      8  C   UNL     1      10.115   2.022  23.447  0.00  0.00    -0.080 C 
ATOM      9  C   UNL     1      10.113   3.520  23.565  0.00  0.00    +0.038 C 
ATOM     10  C   UNL     1       9.954   1.503  22.043  0.00  0.00    +0.038 C 
ENDBRANCH   6   7
ENDBRANCH   5   6
ENDBRANCH   4   5
ENDBRANCH   2   4
ENDBRANCH   1   2
BRANCH   1  11
ATOM     11  O   UNL     1       6.135  -3.481  25.430  0.00  0.00    -0.326 OA
BRANCH  11  12
ATOM     12  P   UNL     1       5.612  -5.037  25.110  0.00  0.00    +0.215 P 
ATOM     13  O   UNL     1       4.404  -4.912  26.342  0.00  0.00    -0.437 OA
ATOM     14  O   UNL     1       6.490  -6.009  25.970  0.00  0.00    -0.517 OA
BRANCH  12  15
ATOM     15  O   UNL     1       6.819  -5.162  23.877  0.00  0.00    -0.314 OA
BRANCH  15  16
ATOM     16  P   UNL     1       6.412  -4.899  22.315  0.00  0.00    -0.007 P 
ATOM     17  O   UNL     1       6.886  -3.489  21.986  0.00  0.00    -0.637 OA
ATOM     18  O   UNL     1       4.897  -5.058  22.254  0.00  0.00    -0.577 OA
ATOM     19  O   UNL     1       7.165  -5.976  21.530  0.00  0.00    -0.577 OA
ENDBRANCH  15  16
ENDBRANCH  12  15
ENDBRANCH  11  12
ENDBRANCH   1  11
TORSDOF 9
ENDMDL
