MODEL 1
REMARK VINA RESULT:      -4.2      0.000      0.000
REMARK  Name = 
REMARK  6 active torsions:
REMARK  status: ('A' for Active; 'I' for Inactive)
REMARK    1  A    between atoms: O_1  and  N_2
REMARK    2  A    between atoms: C_3  and  C_5
REMARK    3  A    between atoms: C_5  and  O_6
REMARK    4  A    between atoms: O_6  and  P_7
REMARK    5  A    between atoms: P_7  and  O_8
REMARK    6  A    between atoms: P_7  and  O_9
REMARK                            x       y       z     vdW  Elec       q    Type
REMARK                         _______ _______ _______ _____ _____    ______ ____
ROOT
ATOM      1  C   UNL     1       9.921   0.921  23.683  0.00  0.00    +0.270 C 
ENDROOT
BRANCH   1   4
ATOM      2  N   UNL     1       9.929   2.256  21.627  0.00  0.00    -0.196 N 
ATOM      3  H   UNL     1      10.113   3.101  21.094  0.00  0.00    +0.182 HD
ATOM      4  C   UNL     1      10.317   2.193  22.938  0.00  0.00    +0.262 C 
ATOM      5  O   UNL     1      10.958   3.118  23.433  0.00  0.00    -0.271 OA
BRANCH   2   6
ATOM      6  O   UNL     1       9.154   1.222  21.075  0.00  0.00    -0.295 OA
ATOM      7  H   UNL     1       8.384   1.689  20.699  0.00  0.00    +0.241 HD
ENDBRANCH   2   6
ENDBRANCH   1   4
BRANCH   1   8
ATOM      8  O   UNL     1      10.699  -0.202  23.307  0.00  0.00    -0.277 OA
BRANCH   8   9
ATOM      9  P   UNL     1       9.773  -1.663  23.278  0.00  0.00    +0.473 P 
ATOM     10  O   UNL     1       8.944  -2.970  23.250  0.00  0.00    -0.228 OA
BRANCH   9  11
ATOM     11  O   UNL     1      10.032  -1.636  21.662  0.00  0.00    -0.303 OA
ATOM     12  H   UNL     1       9.848  -2.544  21.356  0.00  0.00    +0.222 HD
ENDBRANCH   9  11
BRANCH   9  13
ATOM     13  O   UNL     1       8.481  -0.658  23.191  0.00  0.00    -0.303 OA
ATOM     14  H   UNL     1       8.705   0.165  22.722  0.00  0.00    +0.222 HD
ENDBRANCH   9  13
ENDBRANCH   8   9
ENDBRANCH   1   8
TORSDOF 6
ENDMDL
MODEL 2
REMARK VINA RESULT:      -4.1      1.612      2.345
REMARK  Name = 
REMARK  6 active torsions:
REMARK  status: ('A' for Active; 'I' for Inactive)
REMARK    1  A    between atoms: O_1  and  N_2
REMARK    2  A    between atoms: C_3  and  C_5
REMARK    3  A    between atoms: C_5  and  O_6
REMARK    4  A    between atoms: O_6  and  P_7
REMARK    5  A    between atoms: P_7  and  O_8
REMARK    6  A    between atoms: P_7  and  O_9
REMARK                            x       y       z     vdW  Elec       q    Type
REMARK                         _______ _______ _______ _____ _____    ______ ____
ROOT
ATOM      1  C   UNL     1       8.184   0.640  22.993  0.00  0.00    +0.270 C 
ENDROOT
BRANCH   1   4
ATOM      2  N   UNL     1       8.859   2.541  21.600  0.00  0.00    -0.196 N 
ATOM      3  H   UNL     1       8.671   3.357  21.026  0.00  0.00    +0.182 HD
ATOM      4  C   UNL     1       7.819   1.908  22.224  0.00  0.00    +0.262 C 
ATOM      5  O   UNL     1       6.685   2.378  22.157  0.00  0.00    -0.271 OA
BRANCH   2   6
ATOM      6  O   UNL     1      10.145   1.978  21.634  0.00  0.00    -0.295 OA
ATOM      7  H   UNL     1      10.050   1.228  22.252  0.00  0.00    +0.241 HD
ENDBRANCH   2   6
ENDBRANCH   1   4
BRANCH   1   8
ATOM      8  O   UNL     1       8.464  -0.458  22.143  0.00  0.00    -0.277 OA
BRANCH   8   9
ATOM      9  P   UNL     1       9.453  -1.650  22.915  0.00  0.00    +0.473 P 
ATOM     10  O   UNL     1      10.337  -2.717  23.605  0.00  0.00    -0.228 OA
BRANCH   9  11
ATOM     11  O   UNL     1      10.260  -0.376  23.550  0.00  0.00    -0.303 OA
ATOM     12  H   UNL     1      10.539   0.160  22.783  0.00  0.00    +0.222 HD
ENDBRANCH   9  11
BRANCH   9  13
ATOM     13  O   UNL     1      10.305  -1.625  21.515  0.00  0.00    -0.303 OA
ATOM     14  H   UNL     1      10.500  -0.712  21.237  0.00  0.00    +0.222 HD
ENDBRANCH   9  13
ENDBRANCH   8   9
ENDBRANCH   1   8
TORSDOF 6
ENDMDL
MODEL 3
REMARK VINA RESULT:      -4.0      2.341      3.964
REMARK  Name = 
REMARK  6 active torsions:
REMARK  status: ('A' for Active; 'I' for Inactive)
REMARK    1  A    between atoms: O_1  and  N_2
REMARK    2  A    between atoms: C_3  and  C_5
REMARK    3  A    between atoms: C_5  and  O_6
REMARK    4  A    between atoms: O_6  and  P_7
REMARK    5  A    between atoms: P_7  and  O_8
REMARK    6  A    between atoms: P_7  and  O_9
REMARK                            x       y       z     vdW  Elec       q    Type
REMARK                         _______ _______ _______ _____ _____    ______ ____
ROOT
ATOM      1  C   UNL     1       9.717  -0.310  23.695  0.00  0.00    +0.270 C 
ENDROOT
BRANCH   1   4
ATOM      2  N   UNL     1       9.792  -1.606  21.616  0.00  0.00    -0.196 N 
ATOM      3  H   UNL     1      10.003  -2.438  21.072  0.00  0.00    +0.182 HD
ATOM      4  C   UNL     1       9.975  -1.629  22.972  0.00  0.00    +0.262 C 
ATOM      5  O   UNL     1      10.305  -2.674  23.529  0.00  0.00    -0.271 OA
BRANCH   2   6
ATOM      6  O   UNL     1       9.463  -0.401  20.973  0.00  0.00    -0.295 OA
ATOM      7  H   UNL     1      10.026   0.258  21.420  0.00  0.00    +0.241 HD
ENDBRANCH   2   6
ENDBRANCH   1   4
BRANCH   1   8
ATOM      8  O   UNL     1      10.658   0.695  23.359  0.00  0.00    -0.277 OA
BRANCH   8   9
ATOM      9  P   UNL     1       9.961   2.278  23.368  0.00  0.00    +0.473 P 
ATOM     10  O   UNL     1       9.336   3.695  23.377  0.00  0.00    -0.228 OA
BRANCH   9  11
ATOM     11  O   UNL     1       8.529   1.502  23.205  0.00  0.00    -0.303 OA
ATOM     12  H   UNL     1       8.476   1.256  22.262  0.00  0.00    +0.222 HD
ENDBRANCH   9  11
BRANCH   9  13
ATOM     13  O   UNL     1      10.274   2.257  21.760  0.00  0.00    -0.303 OA
ATOM     14  H   UNL     1       9.680   2.858  21.276  0.00  0.00    +0.222 HD
ENDBRANCH   9  13
ENDBRANCH   8   9
ENDBRANCH   1   8
TORSDOF 6
ENDMDL
MODEL 4
REMARK VINA RESULT:      -4.0      3.065      4.234
REMARK  Name = 
REMARK  6 active torsions:
REMARK  status: ('A' for Active; 'I' for Inactive)
REMARK    1  A    between atoms: O_1  and  N_2
REMARK    2  A    between atoms: C_3  and  C_5
REMARK    3  A    between atoms: C_5  and  O_6
REMARK    4  A    between atoms: O_6  and  P_7
REMARK    5  A    between atoms: P_7  and  O_8
REMARK    6  A    between atoms: P_7  and  O_9
REMARK                            x       y       z     vdW  Elec       q    Type
REMARK                         _______ _______ _______ _____ _____    ______ ____
ROOT
ATOM      1  C   UNL     1       9.480  -2.343  24.371  0.00  0.00    +0.270 C 
ENDROOT
BRANCH   1   4
ATOM      2  N   UNL     1       8.841  -1.995  22.030  0.00  0.00    -0.196 N 
ATOM      3  H   UNL     1       8.873  -1.497  21.146  0.00  0.00    +0.182 HD
ATOM      4  C   UNL     1       9.658  -1.595  23.053  0.00  0.00    +0.262 C 
ATOM      5  O   UNL     1      10.481  -0.700  22.867  0.00  0.00    -0.271 OA
BRANCH   2   6
ATOM      6  O   UNL     1       7.869  -2.983  22.256  0.00  0.00    -0.295 OA
ATOM      7  H   UNL     1       8.208  -3.464  23.034  0.00  0.00    +0.241 HD
ENDBRANCH   2   6
ENDBRANCH   1   4
BRANCH   1   8
ATOM      8  O   UNL     1       9.950  -3.679  24.314  0.00  0.00    -0.277 OA
BRANCH   8   9
ATOM      9  P   UNL     1       9.003  -4.750  25.290  0.00  0.00    +0.473 P 
ATOM     10  O   UNL     1       8.157  -5.708  26.162  0.00  0.00    -0.228 OA
BRANCH   9  11
ATOM     11  O   UNL     1      10.378  -5.629  25.420  0.00  0.00    -0.303 OA
ATOM     12  H   UNL     1      10.636  -5.565  26.359  0.00  0.00    +0.222 HD
ENDBRANCH   9  11
BRANCH   9  13
ATOM     13  O   UNL     1       8.582  -5.429  23.859  0.00  0.00    -0.303 OA
ATOM     14  H   UNL     1       7.622  -5.367  23.708  0.00  0.00    +0.222 HD
ENDBRANCH   9  13
ENDBRANCH   8   9
ENDBRANCH   1   8
TORSDOF 6
ENDMDL
MODEL 5
REMARK VINA RESULT:      -3.8      4.614      6.105
REMARK  Name = 
REMARK  6 active torsions:
REMARK  status: ('A' for Active; 'I' for Inactive)
REMARK    1  A    between atoms: O_1  and  N_2
REMARK    2  A    between atoms: C_3  and  C_5
REMARK    3  A    between atoms: C_5  and  O_6
REMARK    4  A    between atoms: O_6  and  P_7
REMARK    5  A    between atoms: P_7  and  O_8
REMARK    6  A    between atoms: P_7  and  O_9
REMARK                            x       y       z     vdW  Elec       q    Type
REMARK                         _______ _______ _______ _____ _____    ______ ____
ROOT
ATOM      1  C   UNL     1       7.816  -4.369  24.883  0.00  0.00    +0.270 C 
ENDROOT
BRANCH   1   4
ATOM      2  N   UNL     1       9.587  -5.753  25.862  0.00  0.00    -0.196 N 
ATOM      3  H   UNL     1       9.975  -6.353  26.583  0.00  0.00    +0.182 HD
ATOM      4  C   UNL     1       8.287  -5.338  25.964  0.00  0.00    +0.262 C 
ATOM      5  O   UNL     1       7.577  -5.761  26.875  0.00  0.00    -0.271 OA
BRANCH   2   6
ATOM      6  O   UNL     1      10.411  -5.232  24.851  0.00  0.00    -0.295 OA
ATOM      7  H   UNL     1      10.114  -4.306  24.768  0.00  0.00    +0.241 HD
ENDBRANCH   2   6
ENDBRANCH   1   4
BRANCH   1   8
ATOM      8  O   UNL     1       8.476  -3.117  24.940  0.00  0.00    -0.277 OA
BRANCH   8   9
ATOM      9  P   UNL     1       8.669  -2.403  23.375  0.00  0.00    +0.473 P 
ATOM     10  O   UNL     1       8.841  -1.765  21.976  0.00  0.00    -0.228 OA
BRANCH   9  11
ATOM     11  O   UNL     1      10.260  -2.736  23.568  0.00  0.00    -0.303 OA
ATOM     12  H   UNL     1      10.652  -1.917  23.926  0.00  0.00    +0.222 HD
ENDBRANCH   9  11
BRANCH   9  13
ATOM     13  O   UNL     1       8.758  -0.991  24.202  0.00  0.00    -0.303 OA
ATOM     14  H   UNL     1       7.874  -0.611  24.349  0.00  0.00    +0.222 HD
ENDBRANCH   9  13
ENDBRANCH   8   9
ENDBRANCH   1   8
TORSDOF 6
ENDMDL
MODEL 6
REMARK VINA RESULT:      -3.8      5.928      6.836
REMARK  Name = 
REMARK  6 active torsions:
REMARK  status: ('A' for Active; 'I' for Inactive)
REMARK    1  A    between atoms: O_1  and  N_2
REMARK    2  A    between atoms: C_3  and  C_5
REMARK    3  A    between atoms: C_5  and  O_6
REMARK    4  A    between atoms: O_6  and  P_7
REMARK    5  A    between atoms: P_7  and  O_8
REMARK    6  A    between atoms: P_7  and  O_9
REMARK                            x       y       z     vdW  Elec       q    Type
REMARK                         _______ _______ _______ _____ _____    ______ ____
ROOT
ATOM      1  C   UNL     1       7.146  -4.546  25.100  0.00  0.00    +0.270 C 
ENDROOT
BRANCH   1   4
ATOM      2  N   UNL     1       9.188  -5.719  25.781  0.00  0.00    -0.196 N 
ATOM      3  H   UNL     1       9.846  -6.069  26.471  0.00  0.00    +0.182 HD
ATOM      4  C   UNL     1       8.033  -5.119  26.203  0.00  0.00    +0.262 C 
ATOM      5  O   UNL     1       7.761  -5.084  27.401  0.00  0.00    -0.271 OA
BRANCH   2   6
ATOM      6  O   UNL     1       9.522  -5.715  24.417  0.00  0.00    -0.295 OA
ATOM      7  H   UNL     1       8.947  -6.407  24.038  0.00  0.00    +0.241 HD
ENDBRANCH   2   6
ENDBRANCH   1   4
BRANCH   1   8
ATOM      8  O   UNL     1       6.579  -5.547  24.273  0.00  0.00    -0.277 OA
BRANCH   8   9
ATOM      9  P   UNL     1       6.271  -4.977  22.669  0.00  0.00    +0.473 P 
ATOM     10  O   UNL     1       5.996  -4.468  21.233  0.00  0.00    -0.228 OA
BRANCH   9  11
ATOM     11  O   UNL     1       7.336  -6.128  22.200  0.00  0.00    -0.303 OA
ATOM     12  H   UNL     1       7.531  -5.933  21.264  0.00  0.00    +0.222 HD
ENDBRANCH   9  11
BRANCH   9  13
ATOM     13  O   UNL     1       7.443  -3.881  23.000  0.00  0.00    -0.303 OA
ATOM     14  H   UNL     1       7.065  -3.050  23.338  0.00  0.00    +0.222 HD
ENDBRANCH   9  13
ENDBRANCH   8   9
ENDBRANCH   1   8
TORSDOF 6
ENDMDL
MODEL 7
REMARK VINA RESULT:      -3.7      6.381      7.237
REMARK  Name = 
REMARK  6 active torsions:
REMARK  status: ('A' for Active; 'I' for Inactive)
REMARK    1  A    between atoms: O_1  and  N_2
REMARK    2  A    between atoms: C_3  and  C_5
REMARK    3  A    between atoms: C_5  and  O_6
REMARK    4  A    between atoms: O_6  and  P_7
REMARK    5  A    between atoms: P_7  and  O_8
REMARK    6  A    between atoms: P_7  and  O_9
REMARK                            x       y       z     vdW  Elec       q    Type
REMARK                         _______ _______ _______ _____ _____    ______ ____
ROOT
ATOM      1  C   UNL     1       7.803  -4.583  24.444  0.00  0.00    +0.270 C 
ENDROOT
BRANCH   1   4
ATOM      2  N   UNL     1       8.616  -5.791  26.416  0.00  0.00    -0.196 N 
ATOM      3  H   UNL     1       9.340  -6.232  26.975  0.00  0.00    +0.182 HD
ATOM      4  C   UNL     1       8.964  -5.139  25.264  0.00  0.00    +0.262 C 
ATOM      5  O   UNL     1      10.149  -5.017  24.962  0.00  0.00    -0.271 OA
BRANCH   2   6
ATOM      6  O   UNL     1       7.261  -5.973  26.737  0.00  0.00    -0.295 OA
ATOM      7  H   UNL     1       7.263  -6.044  27.710  0.00  0.00    +0.241 HD
ENDBRANCH   2   6
ENDBRANCH   1   4
BRANCH   1   8
ATOM      8  O   UNL     1       7.528  -5.353  23.286  0.00  0.00    -0.277 OA
BRANCH   8   9
ATOM      9  P   UNL     1       5.856  -5.302  22.845  0.00  0.00    +0.473 P 
ATOM     10  O   UNL     1       4.360  -5.257  22.450  0.00  0.00    -0.228 OA
BRANCH   9  11
ATOM     11  O   UNL     1       5.586  -5.965  24.317  0.00  0.00    -0.303 OA
ATOM     12  H   UNL     1       4.720  -6.409  24.244  0.00  0.00    +0.222 HD
ENDBRANCH   9  11
BRANCH   9  13
ATOM     13  O   UNL     1       6.160  -6.747  22.135  0.00  0.00    -0.303 OA
ATOM     14  H   UNL     1       5.756  -6.799  21.251  0.00  0.00    +0.222 HD
ENDBRANCH   9  13
ENDBRANCH   8   9
ENDBRANCH   1   8
TORSDOF 6
ENDMDL
MODEL 8
REMARK VINA RESULT:      -3.6      4.040      5.793
REMARK  Name = 
REMARK  6 active torsions:
REMARK  status: ('A' for Active; 'I' for Inactive)
REMARK    1  A    between atoms: O_1  and  N_2
REMARK    2  A    between atoms: C_3  and  C_5
REMARK    3  A    between atoms: C_5  and  O_6
REMARK    4  A    between atoms: O_6  and  P_7
REMARK    5  A    between atoms: P_7  and  O_8
REMARK    6  A    between atoms: P_7  and  O_9
REMARK                            x       y       z     vdW  Elec       q    Type
REMARK                         _______ _______ _______ _____ _____    ______ ____
ROOT
ATOM      1  C   UNL     1       9.104  -3.381  24.669  0.00  0.00    +0.270 C 
ENDROOT
BRANCH   1   4
ATOM      2  N   UNL     1       9.268  -5.609  25.678  0.00  0.00    -0.196 N 
ATOM      3  H   UNL     1       9.088  -6.608  25.705  0.00  0.00    +0.182 HD
ATOM      4  C   UNL     1       8.872  -4.888  24.585  0.00  0.00    +0.262 C 
ATOM      5  O   UNL     1       8.385  -5.462  23.613  0.00  0.00    -0.271 OA
BRANCH   2   6
ATOM      6  O   UNL     1       9.779  -4.948  26.807  0.00  0.00    -0.295 OA
ATOM      7  H   UNL     1       8.979  -4.681  27.298  0.00  0.00    +0.241 HD
ENDBRANCH   2   6
ENDBRANCH   1   4
BRANCH   1   8
ATOM      8  O   UNL     1      10.109  -2.928  23.778  0.00  0.00    -0.277 OA
BRANCH   8   9
ATOM      9  P   UNL     1       9.872  -1.281  23.304  0.00  0.00    +0.473 P 
ATOM     10  O   UNL     1       9.659   0.193  22.880  0.00  0.00    -0.228 OA
BRANCH   9  11
ATOM     11  O   UNL     1       8.359  -1.756  22.897  0.00  0.00    -0.303 OA
ATOM     12  H   UNL     1       8.458  -2.665  22.555  0.00  0.00    +0.222 HD
ENDBRANCH   9  11
BRANCH   9  13
ATOM     13  O   UNL     1      10.518  -1.762  21.877  0.00  0.00    -0.303 OA
ATOM     14  H   UNL     1      10.158  -1.246  21.135  0.00  0.00    +0.222 HD
ENDBRANCH   9  13
ENDBRANCH   8   9
ENDBRANCH   1   8
TORSDOF 6
ENDMDL
MODEL 9
REMARK VINA RESULT:      -3.6      6.592      8.407
REMARK  Name = 
REMARK  6 active torsions:
REMARK  status: ('A' for Active; 'I' for Inactive)
REMARK    1  A    between atoms: O_1  and  N_2
REMARK    2  A    between atoms: C_3  and  C_5
REMARK    3  A    between atoms: C_5  and  O_6
REMARK    4  A    between atoms: O_6  and  P_7
REMARK    5  A    between atoms: P_7  and  O_8
REMARK    6  A    between atoms: P_7  and  O_9
REMARK                            x       y       z     vdW  Elec       q    Type
REMARK                         _______ _______ _______ _____ _____    ______ ____
ROOT
ATOM      1  C   UNL     1       6.455  -5.346  26.109  0.00  0.00    +0.270 C 
ENDROOT
BRANCH   1   4
ATOM      2  N   UNL     1       5.420  -7.084  27.494  0.00  0.00    -0.196 N 
ATOM      3  H   UNL     1       4.715  -7.789  27.689  0.00  0.00    +0.182 HD
ATOM      4  C   UNL     1       5.415  -6.451  26.281  0.00  0.00    +0.262 C 
ATOM      5  O   UNL     1       4.620  -6.798  25.410  0.00  0.00    -0.271 OA
BRANCH   2   6
ATOM      6  O   UNL     1       6.295  -6.655  28.505  0.00  0.00    -0.295 OA
ATOM      7  H   UNL     1       6.683  -7.486  28.840  0.00  0.00    +0.241 HD
ENDBRANCH   2   6
ENDBRANCH   1   4
BRANCH   1   8
ATOM      8  O   UNL     1       7.786  -5.824  26.195  0.00  0.00    -0.277 OA
BRANCH   8   9
ATOM      9  P   UNL     1       8.906  -4.799  25.366  0.00  0.00    +0.473 P 
ATOM     10  O   UNL     1       9.910  -3.883  24.624  0.00  0.00    -0.228 OA
BRANCH   9  11
ATOM     11  O   UNL     1       9.560  -6.193  24.808  0.00  0.00    -0.303 OA
ATOM     12  H   UNL     1       9.873  -6.666  25.601  0.00  0.00    +0.222 HD
ENDBRANCH   9  11
BRANCH   9  13
ATOM     13  O   UNL     1       9.749  -4.846  26.771  0.00  0.00    -0.303 OA
ATOM     14  H   UNL     1       9.566  -4.063  27.319  0.00  0.00    +0.222 HD
ENDBRANCH   9  13
ENDBRANCH   8   9
ENDBRANCH   1   8
TORSDOF 6
ENDMDL
