MODEL 1
REMARK VINA RESULT:      -8.0      0.000      0.000
REMARK  Name = 
REMARK  4 active torsions:
REMARK  status: ('A' for Active; 'I' for Inactive)
REMARK    1  A    between atoms: C_1  and  C_2
REMARK    2  A    between atoms: C_2  and  C_11
REMARK    3  A    between atoms: C_14  and  O_15
REMARK    4  A    between atoms: O_15  and  C_16
REMARK                            x       y       z     vdW  Elec       q    Type
REMARK                         _______ _______ _______ _____ _____    ______ ____
ROOT
ATOM      1  C   UNL     1       8.551  -2.774  24.002  0.00  0.00    -0.024 A 
ATOM      2  C   UNL     1       9.238  -1.811  24.764  0.00  0.00    +0.009 A 
ATOM      3  C   UNL     1       9.805  -0.676  24.179  0.00  0.00    +0.046 A 
ATOM      4  C   UNL     1       9.626  -0.419  22.822  0.00  0.00    +0.128 A 
ATOM      5  C   UNL     1       8.968  -1.365  22.040  0.00  0.00    +0.046 A 
ATOM      6  C   UNL     1       8.427  -2.523  22.622  0.00  0.00    +0.009 A 
ENDROOT
BRANCH   1   8
ATOM      7  C   UNL     1       7.198  -4.924  23.634  0.00  0.00    +0.036 C 
ATOM      8  C   UNL     1       7.909  -4.010  24.672  0.00  0.00    +0.145 C 
ATOM      9  C   UNL     1       8.976  -4.877  25.350  0.00  0.00    +0.240 C 
ATOM     10  O   UNL     1      10.171  -4.876  25.057  0.00  0.00    -0.274 OA
ATOM     11  N   UNL     1       8.525  -5.747  26.309  0.00  0.00    -0.239 N 
ATOM     12  H   UNL     1       9.232  -6.330  26.739  0.00  0.00    +0.159 HD
ATOM     13  C   UNL     1       7.403  -5.565  27.053  0.00  0.00    +0.312 C 
ATOM     14  O   UNL     1       7.238  -6.148  28.119  0.00  0.00    -0.252 OA
ATOM     15  N   UNL     1       6.521  -4.631  26.611  0.00  0.00    -0.239 N 
ATOM     16  H   UNL     1       5.768  -4.413  27.252  0.00  0.00    +0.159 HD
ATOM     17  C   UNL     1       6.806  -3.667  25.679  0.00  0.00    +0.240 C 
ATOM     18  O   UNL     1       6.133  -2.637  25.665  0.00  0.00    -0.274 OA
ENDBRANCH   1   8
BRANCH   4  19
ATOM     19  O   UNL     1      10.088   0.708  22.176  0.00  0.00    -0.456 OA
BRANCH  19  20
ATOM     20  C   UNL     1       9.573   1.944  22.508  0.00  0.00    +0.128 A 
ATOM     21  C   UNL     1       8.317   2.403  22.098  0.00  0.00    +0.046 A 
ATOM     22  C   UNL     1       7.841   3.637  22.544  0.00  0.00    +0.004 A 
ATOM     23  C   UNL     1       8.644   4.447  23.344  0.00  0.00    +0.000 A 
ATOM     24  C   UNL     1       9.932   4.030  23.684  0.00  0.00    +0.004 A 
ATOM     25  C   UNL     1      10.395   2.780  23.267  0.00  0.00    +0.046 A 
ENDBRANCH  19  20
ENDBRANCH   4  19
TORSDOF 3
ENDMDL
MODEL 2
REMARK VINA RESULT:      -7.8      2.857      4.202
REMARK  Name = 
REMARK  4 active torsions:
REMARK  status: ('A' for Active; 'I' for Inactive)
REMARK    1  A    between atoms: C_1  and  C_2
REMARK    2  A    between atoms: C_2  and  C_11
REMARK    3  A    between atoms: C_14  and  O_15
REMARK    4  A    between atoms: O_15  and  C_16
REMARK                            x       y       z     vdW  Elec       q    Type
REMARK                         _______ _______ _______ _____ _____    ______ ____
ROOT
ATOM      1  C   UNL     1       6.138  -4.597  24.756  0.00  0.00    -0.024 A 
ATOM      2  C   UNL     1       6.257  -3.216  25.003  0.00  0.00    +0.009 A 
ATOM      3  C   UNL     1       7.467  -2.540  24.831  0.00  0.00    +0.046 A 
ATOM      4  C   UNL     1       8.579  -3.204  24.319  0.00  0.00    +0.128 A 
ATOM      5  C   UNL     1       8.495  -4.575  24.086  0.00  0.00    +0.046 A 
ATOM      6  C   UNL     1       7.288  -5.262  24.291  0.00  0.00    +0.009 A 
ENDROOT
BRANCH   1   8
ATOM      7  C   UNL     1       3.705  -4.390  25.548  0.00  0.00    +0.036 C 
ATOM      8  C   UNL     1       4.783  -5.322  24.929  0.00  0.00    +0.145 C 
ATOM      9  C   UNL     1       4.232  -5.776  23.572  0.00  0.00    +0.240 C 
ATOM     10  O   UNL     1       4.543  -5.283  22.488  0.00  0.00    -0.274 OA
ATOM     11  N   UNL     1       3.285  -6.766  23.607  0.00  0.00    -0.239 N 
ATOM     12  H   UNL     1       2.911  -7.048  22.709  0.00  0.00    +0.159 HD
ATOM     13  C   UNL     1       3.175  -7.697  24.590  0.00  0.00    +0.312 C 
ATOM     14  O   UNL     1       2.580  -8.755  24.409  0.00  0.00    -0.252 OA
ATOM     15  N   UNL     1       3.842  -7.447  25.747  0.00  0.00    -0.239 N 
ATOM     16  H   UNL     1       3.861  -8.215  26.406  0.00  0.00    +0.159 HD
ATOM     17  C   UNL     1       4.836  -6.515  25.889  0.00  0.00    +0.240 C 
ATOM     18  O   UNL     1       5.655  -6.654  26.797  0.00  0.00    -0.274 OA
ENDBRANCH   1   8
BRANCH   4  19
ATOM     19  O   UNL     1       9.790  -2.602  24.051  0.00  0.00    -0.456 OA
BRANCH  19  20
ATOM     20  C   UNL     1       9.821  -1.424  23.333  0.00  0.00    +0.128 A 
ATOM     21  C   UNL     1       9.459  -1.320  21.985  0.00  0.00    +0.046 A 
ATOM     22  C   UNL     1       9.447  -0.075  21.355  0.00  0.00    +0.004 A 
ATOM     23  C   UNL     1       9.862   1.060  22.048  0.00  0.00    +0.000 A 
ATOM     24  C   UNL     1      10.307   0.947  23.365  0.00  0.00    +0.004 A 
ATOM     25  C   UNL     1      10.287  -0.293  24.007  0.00  0.00    +0.046 A 
ENDBRANCH  19  20
ENDBRANCH   4  19
TORSDOF 3
ENDMDL
MODEL 3
REMARK VINA RESULT:      -7.6      2.762      4.006
REMARK  Name = 
REMARK  4 active torsions:
REMARK  status: ('A' for Active; 'I' for Inactive)
REMARK    1  A    between atoms: C_1  and  C_2
REMARK    2  A    between atoms: C_2  and  C_11
REMARK    3  A    between atoms: C_14  and  O_15
REMARK    4  A    between atoms: O_15  and  C_16
REMARK                            x       y       z     vdW  Elec       q    Type
REMARK                         _______ _______ _______ _____ _____    ______ ____
ROOT
ATOM      1  C   UNL     1       6.717  -3.976  23.701  0.00  0.00    -0.024 A 
ATOM      2  C   UNL     1       6.772  -3.111  22.592  0.00  0.00    +0.009 A 
ATOM      3  C   UNL     1       7.896  -2.325  22.327  0.00  0.00    +0.046 A 
ATOM      4  C   UNL     1       9.040  -2.443  23.112  0.00  0.00    +0.128 A 
ATOM      5  C   UNL     1       9.006  -3.275  24.228  0.00  0.00    +0.046 A 
ATOM      6  C   UNL     1       7.864  -4.040  24.515  0.00  0.00    +0.009 A 
ENDROOT
BRANCH   1   8
ATOM      7  C   UNL     1       5.655  -5.748  25.224  0.00  0.00    +0.036 C 
ATOM      8  C   UNL     1       5.474  -4.857  23.963  0.00  0.00    +0.145 C 
ATOM      9  C   UNL     1       4.237  -3.990  24.222  0.00  0.00    +0.240 C 
ATOM     10  O   UNL     1       4.267  -2.822  24.610  0.00  0.00    -0.274 OA
ATOM     11  N   UNL     1       3.024  -4.606  24.056  0.00  0.00    -0.239 N 
ATOM     12  H   UNL     1       2.211  -4.033  24.248  0.00  0.00    +0.159 HD
ATOM     13  C   UNL     1       2.798  -5.661  23.231  0.00  0.00    +0.312 C 
ATOM     14  O   UNL     1       1.670  -5.938  22.836  0.00  0.00    -0.252 OA
ATOM     15  N   UNL     1       3.892  -6.332  22.783  0.00  0.00    -0.239 N 
ATOM     16  H   UNL     1       3.708  -7.019  22.063  0.00  0.00    +0.159 HD
ATOM     17  C   UNL     1       5.176  -5.858  22.842  0.00  0.00    +0.240 C 
ATOM     18  O   UNL     1       6.009  -6.302  22.052  0.00  0.00    -0.274 OA
ENDBRANCH   1   8
BRANCH   4  19
ATOM     19  O   UNL     1      10.215  -1.760  22.882  0.00  0.00    -0.456 OA
BRANCH  19  20
ATOM     20  C   UNL     1      10.226  -0.382  22.948  0.00  0.00    +0.128 A 
ATOM     21  C   UNL     1       9.991   0.455  21.852  0.00  0.00    +0.046 A 
ATOM     22  C   UNL     1       9.945   1.840  22.023  0.00  0.00    +0.004 A 
ATOM     23  C   UNL     1      10.203   2.396  23.274  0.00  0.00    +0.000 A 
ATOM     24  C   UNL     1      10.524   1.569  24.351  0.00  0.00    +0.004 A 
ATOM     25  C   UNL     1      10.536   0.182  24.188  0.00  0.00    +0.046 A 
ENDBRANCH  19  20
ENDBRANCH   4  19
TORSDOF 3
ENDMDL
MODEL 4
REMARK VINA RESULT:      -7.3      3.272      7.488
REMARK  Name = 
REMARK  4 active torsions:
REMARK  status: ('A' for Active; 'I' for Inactive)
REMARK    1  A    between atoms: C_1  and  C_2
REMARK    2  A    between atoms: C_2  and  C_11
REMARK    3  A    between atoms: C_14  and  O_15
REMARK    4  A    between atoms: O_15  and  C_16
REMARK                            x       y       z     vdW  Elec       q    Type
REMARK                         _______ _______ _______ _____ _____    ______ ____
ROOT
ATOM      1  C   UNL     1       8.981  -0.679  23.768  0.00  0.00    -0.024 A 
ATOM      2  C   UNL     1       9.774  -1.792  24.103  0.00  0.00    +0.009 A 
ATOM      3  C   UNL     1       9.325  -3.101  23.910  0.00  0.00    +0.046 A 
ATOM      4  C   UNL     1       8.101  -3.342  23.291  0.00  0.00    +0.128 A 
ATOM      5  C   UNL     1       7.287  -2.258  22.968  0.00  0.00    +0.046 A 
ATOM      6  C   UNL     1       7.724  -0.943  23.193  0.00  0.00    +0.009 A 
ENDROOT
BRANCH   1   8
ATOM      7  C   UNL     1      10.919   0.775  24.616  0.00  0.00    +0.036 C 
ATOM      8  C   UNL     1       9.507   0.761  23.966  0.00  0.00    +0.145 C 
ATOM      9  C   UNL     1       9.646   1.480  22.620  0.00  0.00    +0.240 C 
ATOM     10  O   UNL     1       9.765   0.916  21.532  0.00  0.00    -0.274 OA
ATOM     11  N   UNL     1       9.695   2.849  22.669  0.00  0.00    -0.239 N 
ATOM     12  H   UNL     1       9.806   3.317  21.778  0.00  0.00    +0.159 HD
ATOM     13  C   UNL     1       9.137   3.608  23.648  0.00  0.00    +0.312 C 
ATOM     14  O   UNL     1       8.882   4.796  23.474  0.00  0.00    -0.252 OA
ATOM     15  N   UNL     1       8.780   2.966  24.792  0.00  0.00    -0.239 N 
ATOM     16  H   UNL     1       8.241   3.521  25.445  0.00  0.00    +0.159 HD
ATOM     17  C   UNL     1       8.654   1.608  24.917  0.00  0.00    +0.240 C 
ATOM     18  O   UNL     1       7.931   1.158  25.806  0.00  0.00    -0.274 OA
ENDBRANCH   1   8
BRANCH   4  19
ATOM     19  O   UNL     1       7.611  -4.596  22.997  0.00  0.00    -0.456 OA
BRANCH  19  20
ATOM     20  C   UNL     1       6.738  -5.208  23.872  0.00  0.00    +0.128 A 
ATOM     21  C   UNL     1       6.887  -5.193  25.263  0.00  0.00    +0.046 A 
ATOM     22  C   UNL     1       5.915  -5.773  26.080  0.00  0.00    +0.004 A 
ATOM     23  C   UNL     1       4.827  -6.432  25.509  0.00  0.00    +0.000 A 
ATOM     24  C   UNL     1       4.721  -6.525  24.121  0.00  0.00    +0.004 A 
ATOM     25  C   UNL     1       5.675  -5.914  23.304  0.00  0.00    +0.046 A 
ENDBRANCH  19  20
ENDBRANCH   4  19
TORSDOF 3
ENDMDL
MODEL 5
REMARK VINA RESULT:      -7.3      2.404      3.169
REMARK  Name = 
REMARK  4 active torsions:
REMARK  status: ('A' for Active; 'I' for Inactive)
REMARK    1  A    between atoms: C_1  and  C_2
REMARK    2  A    between atoms: C_2  and  C_11
REMARK    3  A    between atoms: C_14  and  O_15
REMARK    4  A    between atoms: O_15  and  C_16
REMARK                            x       y       z     vdW  Elec       q    Type
REMARK                         _______ _______ _______ _____ _____    ______ ____
ROOT
ATOM      1  C   UNL     1       6.933  -3.963  23.532  0.00  0.00    -0.024 A 
ATOM      2  C   UNL     1       8.002  -4.116  24.435  0.00  0.00    +0.009 A 
ATOM      3  C   UNL     1       9.206  -3.425  24.274  0.00  0.00    +0.046 A 
ATOM      4  C   UNL     1       9.350  -2.488  23.255  0.00  0.00    +0.128 A 
ATOM      5  C   UNL     1       8.316  -2.332  22.334  0.00  0.00    +0.046 A 
ATOM      6  C   UNL     1       7.118  -3.051  22.475  0.00  0.00    +0.009 A 
ENDROOT
BRANCH   1   8
ATOM      7  C   UNL     1       4.400  -3.947  23.123  0.00  0.00    +0.036 C 
ATOM      8  C   UNL     1       5.600  -4.717  23.740  0.00  0.00    +0.145 C 
ATOM      9  C   UNL     1       5.635  -6.086  23.051  0.00  0.00    +0.240 C 
ATOM     10  O   UNL     1       6.380  -6.382  22.116  0.00  0.00    -0.274 OA
ATOM     11  N   UNL     1       4.718  -7.005  23.490  0.00  0.00    -0.239 N 
ATOM     12  H   UNL     1       4.734  -7.901  23.016  0.00  0.00    +0.159 HD
ATOM     13  C   UNL     1       4.180  -7.027  24.737  0.00  0.00    +0.312 C 
ATOM     14  O   UNL     1       3.671  -8.042  25.199  0.00  0.00    -0.252 OA
ATOM     15  N   UNL     1       4.325  -5.901  25.485  0.00  0.00    -0.239 N 
ATOM     16  H   UNL     1       4.044  -5.991  26.453  0.00  0.00    +0.159 HD
ATOM     17  C   UNL     1       5.210  -4.892  25.212  0.00  0.00    +0.240 C 
ATOM     18  O   UNL     1       5.580  -4.162  26.131  0.00  0.00    -0.274 OA
ENDBRANCH   1   8
BRANCH   4  19
ATOM     19  O   UNL     1      10.473  -1.711  23.065  0.00  0.00    -0.456 OA
BRANCH  19  20
ATOM     20  C   UNL     1      10.373  -0.338  23.145  0.00  0.00    +0.128 A 
ATOM     21  C   UNL     1      10.566   0.393  24.322  0.00  0.00    +0.046 A 
ATOM     22  C   UNL     1      10.521   1.787  24.298  0.00  0.00    +0.004 A 
ATOM     23  C   UNL     1      10.216   2.455  23.114  0.00  0.00    +0.000 A 
ATOM     24  C   UNL     1       9.937   1.726  21.957  0.00  0.00    +0.004 A 
ATOM     25  C   UNL     1      10.016   0.332  21.972  0.00  0.00    +0.046 A 
ENDBRANCH  19  20
ENDBRANCH   4  19
TORSDOF 3
ENDMDL
MODEL 6
REMARK VINA RESULT:      -7.2      3.307      7.544
REMARK  Name = 
REMARK  4 active torsions:
REMARK  status: ('A' for Active; 'I' for Inactive)
REMARK    1  A    between atoms: C_1  and  C_2
REMARK    2  A    between atoms: C_2  and  C_11
REMARK    3  A    between atoms: C_14  and  O_15
REMARK    4  A    between atoms: O_15  and  C_16
REMARK                            x       y       z     vdW  Elec       q    Type
REMARK                         _______ _______ _______ _____ _____    ______ ____
ROOT
ATOM      1  C   UNL     1       8.984  -0.063  23.511  0.00  0.00    -0.024 A 
ATOM      2  C   UNL     1       7.756  -0.703  23.262  0.00  0.00    +0.009 A 
ATOM      3  C   UNL     1       7.635  -2.095  23.270  0.00  0.00    +0.046 A 
ATOM      4  C   UNL     1       8.722  -2.894  23.616  0.00  0.00    +0.128 A 
ATOM      5  C   UNL     1       9.955  -2.288  23.847  0.00  0.00    +0.046 A 
ATOM      6  C   UNL     1      10.084  -0.891  23.806  0.00  0.00    +0.009 A 
ENDROOT
BRANCH   1   8
ATOM      7  C   UNL     1      10.550   1.954  23.775  0.00  0.00    +0.036 C 
ATOM      8  C   UNL     1       9.091   1.479  23.523  0.00  0.00    +0.145 C 
ATOM      9  C   UNL     1       8.675   2.065  22.169  0.00  0.00    +0.240 C 
ATOM     10  O   UNL     1       8.686   1.446  21.104  0.00  0.00    -0.274 OA
ATOM     11  N   UNL     1       8.327   3.390  22.166  0.00  0.00    -0.239 N 
ATOM     12  H   UNL     1       8.073   3.775  21.265  0.00  0.00    +0.159 HD
ATOM     13  C   UNL     1       7.828   4.061  23.237  0.00  0.00    +0.312 C 
ATOM     14  O   UNL     1       7.198   5.105  23.104  0.00  0.00    -0.252 OA
ATOM     15  N   UNL     1       7.970   3.467  24.451  0.00  0.00    -0.239 N 
ATOM     16  H   UNL     1       7.468   3.914  25.208  0.00  0.00    +0.159 HD
ATOM     17  C   UNL     1       8.286   2.148  24.642  0.00  0.00    +0.240 C 
ATOM     18  O   UNL     1       7.970   1.609  25.703  0.00  0.00    -0.274 OA
ENDBRANCH   1   8
BRANCH   4  19
ATOM     19  O   UNL     1       8.676  -4.268  23.718  0.00  0.00    -0.456 OA
BRANCH  19  20
ATOM     20  C   UNL     1       7.476  -4.924  23.540  0.00  0.00    +0.128 A 
ATOM     21  C   UNL     1       6.559  -5.169  24.568  0.00  0.00    +0.046 A 
ATOM     22  C   UNL     1       5.333  -5.773  24.286  0.00  0.00    +0.004 A 
ATOM     23  C   UNL     1       5.047  -6.198  22.990  0.00  0.00    +0.000 A 
ATOM     24  C   UNL     1       5.995  -6.034  21.980  0.00  0.00    +0.004 A 
ATOM     25  C   UNL     1       7.208  -5.399  22.254  0.00  0.00    +0.046 A 
ENDBRANCH  19  20
ENDBRANCH   4  19
TORSDOF 3
ENDMDL
MODEL 7
REMARK VINA RESULT:      -7.1      3.131      7.625
REMARK  Name = 
REMARK  4 active torsions:
REMARK  status: ('A' for Active; 'I' for Inactive)
REMARK    1  A    between atoms: C_1  and  C_2
REMARK    2  A    between atoms: C_2  and  C_11
REMARK    3  A    between atoms: C_14  and  O_15
REMARK    4  A    between atoms: O_15  and  C_16
REMARK                            x       y       z     vdW  Elec       q    Type
REMARK                         _______ _______ _______ _____ _____    ______ ____
ROOT
ATOM      1  C   UNL     1       8.032  -0.989  23.272  0.00  0.00    -0.024 A 
ATOM      2  C   UNL     1       6.702  -1.447  23.246  0.00  0.00    +0.009 A 
ATOM      3  C   UNL     1       6.383  -2.794  23.438  0.00  0.00    +0.046 A 
ATOM      4  C   UNL     1       7.377  -3.716  23.754  0.00  0.00    +0.128 A 
ATOM      5  C   UNL     1       8.705  -3.294  23.766  0.00  0.00    +0.046 A 
ATOM      6  C   UNL     1       9.029  -1.946  23.539  0.00  0.00    +0.009 A 
ENDROOT
BRANCH   1   8
ATOM      7  C   UNL     1       7.091   1.343  22.759  0.00  0.00    +0.036 C 
ATOM      8  C   UNL     1       8.362   0.509  23.082  0.00  0.00    +0.145 C 
ATOM      9  C   UNL     1       8.953   1.104  24.365  0.00  0.00    +0.240 C 
ATOM     10  O   UNL     1       8.791   0.639  25.494  0.00  0.00    -0.274 OA
ATOM     11  N   UNL     1       9.659   2.269  24.220  0.00  0.00    -0.239 N 
ATOM     12  H   UNL     1      10.030   2.667  25.074  0.00  0.00    +0.159 HD
ATOM     13  C   UNL     1      10.305   2.646  23.086  0.00  0.00    +0.312 C 
ATOM     14  O   UNL     1      11.205   3.479  23.106  0.00  0.00    -0.252 OA
ATOM     15  N   UNL     1       9.978   1.983  21.946  0.00  0.00    -0.239 N 
ATOM     16  H   UNL     1      10.569   2.181  21.149  0.00  0.00    +0.159 HD
ATOM     17  C   UNL     1       9.300   0.793  21.903  0.00  0.00    +0.240 C 
ATOM     18  O   UNL     1       9.430   0.070  20.916  0.00  0.00    -0.274 OA
ENDBRANCH   1   8
BRANCH   4  19
ATOM     19  O   UNL     1       7.147  -5.047  24.029  0.00  0.00    -0.456 OA
BRANCH  19  20
ATOM     20  C   UNL     1       6.629  -5.409  25.255  0.00  0.00    +0.128 A 
ATOM     21  C   UNL     1       7.294  -5.221  26.471  0.00  0.00    +0.046 A 
ATOM     22  C   UNL     1       6.665  -5.547  27.673  0.00  0.00    +0.004 A 
ATOM     23  C   UNL     1       5.398  -6.127  27.662  0.00  0.00    +0.000 A 
ATOM     24  C   UNL     1       4.767  -6.396  26.447  0.00  0.00    +0.004 A 
ATOM     25  C   UNL     1       5.382  -6.038  25.245  0.00  0.00    +0.046 A 
ENDBRANCH  19  20
ENDBRANCH   4  19
TORSDOF 3
ENDMDL
MODEL 8
REMARK VINA RESULT:      -7.1      1.872      3.149
REMARK  Name = 
REMARK  4 active torsions:
REMARK  status: ('A' for Active; 'I' for Inactive)
REMARK    1  A    between atoms: C_1  and  C_2
REMARK    2  A    between atoms: C_2  and  C_11
REMARK    3  A    between atoms: C_14  and  O_15
REMARK    4  A    between atoms: O_15  and  C_16
REMARK                            x       y       z     vdW  Elec       q    Type
REMARK                         _______ _______ _______ _____ _____    ______ ____
ROOT
ATOM      1  C   UNL     1       9.116  -0.712  24.215  0.00  0.00    -0.024 A 
ATOM      2  C   UNL     1       9.831   0.184  25.031  0.00  0.00    +0.009 A 
ATOM      3  C   UNL     1      10.461   1.315  24.506  0.00  0.00    +0.046 A 
ATOM      4  C   UNL     1      10.321   1.638  23.158  0.00  0.00    +0.128 A 
ATOM      5  C   UNL     1       9.637   0.757  22.324  0.00  0.00    +0.046 A 
ATOM      6  C   UNL     1       9.032  -0.398  22.845  0.00  0.00    +0.009 A 
ENDROOT
BRANCH   1   8
ATOM      7  C   UNL     1       8.481  -1.951  26.371  0.00  0.00    +0.036 C 
ATOM      8  C   UNL     1       8.404  -1.945  24.819  0.00  0.00    +0.145 C 
ATOM      9  C   UNL     1       6.914  -1.943  24.461  0.00  0.00    +0.240 C 
ATOM     10  O   UNL     1       6.269  -0.943  24.145  0.00  0.00    -0.274 OA
ATOM     11  N   UNL     1       6.267  -3.147  24.566  0.00  0.00    -0.239 N 
ATOM     12  H   UNL     1       5.278  -3.134  24.347  0.00  0.00    +0.159 HD
ATOM     13  C   UNL     1       6.865  -4.360  24.440  0.00  0.00    +0.312 C 
ATOM     14  O   UNL     1       6.221  -5.369  24.174  0.00  0.00    -0.252 OA
ATOM     15  N   UNL     1       8.222  -4.384  24.522  0.00  0.00    -0.239 N 
ATOM     16  H   UNL     1       8.650  -5.270  24.286  0.00  0.00    +0.159 HD
ATOM     17  C   UNL     1       9.030  -3.283  24.412  0.00  0.00    +0.240 C 
ATOM     18  O   UNL     1      10.200  -3.438  24.064  0.00  0.00    -0.274 OA
ENDBRANCH   1   8
BRANCH   4  19
ATOM     19  O   UNL     1      10.848   2.768  22.570  0.00  0.00    -0.456 OA
BRANCH  19  20
ATOM     20  C   UNL     1      10.820   3.967  23.252  0.00  0.00    +0.128 A 
ATOM     21  C   UNL     1       9.667   4.513  23.826  0.00  0.00    +0.046 A 
ATOM     22  C   UNL     1       9.742   5.695  24.565  0.00  0.00    +0.004 A 
ATOM     23  C   UNL     1      10.955   6.371  24.676  0.00  0.00    +0.000 A 
ATOM     24  C   UNL     1      12.089   5.875  24.032  0.00  0.00    +0.004 A 
ATOM     25  C   UNL     1      12.022   4.675  23.321  0.00  0.00    +0.046 A 
ENDBRANCH  19  20
ENDBRANCH   4  19
TORSDOF 3
ENDMDL
MODEL 9
REMARK VINA RESULT:      -7.1      1.718      2.671
REMARK  Name = 
REMARK  4 active torsions:
REMARK  status: ('A' for Active; 'I' for Inactive)
REMARK    1  A    between atoms: C_1  and  C_2
REMARK    2  A    between atoms: C_2  and  C_11
REMARK    3  A    between atoms: C_14  and  O_15
REMARK    4  A    between atoms: O_15  and  C_16
REMARK                            x       y       z     vdW  Elec       q    Type
REMARK                         _______ _______ _______ _____ _____    ______ ____
ROOT
ATOM      1  C   UNL     1       8.908  -0.627  24.154  0.00  0.00    -0.024 A 
ATOM      2  C   UNL     1       8.560  -0.036  22.925  0.00  0.00    +0.009 A 
ATOM      3  C   UNL     1       9.187   1.123  22.461  0.00  0.00    +0.046 A 
ATOM      4  C   UNL     1      10.249   1.681  23.169  0.00  0.00    +0.128 A 
ATOM      5  C   UNL     1      10.601   1.129  24.398  0.00  0.00    +0.046 A 
ATOM      6  C   UNL     1       9.947  -0.017  24.881  0.00  0.00    +0.009 A 
ENDROOT
BRANCH   1   8
ATOM      7  C   UNL     1       7.011  -2.304  23.737  0.00  0.00    +0.036 C 
ATOM      8  C   UNL     1       8.219  -1.924  24.637  0.00  0.00    +0.145 C 
ATOM      9  C   UNL     1       9.189  -3.109  24.580  0.00  0.00    +0.240 C 
ATOM     10  O   UNL     1      10.190  -3.164  23.866  0.00  0.00    -0.274 OA
ATOM     11  N   UNL     1       8.859  -4.195  25.349  0.00  0.00    -0.239 N 
ATOM     12  H   UNL     1       9.494  -4.983  25.291  0.00  0.00    +0.159 HD
ATOM     13  C   UNL     1       8.114  -4.143  26.483  0.00  0.00    +0.312 C 
ATOM     14  O   UNL     1       8.152  -5.040  27.319  0.00  0.00    -0.252 OA
ATOM     15  N   UNL     1       7.405  -3.004  26.697  0.00  0.00    -0.239 N 
ATOM     16  H   UNL     1       6.974  -2.931  27.610  0.00  0.00    +0.159 HD
ATOM     17  C   UNL     1       7.616  -1.819  26.042  0.00  0.00    +0.240 C 
ATOM     18  O   UNL     1       7.257  -0.771  26.580  0.00  0.00    -0.274 OA
ENDBRANCH   1   8
BRANCH   4  19
ATOM     19  O   UNL     1      10.970   2.779  22.752  0.00  0.00    -0.456 OA
BRANCH  19  20
ATOM     20  C   UNL     1      10.816   3.983  23.407  0.00  0.00    +0.128 A 
ATOM     21  C   UNL     1      11.851   4.903  23.606  0.00  0.00    +0.046 A 
ATOM     22  C   UNL     1      11.591   6.133  24.212  0.00  0.00    +0.004 A 
ATOM     23  C   UNL     1      10.312   6.421  24.684  0.00  0.00    +0.000 A 
ATOM     24  C   UNL     1       9.297   5.471  24.565  0.00  0.00    +0.004 A 
ATOM     25  C   UNL     1       9.549   4.254  23.927  0.00  0.00    +0.046 A 
ENDBRANCH  19  20
ENDBRANCH   4  19
TORSDOF 3
ENDMDL
