MODEL 1
REMARK VINA RESULT:      -6.5      0.000      0.000
REMARK  Name = 
REMARK  8 active torsions:
REMARK  status: ('A' for Active; 'I' for Inactive)
REMARK    1  A    between atoms: C_1  and  C_2
REMARK    2  A    between atoms: C_2  and  C_3
REMARK    3  A    between atoms: C_2  and  C_4
REMARK    4  A    between atoms: C_2  and  C_5
REMARK    5  A    between atoms: N_7  and  C_20
REMARK    6  A    between atoms: C_8  and  N_9
REMARK    7  A    between atoms: N_12  and  C_13
REMARK    8  A    between atoms: C_24  and  N_25
REMARK                            x       y       z     vdW  Elec       q    Type
REMARK                         _______ _______ _______ _____ _____    ______ ____
ROOT
ATOM      1  C   UNL     1       8.909  -1.381  24.056  0.00  0.00    +0.071 A 
ATOM      2  C   UNL     1       8.934  -2.028  25.306  0.00  0.00    +0.069 A 
ATOM      3  C   UNL     1       8.402  -3.280  25.106  0.00  0.00    +0.130 A 
ATOM      4  N   UNL     1       7.933  -3.295  23.789  0.00  0.00    -0.218 N 
ATOM      5  N   UNL     1       8.337  -2.163  23.131  0.00  0.00    -0.169 NA
ENDROOT
BRANCH   3   6
ATOM      6  N   UNL     1       8.326  -4.310  26.042  0.00  0.00    -0.254 N 
ATOM      7  H   UNL     1       8.819  -5.167  25.862  0.00  0.00    +0.158 HD
ATOM      8  C   UNL     1       7.146  -4.417  26.775  0.00  0.00    +0.309 C 
ATOM      9  N   UNL     1       7.152  -5.549  27.578  0.00  0.00    -0.269 N 
ATOM     10  H   UNL     1       8.056  -5.891  27.856  0.00  0.00    +0.156 HD
ATOM     11  O   UNL     1       6.216  -3.619  26.694  0.00  0.00    -0.252 OA
BRANCH   9  12
ATOM     12  C   UNL     1       6.036  -6.009  28.318  0.00  0.00    +0.035 A 
ATOM     13  C   UNL     1       6.086  -5.914  29.712  0.00  0.00    +0.023 A 
ATOM     14  C   UNL     1       4.984  -6.298  30.485  0.00  0.00    +0.002 A 
ATOM     15  C   UNL     1       3.837  -6.800  29.875  0.00  0.00    +0.000 A 
ATOM     16  C   UNL     1       3.802  -6.944  28.492  0.00  0.00    +0.002 A 
ATOM     17  C   UNL     1       4.896  -6.555  27.719  0.00  0.00    +0.023 A 
ENDBRANCH   9  12
ENDBRANCH   3   6
BRANCH   4  18
ATOM     18  C   UNL     1       7.099  -4.246  23.114  0.00  0.00    +0.069 A 
ATOM     19  C   UNL     1       5.727  -4.298  23.428  0.00  0.00    +0.050 A 
ATOM     20  C   UNL     1       4.855  -5.158  22.746  0.00  0.00    +0.027 A 
ATOM     21  C   UNL     1       5.379  -6.045  21.805  0.00  0.00    +0.023 A 
ATOM     22  C   UNL     1       6.740  -6.042  21.515  0.00  0.00    +0.004 A 
ATOM     23  C   UNL     1       7.599  -5.160  22.175  0.00  0.00    +0.028 A 
BRANCH  20  24
ATOM     24  N   UNL     1       3.525  -5.295  23.162  0.00  0.00    -0.358 N 
ATOM     25  H   UNL     1       3.190  -4.524  23.730  0.00  0.00    +0.142 HD
ATOM     26  H   UNL     1       2.881  -5.535  22.413  0.00  0.00    +0.142 HD
ENDBRANCH  20  24
ENDBRANCH   4  18
BRANCH   1  28
ATOM     27  C   UNL     1       8.308   1.049  23.995  0.00  0.00    +0.017 C 
ATOM     28  C   UNL     1       9.420   0.017  23.729  0.00  0.00    +0.006 C 
ATOM     29  C   UNL     1      10.641   0.379  24.604  0.00  0.00    +0.017 C 
ATOM     30  C   UNL     1       9.864   0.138  22.255  0.00  0.00    +0.017 C 
ENDBRANCH   1  28
TORSDOF 5
ENDMDL
MODEL 2
REMARK VINA RESULT:      -6.3      3.925      6.987
REMARK  Name = 
REMARK  8 active torsions:
REMARK  status: ('A' for Active; 'I' for Inactive)
REMARK    1  A    between atoms: C_1  and  C_2
REMARK    2  A    between atoms: C_2  and  C_3
REMARK    3  A    between atoms: C_2  and  C_4
REMARK    4  A    between atoms: C_2  and  C_5
REMARK    5  A    between atoms: N_7  and  C_20
REMARK    6  A    between atoms: C_8  and  N_9
REMARK    7  A    between atoms: N_12  and  C_13
REMARK    8  A    between atoms: C_24  and  N_25
REMARK                            x       y       z     vdW  Elec       q    Type
REMARK                         _______ _______ _______ _____ _____    ______ ____
ROOT
ATOM      1  C   UNL     1       5.661   1.813  26.942  0.00  0.00    +0.071 A 
ATOM      2  C   UNL     1       5.055   1.176  25.842  0.00  0.00    +0.069 A 
ATOM      3  C   UNL     1       6.077   0.765  25.020  0.00  0.00    +0.130 A 
ATOM      4  N   UNL     1       7.249   1.299  25.564  0.00  0.00    -0.218 N 
ATOM      5  N   UNL     1       6.991   1.853  26.790  0.00  0.00    -0.169 NA
ENDROOT
BRANCH   3   6
ATOM      6  N   UNL     1       5.955  -0.004  23.864  0.00  0.00    -0.254 N 
ATOM      7  H   UNL     1       5.263   0.251  23.181  0.00  0.00    +0.158 HD
ATOM      8  C   UNL     1       6.246  -1.363  23.971  0.00  0.00    +0.309 C 
ATOM      9  N   UNL     1       5.968  -2.033  22.788  0.00  0.00    -0.269 N 
ATOM     10  H   UNL     1       6.007  -1.483  21.947  0.00  0.00    +0.156 HD
ATOM     11  O   UNL     1       6.670  -1.892  24.995  0.00  0.00    -0.252 OA
BRANCH   9  12
ATOM     12  C   UNL     1       6.015  -3.440  22.637  0.00  0.00    +0.035 A 
ATOM     13  C   UNL     1       4.872  -4.177  22.964  0.00  0.00    +0.023 A 
ATOM     14  C   UNL     1       4.848  -5.562  22.773  0.00  0.00    +0.002 A 
ATOM     15  C   UNL     1       5.970  -6.225  22.278  0.00  0.00    +0.000 A 
ATOM     16  C   UNL     1       7.125  -5.504  22.000  0.00  0.00    +0.002 A 
ATOM     17  C   UNL     1       7.150  -4.121  22.182  0.00  0.00    +0.023 A 
ENDBRANCH   9  12
ENDBRANCH   3   6
BRANCH   4  18
ATOM     18  C   UNL     1       8.571   1.381  25.014  0.00  0.00    +0.069 A 
ATOM     19  C   UNL     1       8.953   2.546  24.321  0.00  0.00    +0.050 A 
ATOM     20  C   UNL     1      10.255   2.707  23.828  0.00  0.00    +0.027 A 
ATOM     21  C   UNL     1      11.159   1.650  23.947  0.00  0.00    +0.023 A 
ATOM     22  C   UNL     1      10.785   0.472  24.586  0.00  0.00    +0.004 A 
ATOM     23  C   UNL     1       9.496   0.330  25.104  0.00  0.00    +0.028 A 
BRANCH  20  24
ATOM     24  N   UNL     1      10.578   3.808  23.026  0.00  0.00    -0.358 N 
ATOM     25  H   UNL     1       9.774   4.346  22.721  0.00  0.00    +0.142 HD
ATOM     26  H   UNL     1      11.317   4.394  23.407  0.00  0.00    +0.142 HD
ENDBRANCH  20  24
ENDBRANCH   4  18
BRANCH   1  28
ATOM     27  C   UNL     1       3.771   1.532  28.562  0.00  0.00    +0.017 C 
ATOM     28  C   UNL     1       4.968   2.415  28.158  0.00  0.00    +0.006 C 
ATOM     29  C   UNL     1       5.935   2.505  29.359  0.00  0.00    +0.017 C 
ATOM     30  C   UNL     1       4.455   3.844  27.879  0.00  0.00    +0.017 C 
ENDBRANCH   1  28
TORSDOF 5
ENDMDL
MODEL 3
REMARK VINA RESULT:      -6.1      3.516      6.462
REMARK  Name = 
REMARK  8 active torsions:
REMARK  status: ('A' for Active; 'I' for Inactive)
REMARK    1  A    between atoms: C_1  and  C_2
REMARK    2  A    between atoms: C_2  and  C_3
REMARK    3  A    between atoms: C_2  and  C_4
REMARK    4  A    between atoms: C_2  and  C_5
REMARK    5  A    between atoms: N_7  and  C_20
REMARK    6  A    between atoms: C_8  and  N_9
REMARK    7  A    between atoms: N_12  and  C_13
REMARK    8  A    between atoms: C_24  and  N_25
REMARK                            x       y       z     vdW  Elec       q    Type
REMARK                         _______ _______ _______ _____ _____    ______ ____
ROOT
ATOM      1  C   UNL     1       6.642  -3.803  23.027  0.00  0.00    +0.071 A 
ATOM      2  C   UNL     1       5.756  -3.127  23.886  0.00  0.00    +0.069 A 
ATOM      3  C   UNL     1       6.274  -1.866  24.064  0.00  0.00    +0.130 A 
ATOM      4  N   UNL     1       7.525  -1.870  23.440  0.00  0.00    -0.218 N 
ATOM      5  N   UNL     1       7.693  -3.028  22.728  0.00  0.00    -0.169 NA
ENDROOT
BRANCH   3   6
ATOM      6  N   UNL     1       5.677  -0.812  24.753  0.00  0.00    -0.254 N 
ATOM      7  H   UNL     1       5.478   0.041  24.259  0.00  0.00    +0.158 HD
ATOM      8  C   UNL     1       5.977  -0.686  26.108  0.00  0.00    +0.309 C 
ATOM      9  N   UNL     1       5.421   0.467  26.644  0.00  0.00    -0.269 N 
ATOM     10  H   UNL     1       4.597   0.816  26.184  0.00  0.00    +0.156 HD
ATOM     11  O   UNL     1       6.670  -1.486  26.732  0.00  0.00    -0.252 OA
BRANCH   9  12
ATOM     12  C   UNL     1       5.678   0.946  27.951  0.00  0.00    +0.035 A 
ATOM     13  C   UNL     1       6.750   1.825  28.132  0.00  0.00    +0.023 A 
ATOM     14  C   UNL     1       7.007   2.374  29.393  0.00  0.00    +0.002 A 
ATOM     15  C   UNL     1       6.212   2.032  30.485  0.00  0.00    +0.000 A 
ATOM     16  C   UNL     1       5.176   1.120  30.320  0.00  0.00    +0.002 A 
ATOM     17  C   UNL     1       4.913   0.576  29.063  0.00  0.00    +0.023 A 
ENDBRANCH   9  12
ENDBRANCH   3   6
BRANCH   4  18
ATOM     18  C   UNL     1       8.591  -0.913  23.496  0.00  0.00    +0.069 A 
ATOM     19  C   UNL     1       8.660   0.093  22.512  0.00  0.00    +0.050 A 
ATOM     20  C   UNL     1       9.638   1.096  22.563  0.00  0.00    +0.027 A 
ATOM     21  C   UNL     1      10.616   1.037  23.557  0.00  0.00    +0.023 A 
ATOM     22  C   UNL     1      10.592   0.023  24.510  0.00  0.00    +0.004 A 
ATOM     23  C   UNL     1       9.596  -0.955  24.473  0.00  0.00    +0.028 A 
BRANCH  20  24
ATOM     24  N   UNL     1       9.777   2.004  21.507  0.00  0.00    -0.358 N 
ATOM     25  H   UNL     1      10.680   2.465  21.475  0.00  0.00    +0.142 HD
ATOM     26  H   UNL     1       9.499   1.632  20.602  0.00  0.00    +0.142 HD
ENDBRANCH  20  24
ENDBRANCH   4  18
BRANCH   1  28
ATOM     27  C   UNL     1       6.087  -5.176  21.006  0.00  0.00    +0.017 C 
ATOM     28  C   UNL     1       6.505  -5.222  22.489  0.00  0.00    +0.006 C 
ATOM     29  C   UNL     1       7.844  -5.986  22.594  0.00  0.00    +0.017 C 
ATOM     30  C   UNL     1       5.454  -6.036  23.273  0.00  0.00    +0.017 C 
ENDBRANCH   1  28
TORSDOF 5
ENDMDL
MODEL 4
REMARK VINA RESULT:      -6.1      2.418      7.579
REMARK  Name = 
REMARK  8 active torsions:
REMARK  status: ('A' for Active; 'I' for Inactive)
REMARK    1  A    between atoms: C_1  and  C_2
REMARK    2  A    between atoms: C_2  and  C_3
REMARK    3  A    between atoms: C_2  and  C_4
REMARK    4  A    between atoms: C_2  and  C_5
REMARK    5  A    between atoms: N_7  and  C_20
REMARK    6  A    between atoms: C_8  and  N_9
REMARK    7  A    between atoms: N_12  and  C_13
REMARK    8  A    between atoms: C_24  and  N_25
REMARK                            x       y       z     vdW  Elec       q    Type
REMARK                         _______ _______ _______ _____ _____    ______ ____
ROOT
ATOM      1  C   UNL     1       2.747  -6.542  23.595  0.00  0.00    +0.071 A 
ATOM      2  C   UNL     1       3.786  -5.992  22.820  0.00  0.00    +0.069 A 
ATOM      3  C   UNL     1       4.893  -5.942  23.633  0.00  0.00    +0.130 A 
ATOM      4  N   UNL     1       4.454  -6.314  24.907  0.00  0.00    -0.218 N 
ATOM      5  N   UNL     1       3.164  -6.771  24.847  0.00  0.00    -0.169 NA
ENDROOT
BRANCH   3   6
ATOM      6  N   UNL     1       6.183  -5.569  23.258  0.00  0.00    -0.254 N 
ATOM      7  H   UNL     1       6.943  -6.201  23.440  0.00  0.00    +0.158 HD
ATOM      8  C   UNL     1       6.487  -4.210  23.293  0.00  0.00    +0.309 C 
ATOM      9  N   UNL     1       7.829  -3.986  23.020  0.00  0.00    -0.269 N 
ATOM     10  H   UNL     1       8.289  -4.682  22.458  0.00  0.00    +0.156 HD
ATOM     11  O   UNL     1       5.669  -3.333  23.560  0.00  0.00    -0.252 OA
BRANCH   9  12
ATOM     12  C   UNL     1       8.468  -2.728  23.133  0.00  0.00    +0.035 A 
ATOM     13  C   UNL     1       8.897  -2.317  24.399  0.00  0.00    +0.023 A 
ATOM     14  C   UNL     1       9.589  -1.111  24.553  0.00  0.00    +0.002 A 
ATOM     15  C   UNL     1       9.836  -0.296  23.450  0.00  0.00    +0.000 A 
ATOM     16  C   UNL     1       9.368  -0.675  22.197  0.00  0.00    +0.002 A 
ATOM     17  C   UNL     1       8.684  -1.881  22.040  0.00  0.00    +0.023 A 
ENDBRANCH   9  12
ENDBRANCH   3   6
BRANCH   4  18
ATOM     18  C   UNL     1       5.116  -6.228  26.176  0.00  0.00    +0.069 A 
ATOM     19  C   UNL     1       4.489  -6.770  27.314  0.00  0.00    +0.050 A 
ATOM     20  C   UNL     1       5.124  -6.777  28.563  0.00  0.00    +0.027 A 
ATOM     21  C   UNL     1       6.363  -6.150  28.695  0.00  0.00    +0.023 A 
ATOM     22  C   UNL     1       6.978  -5.565  27.592  0.00  0.00    +0.004 A 
ATOM     23  C   UNL     1       6.354  -5.590  26.342  0.00  0.00    +0.028 A 
BRANCH  20  24
ATOM     24  N   UNL     1       4.434  -7.196  29.707  0.00  0.00    -0.358 N 
ATOM     25  H   UNL     1       4.294  -8.199  29.760  0.00  0.00    +0.142 HD
ATOM     26  H   UNL     1       4.798  -6.808  30.574  0.00  0.00    +0.142 HD
ENDBRANCH  20  24
ENDBRANCH   4  18
BRANCH   1  28
ATOM     27  C   UNL     1       0.512  -7.391  24.340  0.00  0.00    +0.017 C 
ATOM     28  C   UNL     1       1.321  -6.841  23.149  0.00  0.00    +0.006 C 
ATOM     29  C   UNL     1       0.622  -5.564  22.634  0.00  0.00    +0.017 C 
ATOM     30  C   UNL     1       1.281  -7.876  22.005  0.00  0.00    +0.017 C 
ENDBRANCH   1  28
TORSDOF 5
ENDMDL
MODEL 5
REMARK VINA RESULT:      -6.1      3.851      8.743
REMARK  Name = 
REMARK  8 active torsions:
REMARK  status: ('A' for Active; 'I' for Inactive)
REMARK    1  A    between atoms: C_1  and  C_2
REMARK    2  A    between atoms: C_2  and  C_3
REMARK    3  A    between atoms: C_2  and  C_4
REMARK    4  A    between atoms: C_2  and  C_5
REMARK    5  A    between atoms: N_7  and  C_20
REMARK    6  A    between atoms: C_8  and  N_9
REMARK    7  A    between atoms: N_12  and  C_13
REMARK    8  A    between atoms: C_24  and  N_25
REMARK                            x       y       z     vdW  Elec       q    Type
REMARK                         _______ _______ _______ _____ _____    ______ ____
ROOT
ATOM      1  C   UNL     1       7.783  -3.007  25.122  0.00  0.00    +0.071 A 
ATOM      2  C   UNL     1       7.759  -2.004  24.134  0.00  0.00    +0.069 A 
ATOM      3  C   UNL     1       7.469  -0.827  24.783  0.00  0.00    +0.130 A 
ATOM      4  N   UNL     1       7.175  -1.176  26.104  0.00  0.00    -0.218 N 
ATOM      5  N   UNL     1       7.466  -2.498  26.319  0.00  0.00    -0.169 NA
ENDROOT
BRANCH   3   6
ATOM      6  N   UNL     1       7.448   0.448  24.221  0.00  0.00    -0.254 N 
ATOM      7  H   UNL     1       6.975   0.585  23.344  0.00  0.00    +0.158 HD
ATOM      8  C   UNL     1       8.547   1.269  24.465  0.00  0.00    +0.309 C 
ATOM      9  N   UNL     1       8.459   2.457  23.752  0.00  0.00    -0.269 N 
ATOM     10  H   UNL     1       7.531   2.763  23.515  0.00  0.00    +0.156 HD
ATOM     11  O   UNL     1       9.481   0.959  25.200  0.00  0.00    -0.252 OA
BRANCH   9  12
ATOM     12  C   UNL     1       9.493   3.421  23.675  0.00  0.00    +0.035 A 
ATOM     13  C   UNL     1       9.190   4.741  24.021  0.00  0.00    +0.023 A 
ATOM     14  C   UNL     1      10.192   5.718  24.019  0.00  0.00    +0.002 A 
ATOM     15  C   UNL     1      11.495   5.389  23.651  0.00  0.00    +0.000 A 
ATOM     16  C   UNL     1      11.790   4.089  23.258  0.00  0.00    +0.002 A 
ATOM     17  C   UNL     1      10.795   3.111  23.265  0.00  0.00    +0.023 A 
ENDBRANCH   9  12
ENDBRANCH   3   6
BRANCH   4  18
ATOM     18  C   UNL     1       6.598  -0.397  27.161  0.00  0.00    +0.069 A 
ATOM     19  C   UNL     1       7.433   0.430  27.936  0.00  0.00    +0.050 A 
ATOM     20  C   UNL     1       6.910   1.266  28.932  0.00  0.00    +0.027 A 
ATOM     21  C   UNL     1       5.546   1.203  29.220  0.00  0.00    +0.023 A 
ATOM     22  C   UNL     1       4.712   0.356  28.498  0.00  0.00    +0.004 A 
ATOM     23  C   UNL     1       5.234  -0.451  27.484  0.00  0.00    +0.028 A 
BRANCH  20  24
ATOM     24  N   UNL     1       7.766   1.978  29.782  0.00  0.00    -0.358 N 
ATOM     25  H   UNL     1       8.368   1.390  30.348  0.00  0.00    +0.142 HD
ATOM     26  H   UNL     1       8.276   2.727  29.321  0.00  0.00    +0.142 HD
ENDBRANCH  20  24
ENDBRANCH   4  18
BRANCH   1  28
ATOM     27  C   UNL     1       7.233  -5.326  25.892  0.00  0.00    +0.017 C 
ATOM     28  C   UNL     1       8.094  -4.486  24.929  0.00  0.00    +0.006 C 
ATOM     29  C   UNL     1       7.784  -4.933  23.483  0.00  0.00    +0.017 C 
ATOM     30  C   UNL     1       9.582  -4.801  25.193  0.00  0.00    +0.017 C 
ENDBRANCH   1  28
TORSDOF 5
ENDMDL
MODEL 6
REMARK VINA RESULT:      -6.0      5.678     10.205
REMARK  Name = 
REMARK  8 active torsions:
REMARK  status: ('A' for Active; 'I' for Inactive)
REMARK    1  A    between atoms: C_1  and  C_2
REMARK    2  A    between atoms: C_2  and  C_3
REMARK    3  A    between atoms: C_2  and  C_4
REMARK    4  A    between atoms: C_2  and  C_5
REMARK    5  A    between atoms: N_7  and  C_20
REMARK    6  A    between atoms: C_8  and  N_9
REMARK    7  A    between atoms: N_12  and  C_13
REMARK    8  A    between atoms: C_24  and  N_25
REMARK                            x       y       z     vdW  Elec       q    Type
REMARK                         _______ _______ _______ _____ _____    ______ ____
ROOT
ATOM      1  C   UNL     1       8.937   0.393  23.404  0.00  0.00    +0.071 A 
ATOM      2  C   UNL     1       7.716   0.926  23.862  0.00  0.00    +0.069 A 
ATOM      3  C   UNL     1       7.880   2.290  23.906  0.00  0.00    +0.130 A 
ATOM      4  N   UNL     1       9.229   2.526  23.627  0.00  0.00    -0.218 N 
ATOM      5  N   UNL     1       9.839   1.366  23.227  0.00  0.00    -0.169 NA
ENDROOT
BRANCH   3   6
ATOM      6  N   UNL     1       6.898   3.235  24.197  0.00  0.00    -0.254 N 
ATOM      7  H   UNL     1       6.385   3.153  25.058  0.00  0.00    +0.158 HD
ATOM      8  C   UNL     1       6.214   3.795  23.120  0.00  0.00    +0.309 C 
ATOM      9  N   UNL     1       5.186   4.623  23.549  0.00  0.00    -0.269 N 
ATOM     10  H   UNL     1       5.302   5.038  24.458  0.00  0.00    +0.156 HD
ATOM     11  O   UNL     1       6.479   3.557  21.944  0.00  0.00    -0.252 OA
BRANCH   9  12
ATOM     12  C   UNL     1       4.222   5.209  22.695  0.00  0.00    +0.035 A 
ATOM     13  C   UNL     1       3.193   4.397  22.208  0.00  0.00    +0.023 A 
ATOM     14  C   UNL     1       2.181   4.943  21.410  0.00  0.00    +0.002 A 
ATOM     15  C   UNL     1       2.202   6.295  21.074  0.00  0.00    +0.000 A 
ATOM     16  C   UNL     1       3.251   7.095  21.514  0.00  0.00    +0.002 A 
ATOM     17  C   UNL     1       4.257   6.555  22.315  0.00  0.00    +0.023 A 
ENDBRANCH   9  12
ENDBRANCH   3   6
BRANCH   4  18
ATOM     18  C   UNL     1      10.004   3.726  23.753  0.00  0.00    +0.069 A 
ATOM     19  C   UNL     1      11.355   3.715  23.356  0.00  0.00    +0.050 A 
ATOM     20  C   UNL     1      12.135   4.878  23.390  0.00  0.00    +0.027 A 
ATOM     21  C   UNL     1      11.585   6.046  23.918  0.00  0.00    +0.023 A 
ATOM     22  C   UNL     1      10.265   6.066  24.362  0.00  0.00    +0.004 A 
ATOM     23  C   UNL     1       9.483   4.911  24.294  0.00  0.00    +0.028 A 
BRANCH  20  24
ATOM     24  N   UNL     1      13.508   4.819  23.122  0.00  0.00    -0.358 N 
ATOM     25  H   UNL     1      13.782   4.029  22.547  0.00  0.00    +0.142 HD
ATOM     26  H   UNL     1      13.903   5.696  22.791  0.00  0.00    +0.142 HD
ENDBRANCH  20  24
ENDBRANCH   4  18
BRANCH   1  28
ATOM     27  C   UNL     1       9.476  -1.799  24.488  0.00  0.00    +0.017 C 
ATOM     28  C   UNL     1       9.266  -1.072  23.146  0.00  0.00    +0.006 C 
ATOM     29  C   UNL     1       8.117  -1.772  22.386  0.00  0.00    +0.017 C 
ATOM     30  C   UNL     1      10.542  -1.233  22.292  0.00  0.00    +0.017 C 
ENDBRANCH   1  28
TORSDOF 5
ENDMDL
MODEL 7
REMARK VINA RESULT:      -6.0      2.324      7.152
REMARK  Name = 
REMARK  8 active torsions:
REMARK  status: ('A' for Active; 'I' for Inactive)
REMARK    1  A    between atoms: C_1  and  C_2
REMARK    2  A    between atoms: C_2  and  C_3
REMARK    3  A    between atoms: C_2  and  C_4
REMARK    4  A    between atoms: C_2  and  C_5
REMARK    5  A    between atoms: N_7  and  C_20
REMARK    6  A    between atoms: C_8  and  N_9
REMARK    7  A    between atoms: N_12  and  C_13
REMARK    8  A    between atoms: C_24  and  N_25
REMARK                            x       y       z     vdW  Elec       q    Type
REMARK                         _______ _______ _______ _____ _____    ______ ____
ROOT
ATOM      1  C   UNL     1       4.512  -3.535  27.714  0.00  0.00    +0.071 A 
ATOM      2  C   UNL     1       4.631  -2.237  27.181  0.00  0.00    +0.069 A 
ATOM      3  C   UNL     1       5.116  -2.385  25.903  0.00  0.00    +0.130 A 
ATOM      4  N   UNL     1       5.420  -3.742  25.759  0.00  0.00    -0.218 N 
ATOM      5  N   UNL     1       4.955  -4.446  26.838  0.00  0.00    -0.169 NA
ENDROOT
BRANCH   3   6
ATOM      6  N   UNL     1       5.290  -1.374  24.959  0.00  0.00    -0.254 N 
ATOM      7  H   UNL     1       4.751  -1.403  24.111  0.00  0.00    +0.158 HD
ATOM      8  C   UNL     1       6.558  -0.803  24.866  0.00  0.00    +0.309 C 
ATOM      9  N   UNL     1       6.630   0.096  23.811  0.00  0.00    -0.269 N 
ATOM     10  H   UNL     1       5.764   0.527  23.536  0.00  0.00    +0.156 HD
ATOM     11  O   UNL     1       7.492  -1.086  25.612  0.00  0.00    -0.252 OA
BRANCH   9  12
ATOM     12  C   UNL     1       7.824   0.717  23.371  0.00  0.00    +0.035 A 
ATOM     13  C   UNL     1       8.514   0.137  22.303  0.00  0.00    +0.023 A 
ATOM     14  C   UNL     1       9.665   0.747  21.791  0.00  0.00    +0.002 A 
ATOM     15  C   UNL     1      10.147   1.925  22.357  0.00  0.00    +0.000 A 
ATOM     16  C   UNL     1       9.493   2.479  23.451  0.00  0.00    +0.002 A 
ATOM     17  C   UNL     1       8.342   1.877  23.958  0.00  0.00    +0.023 A 
ENDBRANCH   9  12
ENDBRANCH   3   6
BRANCH   4  18
ATOM     18  C   UNL     1       6.151  -4.422  24.731  0.00  0.00    +0.069 A 
ATOM     19  C   UNL     1       5.443  -5.043  23.683  0.00  0.00    +0.050 A 
ATOM     20  C   UNL     1       6.110  -5.658  22.616  0.00  0.00    +0.027 A 
ATOM     21  C   UNL     1       7.503  -5.736  22.644  0.00  0.00    +0.023 A 
ATOM     22  C   UNL     1       8.219  -5.171  23.695  0.00  0.00    +0.004 A 
ATOM     23  C   UNL     1       7.549  -4.531  24.740  0.00  0.00    +0.028 A 
BRANCH  20  24
ATOM     24  N   UNL     1       5.395  -6.386  21.657  0.00  0.00    -0.358 N 
ATOM     25  H   UNL     1       4.668  -6.976  22.046  0.00  0.00    +0.142 HD
ATOM     26  H   UNL     1       5.064  -5.826  20.875  0.00  0.00    +0.142 HD
ENDBRANCH  20  24
ENDBRANCH   4  18
BRANCH   1  28
ATOM     27  C   UNL     1       4.968  -4.902  29.761  0.00  0.00    +0.017 C 
ATOM     28  C   UNL     1       3.986  -3.924  29.090  0.00  0.00    +0.006 C 
ATOM     29  C   UNL     1       3.838  -2.682  29.997  0.00  0.00    +0.017 C 
ATOM     30  C   UNL     1       2.598  -4.595  29.007  0.00  0.00    +0.017 C 
ENDBRANCH   1  28
TORSDOF 5
ENDMDL
MODEL 8
REMARK VINA RESULT:      -6.0      3.409      7.569
REMARK  Name = 
REMARK  8 active torsions:
REMARK  status: ('A' for Active; 'I' for Inactive)
REMARK    1  A    between atoms: C_1  and  C_2
REMARK    2  A    between atoms: C_2  and  C_3
REMARK    3  A    between atoms: C_2  and  C_4
REMARK    4  A    between atoms: C_2  and  C_5
REMARK    5  A    between atoms: N_7  and  C_20
REMARK    6  A    between atoms: C_8  and  N_9
REMARK    7  A    between atoms: N_12  and  C_13
REMARK    8  A    between atoms: C_24  and  N_25
REMARK                            x       y       z     vdW  Elec       q    Type
REMARK                         _______ _______ _______ _____ _____    ______ ____
ROOT
ATOM      1  C   UNL     1       7.102  -3.356  24.044  0.00  0.00    +0.071 A 
ATOM      2  C   UNL     1       6.025  -2.460  24.184  0.00  0.00    +0.069 A 
ATOM      3  C   UNL     1       6.536  -1.201  23.973  0.00  0.00    +0.130 A 
ATOM      4  N   UNL     1       7.922  -1.359  23.868  0.00  0.00    -0.218 N 
ATOM      5  N   UNL     1       8.242  -2.690  23.816  0.00  0.00    -0.169 NA
ENDROOT
BRANCH   3   6
ATOM      6  N   UNL     1       5.814  -0.011  23.907  0.00  0.00    -0.254 N 
ATOM      7  H   UNL     1       5.789   0.494  23.038  0.00  0.00    +0.158 HD
ATOM      8  C   UNL     1       5.738   0.752  25.070  0.00  0.00    +0.309 C 
ATOM      9  N   UNL     1       5.100   1.963  24.838  0.00  0.00    -0.269 N 
ATOM     10  H   UNL     1       4.446   1.980  24.073  0.00  0.00    +0.156 HD
ATOM     11  O   UNL     1       6.203   0.400  26.150  0.00  0.00    -0.252 OA
BRANCH   9  12
ATOM     12  C   UNL     1       5.009   3.012  25.784  0.00  0.00    +0.035 A 
ATOM     13  C   UNL     1       3.861   3.085  26.579  0.00  0.00    +0.023 A 
ATOM     14  C   UNL     1       3.751   4.066  27.570  0.00  0.00    +0.002 A 
ATOM     15  C   UNL     1       4.773   4.994  27.759  0.00  0.00    +0.000 A 
ATOM     16  C   UNL     1       5.894   4.957  26.938  0.00  0.00    +0.002 A 
ATOM     17  C   UNL     1       6.009   3.976  25.953  0.00  0.00    +0.023 A 
ENDBRANCH   9  12
ENDBRANCH   3   6
BRANCH   4  18
ATOM     18  C   UNL     1       8.967  -0.379  23.867  0.00  0.00    +0.069 A 
ATOM     19  C   UNL     1       9.062   0.521  22.787  0.00  0.00    +0.050 A 
ATOM     20  C   UNL     1      10.019   1.544  22.772  0.00  0.00    +0.027 A 
ATOM     21  C   UNL     1      10.954   1.610  23.805  0.00  0.00    +0.023 A 
ATOM     22  C   UNL     1      10.908   0.701  24.857  0.00  0.00    +0.004 A 
ATOM     23  C   UNL     1       9.931  -0.297  24.883  0.00  0.00    +0.028 A 
BRANCH  20  24
ATOM     24  N   UNL     1      10.187   2.341  21.633  0.00  0.00    -0.358 N 
ATOM     25  H   UNL     1       9.996   3.325  21.786  0.00  0.00    +0.142 HD
ATOM     26  H   UNL     1      11.067   2.187  21.147  0.00  0.00    +0.142 HD
ENDBRANCH  20  24
ENDBRANCH   4  18
BRANCH   1  28
ATOM     27  C   UNL     1       8.074  -5.351  25.204  0.00  0.00    +0.017 C 
ATOM     28  C   UNL     1       7.060  -4.875  24.146  0.00  0.00    +0.006 C 
ATOM     29  C   UNL     1       5.655  -5.362  24.565  0.00  0.00    +0.017 C 
ATOM     30  C   UNL     1       7.395  -5.553  22.800  0.00  0.00    +0.017 C 
ENDBRANCH   1  28
TORSDOF 5
ENDMDL
MODEL 9
REMARK VINA RESULT:      -6.0      3.338      6.264
REMARK  Name = 
REMARK  8 active torsions:
REMARK  status: ('A' for Active; 'I' for Inactive)
REMARK    1  A    between atoms: C_1  and  C_2
REMARK    2  A    between atoms: C_2  and  C_3
REMARK    3  A    between atoms: C_2  and  C_4
REMARK    4  A    between atoms: C_2  and  C_5
REMARK    5  A    between atoms: N_7  and  C_20
REMARK    6  A    between atoms: C_8  and  N_9
REMARK    7  A    between atoms: N_12  and  C_13
REMARK    8  A    between atoms: C_24  and  N_25
REMARK                            x       y       z     vdW  Elec       q    Type
REMARK                         _______ _______ _______ _____ _____    ______ ____
ROOT
ATOM      1  C   UNL     1       6.262   1.598  27.543  0.00  0.00    +0.071 A 
ATOM      2  C   UNL     1       6.106   0.199  27.548  0.00  0.00    +0.069 A 
ATOM      3  C   UNL     1       7.080  -0.304  26.718  0.00  0.00    +0.130 A 
ATOM      4  N   UNL     1       7.689   0.805  26.121  0.00  0.00    -0.218 N 
ATOM      5  N   UNL     1       7.245   1.960  26.708  0.00  0.00    -0.169 NA
ENDROOT
BRANCH   3   6
ATOM      6  N   UNL     1       7.375  -1.649  26.502  0.00  0.00    -0.254 N 
ATOM      7  H   UNL     1       8.295  -1.986  26.727  0.00  0.00    +0.158 HD
ATOM      8  C   UNL     1       6.726  -2.279  25.442  0.00  0.00    +0.309 C 
ATOM      9  N   UNL     1       7.198  -3.572  25.259  0.00  0.00    -0.269 N 
ATOM     10  H   UNL     1       7.582  -4.023  26.073  0.00  0.00    +0.156 HD
ATOM     11  O   UNL     1       5.867  -1.741  24.749  0.00  0.00    -0.252 OA
BRANCH   9  12
ATOM     12  C   UNL     1       6.844  -4.405  24.171  0.00  0.00    +0.035 A 
ATOM     13  C   UNL     1       5.743  -5.254  24.321  0.00  0.00    +0.023 A 
ATOM     14  C   UNL     1       5.316  -6.051  23.253  0.00  0.00    +0.002 A 
ATOM     15  C   UNL     1       5.998  -6.024  22.038  0.00  0.00    +0.000 A 
ATOM     16  C   UNL     1       7.123  -5.220  21.900  0.00  0.00    +0.002 A 
ATOM     17  C   UNL     1       7.547  -4.419  22.961  0.00  0.00    +0.023 A 
ENDBRANCH   9  12
ENDBRANCH   3   6
BRANCH   4  18
ATOM     18  C   UNL     1       8.604   0.877  25.020  0.00  0.00    +0.069 A 
ATOM     19  C   UNL     1       8.219   1.565  23.853  0.00  0.00    +0.050 A 
ATOM     20  C   UNL     1       9.102   1.727  22.777  0.00  0.00    +0.027 A 
ATOM     21  C   UNL     1      10.353   1.112  22.831  0.00  0.00    +0.023 A 
ATOM     22  C   UNL     1      10.734   0.387  23.956  0.00  0.00    +0.004 A 
ATOM     23  C   UNL     1       9.862   0.256  25.039  0.00  0.00    +0.028 A 
BRANCH  20  24
ATOM     24  N   UNL     1       8.659   2.293  21.576  0.00  0.00    -0.358 N 
ATOM     25  H   UNL     1       8.016   1.706  21.055  0.00  0.00    +0.142 HD
ATOM     26  H   UNL     1       8.324   3.249  21.668  0.00  0.00    +0.142 HD
ENDBRANCH  20  24
ENDBRANCH   4  18
BRANCH   1  28
ATOM     27  C   UNL     1       4.492   3.362  27.382  0.00  0.00    +0.017 C 
ATOM     28  C   UNL     1       5.452   2.620  28.331  0.00  0.00    +0.006 C 
ATOM     29  C   UNL     1       4.614   1.933  29.432  0.00  0.00    +0.017 C 
ATOM     30  C   UNL     1       6.358   3.658  29.029  0.00  0.00    +0.017 C 
ENDBRANCH   1  28
TORSDOF 5
ENDMDL
