MODEL 1
REMARK VINA RESULT:      -4.7      0.000      0.000
REMARK  Name = 
REMARK  5 active torsions:
REMARK  status: ('A' for Active; 'I' for Inactive)
REMARK    1  A    between atoms: C_1  and  C_2
REMARK    2  A    between atoms: C_2  and  N_4
REMARK    3  A    between atoms: C_2  and  C_5
REMARK    4  A    between atoms: C_5  and  O_7
REMARK    5  A    between atoms: C_5  and  C_8
REMARK                            x       y       z     vdW  Elec       q    Type
REMARK                         _______ _______ _______ _____ _____    ______ ____
ROOT
ATOM      1  C   UNL     1      10.245  -1.447  22.842  0.00  0.00    +0.161 C 
ENDROOT
BRANCH   1   2
ATOM      2  C   UNL     1      10.028   0.039  23.026  0.00  0.00    -0.018 A 
ATOM      3  C   UNL     1       9.852   0.900  21.932  0.00  0.00    +0.006 A 
ATOM      4  C   UNL     1       9.591   2.257  22.128  0.00  0.00    +0.000 A 
ATOM      5  C   UNL     1       9.520   2.775  23.419  0.00  0.00    +0.000 A 
ATOM      6  C   UNL     1       9.708   1.938  24.514  0.00  0.00    +0.000 A 
ATOM      7  C   UNL     1       9.958   0.579  24.321  0.00  0.00    +0.006 A 
ENDBRANCH   1   2
BRANCH   1   9
ATOM      8  C   UNL     1       8.081  -2.859  22.716  0.00  0.00    +0.026 C 
ATOM      9  C   UNL     1       9.208  -2.326  23.607  0.00  0.00    +0.081 C 
BRANCH   9  10
ATOM     10  N   UNL     1       9.890  -3.498  24.201  0.00  0.00    -0.325 NA
ATOM     11  H   UNL     1       9.911  -4.258  23.519  0.00  0.00    +0.119 HD
ATOM     12  H   UNL     1      10.867  -3.256  24.376  0.00  0.00    +0.119 HD
ENDBRANCH   9  10
ENDBRANCH   1   9
BRANCH   1  13
ATOM     13  O   UNL     1      10.252  -1.801  21.455  0.00  0.00    -0.386 OA
ATOM     14  H   UNL     1      10.965  -1.251  21.073  0.00  0.00    +0.210 HD
ENDBRANCH   1  13
TORSDOF 4
ENDMDL
MODEL 2
REMARK VINA RESULT:      -4.5      2.796      3.803
REMARK  Name = 
REMARK  5 active torsions:
REMARK  status: ('A' for Active; 'I' for Inactive)
REMARK    1  A    between atoms: C_1  and  C_2
REMARK    2  A    between atoms: C_2  and  N_4
REMARK    3  A    between atoms: C_2  and  C_5
REMARK    4  A    between atoms: C_5  and  O_7
REMARK    5  A    between atoms: C_5  and  C_8
REMARK                            x       y       z     vdW  Elec       q    Type
REMARK                         _______ _______ _______ _____ _____    ______ ____
ROOT
ATOM      1  C   UNL     1      10.550   2.120  22.902  0.00  0.00    +0.161 C 
ENDROOT
BRANCH   1   2
ATOM      2  C   UNL     1      10.675   3.544  23.396  0.00  0.00    -0.018 A 
ATOM      3  C   UNL     1      11.881   4.254  23.299  0.00  0.00    +0.006 A 
ATOM      4  C   UNL     1      11.958   5.587  23.705  0.00  0.00    +0.000 A 
ATOM      5  C   UNL     1      10.835   6.223  24.229  0.00  0.00    +0.000 A 
ATOM      6  C   UNL     1       9.635   5.528  24.348  0.00  0.00    +0.000 A 
ATOM      7  C   UNL     1       9.554   4.198  23.933  0.00  0.00    +0.006 A 
ENDBRANCH   1   2
BRANCH   1   9
ATOM      8  C   UNL     1       9.202  -0.070  23.187  0.00  0.00    +0.026 C 
ATOM      9  C   UNL     1       9.735   1.198  23.862  0.00  0.00    +0.081 C 
BRANCH   9  10
ATOM     10  N   UNL     1      10.594   0.768  24.988  0.00  0.00    -0.325 NA
ATOM     11  H   UNL     1      11.159   1.558  25.303  0.00  0.00    +0.119 HD
ATOM     12  H   UNL     1       9.998   0.521  25.780  0.00  0.00    +0.119 HD
ENDBRANCH   9  10
ENDBRANCH   1   9
BRANCH   1  13
ATOM     13  O   UNL     1       9.982   2.076  21.589  0.00  0.00    -0.386 OA
ATOM     14  H   UNL     1       9.501   1.225  21.565  0.00  0.00    +0.210 HD
ENDBRANCH   1  13
TORSDOF 4
ENDMDL
MODEL 3
REMARK VINA RESULT:      -4.5      3.024      4.081
REMARK  Name = 
REMARK  5 active torsions:
REMARK  status: ('A' for Active; 'I' for Inactive)
REMARK    1  A    between atoms: C_1  and  C_2
REMARK    2  A    between atoms: C_2  and  N_4
REMARK    3  A    between atoms: C_2  and  C_5
REMARK    4  A    between atoms: C_5  and  O_7
REMARK    5  A    between atoms: C_5  and  C_8
REMARK                            x       y       z     vdW  Elec       q    Type
REMARK                         _______ _______ _______ _____ _____    ______ ____
ROOT
ATOM      1  C   UNL     1       9.681   1.958  23.629  0.00  0.00    +0.161 C 
ENDROOT
BRANCH   1   2
ATOM      2  C   UNL     1      10.133   3.399  23.708  0.00  0.00    -0.018 A 
ATOM      3  C   UNL     1       9.291   4.411  24.193  0.00  0.00    +0.006 A 
ATOM      4  C   UNL     1       9.749   5.723  24.315  0.00  0.00    +0.000 A 
ATOM      5  C   UNL     1      11.050   6.046  23.937  0.00  0.00    +0.000 A 
ATOM      6  C   UNL     1      11.894   5.058  23.438  0.00  0.00    +0.000 A 
ATOM      7  C   UNL     1      11.440   3.743  23.326  0.00  0.00    +0.006 A 
ENDBRANCH   1   2
BRANCH   1   9
ATOM      8  C   UNL     1       9.964  -0.270  22.345  0.00  0.00    +0.026 C 
ATOM      9  C   UNL     1      10.068   1.257  22.289  0.00  0.00    +0.081 C 
BRANCH   9  10
ATOM     10  N   UNL     1       9.169   1.720  21.208  0.00  0.00    -0.325 NA
ATOM     11  H   UNL     1       9.193   2.740  21.162  0.00  0.00    +0.119 HD
ATOM     12  H   UNL     1       9.537   1.394  20.313  0.00  0.00    +0.119 HD
ENDBRANCH   9  10
ENDBRANCH   1   9
BRANCH   1  13
ATOM     13  O   UNL     1      10.179   1.198  24.735  0.00  0.00    -0.386 OA
ATOM     14  H   UNL     1       9.375   0.941  25.229  0.00  0.00    +0.210 HD
ENDBRANCH   1  13
TORSDOF 4
ENDMDL
MODEL 4
REMARK VINA RESULT:      -4.4      4.994      6.014
REMARK  Name = 
REMARK  5 active torsions:
REMARK  status: ('A' for Active; 'I' for Inactive)
REMARK    1  A    between atoms: C_1  and  C_2
REMARK    2  A    between atoms: C_2  and  N_4
REMARK    3  A    between atoms: C_2  and  C_5
REMARK    4  A    between atoms: C_5  and  O_7
REMARK    5  A    between atoms: C_5  and  C_8
REMARK                            x       y       z     vdW  Elec       q    Type
REMARK                         _______ _______ _______ _____ _____    ______ ____
ROOT
ATOM      1  C   UNL     1       8.504  -4.745  24.771  0.00  0.00    +0.161 C 
ENDROOT
BRANCH   1   2
ATOM      2  C   UNL     1       7.696  -4.730  23.493  0.00  0.00    -0.018 A 
ATOM      3  C   UNL     1       7.603  -5.859  22.665  0.00  0.00    +0.006 A 
ATOM      4  C   UNL     1       6.802  -5.841  21.522  0.00  0.00    +0.000 A 
ATOM      5  C   UNL     1       6.096  -4.690  21.182  0.00  0.00    +0.000 A 
ATOM      6  C   UNL     1       6.190  -3.556  21.984  0.00  0.00    +0.000 A 
ATOM      7  C   UNL     1       6.982  -3.575  23.132  0.00  0.00    +0.006 A 
ENDBRANCH   1   2
BRANCH   1   9
ATOM      8  C   UNL     1       6.306  -5.613  25.822  0.00  0.00    +0.026 C 
ATOM      9  C   UNL     1       7.631  -4.881  26.057  0.00  0.00    +0.081 C 
BRANCH   9  10
ATOM     10  N   UNL     1       8.375  -5.639  27.088  0.00  0.00    -0.325 NA
ATOM     11  H   UNL     1       7.716  -6.020  27.769  0.00  0.00    +0.119 HD
ATOM     12  H   UNL     1       8.816  -6.448  26.647  0.00  0.00    +0.119 HD
ENDBRANCH   9  10
ENDBRANCH   1   9
BRANCH   1  13
ATOM     13  O   UNL     1       9.494  -5.779  24.746  0.00  0.00    -0.386 OA
ATOM     14  H   UNL     1      10.225  -5.423  25.289  0.00  0.00    +0.210 HD
ENDBRANCH   1  13
TORSDOF 4
ENDMDL
MODEL 5
REMARK VINA RESULT:      -4.4      3.085      4.802
REMARK  Name = 
REMARK  5 active torsions:
REMARK  status: ('A' for Active; 'I' for Inactive)
REMARK    1  A    between atoms: C_1  and  C_2
REMARK    2  A    between atoms: C_2  and  N_4
REMARK    3  A    between atoms: C_2  and  C_5
REMARK    4  A    between atoms: C_5  and  O_7
REMARK    5  A    between atoms: C_5  and  C_8
REMARK                            x       y       z     vdW  Elec       q    Type
REMARK                         _______ _______ _______ _____ _____    ______ ____
ROOT
ATOM      1  C   UNL     1       8.799   2.067  21.842  0.00  0.00    +0.161 C 
ENDROOT
BRANCH   1   2
ATOM      2  C   UNL     1       8.592   0.599  22.144  0.00  0.00    -0.018 A 
ATOM      3  C   UNL     1       7.442   0.136  22.802  0.00  0.00    +0.006 A 
ATOM      4  C   UNL     1       7.244  -1.228  23.016  0.00  0.00    +0.000 A 
ATOM      5  C   UNL     1       8.199  -2.148  22.590  0.00  0.00    +0.000 A 
ATOM      6  C   UNL     1       9.353  -1.705  21.951  0.00  0.00    +0.000 A 
ATOM      7  C   UNL     1       9.549  -0.341  21.727  0.00  0.00    +0.006 A 
ENDBRANCH   1   2
BRANCH   1   9
ATOM      8  C   UNL     1       9.264   3.164  24.138  0.00  0.00    +0.026 C 
ATOM      9  C   UNL     1       8.283   3.012  22.971  0.00  0.00    +0.081 C 
BRANCH   9  10
ATOM     10  N   UNL     1       8.045   4.365  22.418  0.00  0.00    -0.325 NA
ATOM     11  H   UNL     1       7.048   4.485  22.236  0.00  0.00    +0.119 HD
ATOM     12  H   UNL     1       8.282   5.058  23.131  0.00  0.00    +0.119 HD
ENDBRANCH   9  10
ENDBRANCH   1   9
BRANCH   1  13
ATOM     13  O   UNL     1      10.174   2.349  21.562  0.00  0.00    -0.386 OA
ATOM     14  H   UNL     1      10.300   2.034  20.645  0.00  0.00    +0.210 HD
ENDBRANCH   1  13
TORSDOF 4
ENDMDL
MODEL 6
REMARK VINA RESULT:      -4.3      2.237      4.755
REMARK  Name = 
REMARK  5 active torsions:
REMARK  status: ('A' for Active; 'I' for Inactive)
REMARK    1  A    between atoms: C_1  and  C_2
REMARK    2  A    between atoms: C_2  and  N_4
REMARK    3  A    between atoms: C_2  and  C_5
REMARK    4  A    between atoms: C_5  and  O_7
REMARK    5  A    between atoms: C_5  and  C_8
REMARK                            x       y       z     vdW  Elec       q    Type
REMARK                         _______ _______ _______ _____ _____    ______ ____
ROOT
ATOM      1  C   UNL     1       8.780  -1.538  21.942  0.00  0.00    +0.161 C 
ENDROOT
BRANCH   1   2
ATOM      2  C   UNL     1       8.596  -2.696  22.898  0.00  0.00    -0.018 A 
ATOM      3  C   UNL     1       7.598  -3.663  22.702  0.00  0.00    +0.006 A 
ATOM      4  C   UNL     1       7.486  -4.756  23.562  0.00  0.00    +0.000 A 
ATOM      5  C   UNL     1       8.358  -4.889  24.639  0.00  0.00    +0.000 A 
ATOM      6  C   UNL     1       9.343  -3.930  24.858  0.00  0.00    +0.000 A 
ATOM      7  C   UNL     1       9.463  -2.842  23.993  0.00  0.00    +0.006 A 
ENDBRANCH   1   2
BRANCH   1   9
ATOM      8  C   UNL     1       8.798   1.035  21.682  0.00  0.00    +0.026 C 
ATOM      9  C   UNL     1       8.402  -0.156  22.560  0.00  0.00    +0.081 C 
BRANCH   9  10
ATOM     10  N   UNL     1       6.937  -0.084  22.764  0.00  0.00    -0.325 NA
ATOM     11  H   UNL     1       6.571   0.744  22.292  0.00  0.00    +0.119 HD
ATOM     12  H   UNL     1       6.502  -0.882  22.298  0.00  0.00    +0.119 HD
ENDBRANCH   9  10
ENDBRANCH   1   9
BRANCH   1  13
ATOM     13  O   UNL     1      10.116  -1.494  21.433  0.00  0.00    -0.386 OA
ATOM     14  H   UNL     1      10.441  -2.411  21.536  0.00  0.00    +0.210 HD
ENDBRANCH   1  13
TORSDOF 4
ENDMDL
MODEL 7
REMARK VINA RESULT:      -4.3      5.813      6.809
REMARK  Name = 
REMARK  5 active torsions:
REMARK  status: ('A' for Active; 'I' for Inactive)
REMARK    1  A    between atoms: C_1  and  C_2
REMARK    2  A    between atoms: C_2  and  N_4
REMARK    3  A    between atoms: C_2  and  C_5
REMARK    4  A    between atoms: C_5  and  O_7
REMARK    5  A    between atoms: C_5  and  C_8
REMARK                            x       y       z     vdW  Elec       q    Type
REMARK                         _______ _______ _______ _____ _____    ______ ____
ROOT
ATOM      1  C   UNL     1       6.759  -4.662  25.640  0.00  0.00    +0.161 C 
ENDROOT
BRANCH   1   2
ATOM      2  C   UNL     1       6.516  -5.077  24.206  0.00  0.00    -0.018 A 
ATOM      3  C   UNL     1       7.573  -5.255  23.301  0.00  0.00    +0.006 A 
ATOM      4  C   UNL     1       7.331  -5.699  22.000  0.00  0.00    +0.000 A 
ATOM      5  C   UNL     1       6.027  -5.955  21.581  0.00  0.00    +0.000 A 
ATOM      6  C   UNL     1       4.966  -5.768  22.462  0.00  0.00    +0.000 A 
ATOM      7  C   UNL     1       5.208  -5.335  23.765  0.00  0.00    +0.006 A 
ENDBRANCH   1   2
BRANCH   1   9
ATOM      8  C   UNL     1       9.184  -4.451  26.516  0.00  0.00    +0.026 C 
ATOM      9  C   UNL     1       7.983  -5.376  26.295  0.00  0.00    +0.081 C 
BRANCH   9  10
ATOM     10  N   UNL     1       7.595  -5.916  27.618  0.00  0.00    -0.325 NA
ATOM     11  H   UNL     1       8.420  -6.297  28.082  0.00  0.00    +0.119 HD
ATOM     12  H   UNL     1       7.277  -5.144  28.207  0.00  0.00    +0.119 HD
ENDBRANCH   9  10
ENDBRANCH   1   9
BRANCH   1  13
ATOM     13  O   UNL     1       6.909  -3.243  25.749  0.00  0.00    -0.386 OA
ATOM     14  H   UNL     1       6.569  -2.901  24.898  0.00  0.00    +0.210 HD
ENDBRANCH   1  13
TORSDOF 4
ENDMDL
MODEL 8
REMARK VINA RESULT:      -4.3      2.709      4.375
REMARK  Name = 
REMARK  5 active torsions:
REMARK  status: ('A' for Active; 'I' for Inactive)
REMARK    1  A    between atoms: C_1  and  C_2
REMARK    2  A    between atoms: C_2  and  N_4
REMARK    3  A    between atoms: C_2  and  C_5
REMARK    4  A    between atoms: C_5  and  O_7
REMARK    5  A    between atoms: C_5  and  C_8
REMARK                            x       y       z     vdW  Elec       q    Type
REMARK                         _______ _______ _______ _____ _____    ______ ____
ROOT
ATOM      1  C   UNL     1      10.362   0.672  23.557  0.00  0.00    +0.161 C 
ENDROOT
BRANCH   1   2
ATOM      2  C   UNL     1       9.828  -0.588  24.200  0.00  0.00    -0.018 A 
ATOM      3  C   UNL     1       9.118  -0.555  25.410  0.00  0.00    +0.006 A 
ATOM      4  C   UNL     1       8.580  -1.723  25.954  0.00  0.00    +0.000 A 
ATOM      5  C   UNL     1       8.759  -2.942  25.304  0.00  0.00    +0.000 A 
ATOM      6  C   UNL     1       9.474  -2.995  24.111  0.00  0.00    +0.000 A 
ATOM      7  C   UNL     1      10.003  -1.827  23.561  0.00  0.00    +0.006 A 
ENDBRANCH   1   2
BRANCH   1   9
ATOM      8  C   UNL     1       8.241   0.968  22.106  0.00  0.00    +0.026 C 
ATOM      9  C   UNL     1       9.773   0.944  22.138  0.00  0.00    +0.081 C 
BRANCH   9  10
ATOM     10  N   UNL     1      10.243   2.260  21.647  0.00  0.00    -0.325 NA
ATOM     11  H   UNL     1      11.249   2.338  21.802  0.00  0.00    +0.119 HD
ATOM     12  H   UNL     1      10.115   2.297  20.634  0.00  0.00    +0.119 HD
ENDBRANCH   9  10
ENDBRANCH   1   9
BRANCH   1  13
ATOM     13  O   UNL     1      10.152   1.811  24.397  0.00  0.00    -0.386 OA
ATOM     14  H   UNL     1       9.738   2.471  23.805  0.00  0.00    +0.210 HD
ENDBRANCH   1  13
TORSDOF 4
ENDMDL
MODEL 9
REMARK VINA RESULT:      -4.3      4.560      5.942
REMARK  Name = 
REMARK  5 active torsions:
REMARK  status: ('A' for Active; 'I' for Inactive)
REMARK    1  A    between atoms: C_1  and  C_2
REMARK    2  A    between atoms: C_2  and  N_4
REMARK    3  A    between atoms: C_2  and  C_5
REMARK    4  A    between atoms: C_5  and  O_7
REMARK    5  A    between atoms: C_5  and  C_8
REMARK                            x       y       z     vdW  Elec       q    Type
REMARK                         _______ _______ _______ _____ _____    ______ ____
ROOT
ATOM      1  C   UNL     1       8.660  -3.694  24.883  0.00  0.00    +0.161 C 
ENDROOT
BRANCH   1   2
ATOM      2  C   UNL     1       7.531  -4.276  24.062  0.00  0.00    -0.018 A 
ATOM      3  C   UNL     1       6.227  -3.763  24.134  0.00  0.00    +0.006 A 
ATOM      4  C   UNL     1       5.214  -4.275  23.322  0.00  0.00    +0.000 A 
ATOM      5  C   UNL     1       5.486  -5.316  22.439  0.00  0.00    +0.000 A 
ATOM      6  C   UNL     1       6.770  -5.847  22.367  0.00  0.00    +0.000 A 
ATOM      7  C   UNL     1       7.787  -5.330  23.170  0.00  0.00    +0.006 A 
ENDBRANCH   1   2
BRANCH   1   9
ATOM      8  C   UNL     1       7.821  -5.284  26.743  0.00  0.00    +0.026 C 
ATOM      9  C   UNL     1       9.022  -4.550  26.137  0.00  0.00    +0.081 C 
BRANCH   9  10
ATOM     10  N   UNL     1      10.024  -5.576  25.768  0.00  0.00    -0.325 NA
ATOM     11  H   UNL     1      10.437  -5.336  24.866  0.00  0.00    +0.119 HD
ATOM     12  H   UNL     1      10.791  -5.543  26.442  0.00  0.00    +0.119 HD
ENDBRANCH   9  10
ENDBRANCH   1   9
BRANCH   1  13
ATOM     13  O   UNL     1       9.829  -3.487  24.084  0.00  0.00    -0.386 OA
ATOM     14  H   UNL     1      10.508  -3.198  24.725  0.00  0.00    +0.210 HD
ENDBRANCH   1  13
TORSDOF 4
ENDMDL
