MODEL 1
REMARK VINA RESULT:      -5.9      0.000      0.000
REMARK  Name = 
REMARK  13 active torsions:
REMARK  status: ('A' for Active; 'I' for Inactive)
REMARK    1  A    between atoms: N_1  and  CA_2
REMARK    2  A    between atoms: CA_2  and  C_4
REMARK    3  A    between atoms: CA_2  and  C_23
REMARK    4  A    between atoms: C_4  and  C_5
REMARK    5  A    between atoms: C_5  and  C_6
REMARK    6  A    between atoms: C_6  and  O_8
REMARK    7  A    between atoms: C_6  and  O_9
REMARK    8  A    between atoms: O_9  and  C_10
REMARK    9  A    between atoms: C_13  and  C_15
REMARK   10  A    between atoms: C_15  and  O_16
REMARK   11  A    between atoms: C_17  and  O_19
REMARK   12  A    between atoms: C_20  and  O_21
REMARK   13  A    between atoms: C_23  and  O_24
REMARK                            x       y       z     vdW  Elec       q    Type
REMARK                         _______ _______ _______ _____ _____    ______ ____
ROOT
ATOM      1  O   UNL     1       7.089  -2.019  24.133  0.00  0.00    -0.317 OA
ENDROOT
BRANCH   1   2
ATOM      2  C   UNL     1       8.158  -1.358  23.459  0.00  0.00    +0.321 C 
ATOM      3  C   UNL     1       9.539  -1.538  24.126  0.00  0.00    +0.288 C 
ATOM      4  F   UNL     1       9.397  -1.853  25.446  0.00  0.00    -0.203 F 
ATOM      5  C   UNL     1      10.219  -0.173  24.036  0.00  0.00    +0.215 C 
ATOM      6  C   UNL     1       9.212   0.707  23.298  0.00  0.00    +0.181 C 
ATOM      7  O   UNL     1       7.923   0.060  23.401  0.00  0.00    -0.338 OA
BRANCH   3   8
ATOM      8  O   UNL     1      10.293  -2.597  23.549  0.00  0.00    -0.355 OA
ATOM      9  H   UNL     1      11.199  -2.551  23.897  0.00  0.00    +0.213 HD
ENDBRANCH   3   8
BRANCH   5  10
ATOM     10  O   UNL     1      10.472   0.382  25.339  0.00  0.00    -0.383 OA
ATOM     11  H   UNL     1       9.604   0.530  25.766  0.00  0.00    +0.210 HD
ENDBRANCH   5  10
BRANCH   6  12
ATOM     12  C   UNL     1       9.585   0.847  21.816  0.00  0.00    +0.190 C 
BRANCH  12  13
ATOM     13  O   UNL     1      10.173   2.117  21.563  0.00  0.00    -0.392 OA
ATOM     14  H   UNL     1       9.509   2.791  21.800  0.00  0.00    +0.210 HD
ENDBRANCH  12  13
ENDBRANCH   6  12
ENDBRANCH   1   2
BRANCH   1  15
ATOM     15  C   UNL     1       6.546  -3.099  23.383  0.00  0.00    +0.250 C 
BRANCH  15  16
ATOM     16  O   UNL     1       5.461  -2.659  22.588  0.00  0.00    -0.367 OA
ATOM     17  H   UNL     1       5.592  -1.706  22.440  0.00  0.00    +0.212 HD
ENDBRANCH  15  16
BRANCH  15  18
ATOM     18  C   UNL     1       6.062  -4.191  24.340  0.00  0.00    +0.063 C 
BRANCH  18  19
ATOM     19  C   UNL     1       6.824  -4.118  25.669  0.00  0.00    +0.035 C 
BRANCH  19  20
ATOM     20  CA  UNL     1       7.618  -5.376  26.021  0.00  0.00    +0.161 C 
BRANCH  20  21
ATOM     21  N   UNL     1       7.576  -5.678  27.483  0.00  0.00    -0.318 NA
ATOM     22  H1  UNL     1       7.393  -6.679  27.606  0.00  0.00    +0.119 HD
ATOM     23  H2  UNL     1       8.524  -5.554  27.852  0.00  0.00    +0.119 HD
ENDBRANCH  20  21
BRANCH  20  24
ATOM     24  C   UNL     1       9.092  -5.180  25.604  0.00  0.00    +0.322 C 
ATOM     25  OXT UNL     1       9.515  -5.184  24.459  0.00  0.00    -0.249 OA
BRANCH  24  26
ATOM     26  O   UNL     1       9.884  -4.979  26.692  0.00  0.00    -0.480 OA
ATOM     27  H   UNL     1      10.775  -4.746  26.327  0.00  0.00    +0.295 HD
ENDBRANCH  24  26
ENDBRANCH  20  24
ENDBRANCH  19  20
ENDBRANCH  18  19
ENDBRANCH  15  18
ENDBRANCH   1  15
TORSDOF 13
ENDMDL
MODEL 2
REMARK VINA RESULT:      -5.7      1.401      1.552
REMARK  Name = 
REMARK  13 active torsions:
REMARK  status: ('A' for Active; 'I' for Inactive)
REMARK    1  A    between atoms: N_1  and  CA_2
REMARK    2  A    between atoms: CA_2  and  C_4
REMARK    3  A    between atoms: CA_2  and  C_23
REMARK    4  A    between atoms: C_4  and  C_5
REMARK    5  A    between atoms: C_5  and  C_6
REMARK    6  A    between atoms: C_6  and  O_8
REMARK    7  A    between atoms: C_6  and  O_9
REMARK    8  A    between atoms: O_9  and  C_10
REMARK    9  A    between atoms: C_13  and  C_15
REMARK   10  A    between atoms: C_15  and  O_16
REMARK   11  A    between atoms: C_17  and  O_19
REMARK   12  A    between atoms: C_20  and  O_21
REMARK   13  A    between atoms: C_23  and  O_24
REMARK                            x       y       z     vdW  Elec       q    Type
REMARK                         _______ _______ _______ _____ _____    ______ ____
ROOT
ATOM      1  O   UNL     1       7.633  -2.455  23.324  0.00  0.00    -0.317 OA
ENDROOT
BRANCH   1   2
ATOM      2  C   UNL     1       8.276  -1.300  22.788  0.00  0.00    +0.321 C 
ATOM      3  C   UNL     1       9.810  -1.289  22.962  0.00  0.00    +0.288 C 
ATOM      4  F   UNL     1      10.182  -2.099  23.996  0.00  0.00    -0.203 F 
ATOM      5  C   UNL     1      10.170   0.149  23.335  0.00  0.00    +0.215 C 
ATOM      6  C   UNL     1       8.835   0.890  23.324  0.00  0.00    +0.181 C 
ATOM      7  O   UNL     1       7.791  -0.105  23.426  0.00  0.00    -0.338 OA
BRANCH   3   8
ATOM      8  O   UNL     1      10.496  -1.776  21.815  0.00  0.00    -0.355 OA
ATOM      9  H   UNL     1      10.057  -2.592  21.521  0.00  0.00    +0.213 HD
ENDBRANCH   3   8
BRANCH   5  10
ATOM     10  O   UNL     1      10.749   0.228  24.649  0.00  0.00    -0.383 OA
ATOM     11  H   UNL     1      10.912   1.174  24.840  0.00  0.00    +0.210 HD
ENDBRANCH   5  10
BRANCH   6  12
ATOM     12  C   UNL     1       8.652   1.677  22.019  0.00  0.00    +0.190 C 
BRANCH  12  13
ATOM     13  O   UNL     1       9.911   2.077  21.492  0.00  0.00    -0.392 OA
ATOM     14  H   UNL     1       9.841   2.035  20.520  0.00  0.00    +0.210 HD
ENDBRANCH  12  13
ENDBRANCH   6  12
ENDBRANCH   1   2
BRANCH   1  15
ATOM     15  C   UNL     1       7.281  -3.406  22.327  0.00  0.00    +0.250 C 
BRANCH  15  16
ATOM     16  O   UNL     1       5.948  -3.207  21.895  0.00  0.00    -0.367 OA
ATOM     17  H   UNL     1       5.451  -4.005  22.144  0.00  0.00    +0.212 HD
ENDBRANCH  15  16
BRANCH  15  18
ATOM     18  C   UNL     1       7.422  -4.819  22.899  0.00  0.00    +0.063 C 
BRANCH  18  19
ATOM     19  C   UNL     1       8.146  -4.782  24.250  0.00  0.00    +0.035 C 
BRANCH  19  20
ATOM     20  CA  UNL     1       7.277  -5.150  25.452  0.00  0.00    +0.161 C 
BRANCH  20  21
ATOM     21  N   UNL     1       6.118  -4.221  25.615  0.00  0.00    -0.318 NA
ATOM     22  H1  UNL     1       5.483  -4.347  24.820  0.00  0.00    +0.119 HD
ATOM     23  H2  UNL     1       5.573  -4.545  26.420  0.00  0.00    +0.119 HD
ENDBRANCH  20  21
BRANCH  20  24
ATOM     24  C   UNL     1       8.133  -5.093  26.736  0.00  0.00    +0.322 C 
ATOM     25  OXT UNL     1       9.086  -4.354  26.925  0.00  0.00    -0.249 OA
BRANCH  24  26
ATOM     26  O   UNL     1       7.677  -5.977  27.666  0.00  0.00    -0.480 OA
ATOM     27  H   UNL     1       8.445  -6.572  27.859  0.00  0.00    +0.295 HD
ENDBRANCH  24  26
ENDBRANCH  20  24
ENDBRANCH  19  20
ENDBRANCH  18  19
ENDBRANCH  15  18
ENDBRANCH   1  15
TORSDOF 13
ENDMDL
MODEL 3
REMARK VINA RESULT:      -5.7      2.491      3.115
REMARK  Name = 
REMARK  13 active torsions:
REMARK  status: ('A' for Active; 'I' for Inactive)
REMARK    1  A    between atoms: N_1  and  CA_2
REMARK    2  A    between atoms: CA_2  and  C_4
REMARK    3  A    between atoms: CA_2  and  C_23
REMARK    4  A    between atoms: C_4  and  C_5
REMARK    5  A    between atoms: C_5  and  C_6
REMARK    6  A    between atoms: C_6  and  O_8
REMARK    7  A    between atoms: C_6  and  O_9
REMARK    8  A    between atoms: O_9  and  C_10
REMARK    9  A    between atoms: C_13  and  C_15
REMARK   10  A    between atoms: C_15  and  O_16
REMARK   11  A    between atoms: C_17  and  O_19
REMARK   12  A    between atoms: C_20  and  O_21
REMARK   13  A    between atoms: C_23  and  O_24
REMARK                            x       y       z     vdW  Elec       q    Type
REMARK                         _______ _______ _______ _____ _____    ______ ____
ROOT
ATOM      1  O   UNL     1       7.569  -2.006  23.670  0.00  0.00    -0.317 OA
ENDROOT
BRANCH   1   2
ATOM      2  C   UNL     1       8.278  -0.944  23.033  0.00  0.00    +0.321 C 
ATOM      3  C   UNL     1       9.815  -1.078  23.098  0.00  0.00    +0.288 C 
ATOM      4  F   UNL     1      10.184  -1.875  24.142  0.00  0.00    -0.203 F 
ATOM      5  C   UNL     1      10.337   0.332  23.372  0.00  0.00    +0.215 C 
ATOM      6  C   UNL     1       9.082   1.201  23.419  0.00  0.00    +0.181 C 
ATOM      7  O   UNL     1       7.959   0.319  23.643  0.00  0.00    -0.338 OA
BRANCH   3   8
ATOM      8  O   UNL     1      10.363  -1.679  21.931  0.00  0.00    -0.355 OA
ATOM      9  H   UNL     1      11.138  -1.160  21.656  0.00  0.00    +0.213 HD
ENDBRANCH   3   8
BRANCH   5  10
ATOM     10  O   UNL     1      11.018   0.410  24.637  0.00  0.00    -0.383 OA
ATOM     11  H   UNL     1      10.497   1.006  25.212  0.00  0.00    +0.210 HD
ENDBRANCH   5  10
BRANCH   6  12
ATOM     12  C   UNL     1       8.878   1.946  22.092  0.00  0.00    +0.190 C 
BRANCH  12  13
ATOM     13  O   UNL     1      10.127   2.205  21.464  0.00  0.00    -0.392 OA
ATOM     14  H   UNL     1       9.947   2.782  20.698  0.00  0.00    +0.210 HD
ENDBRANCH  12  13
ENDBRANCH   6  12
ENDBRANCH   1   2
BRANCH   1  15
ATOM     15  C   UNL     1       7.189  -3.038  22.768  0.00  0.00    +0.250 C 
BRANCH  15  16
ATOM     16  O   UNL     1       5.961  -2.723  22.139  0.00  0.00    -0.367 OA
ATOM     17  H   UNL     1       5.843  -3.368  21.419  0.00  0.00    +0.212 HD
ENDBRANCH  15  16
BRANCH  15  18
ATOM     18  C   UNL     1       7.043  -4.355  23.534  0.00  0.00    +0.063 C 
BRANCH  18  19
ATOM     19  C   UNL     1       7.412  -5.542  22.636  0.00  0.00    +0.035 C 
BRANCH  19  20
ATOM     20  CA  UNL     1       6.240  -6.154  21.869  0.00  0.00    +0.161 C 
BRANCH  20  21
ATOM     21  N   UNL     1       5.992  -5.459  20.570  0.00  0.00    -0.318 NA
ATOM     22  H1  UNL     1       5.515  -4.571  20.759  0.00  0.00    +0.119 HD
ATOM     23  H2  UNL     1       6.902  -5.174  20.194  0.00  0.00    +0.119 HD
ENDBRANCH  20  21
BRANCH  20  24
ATOM     24  C   UNL     1       4.961  -6.053  22.730  0.00  0.00    +0.322 C 
ATOM     25  OXT UNL     1       4.131  -5.160  22.670  0.00  0.00    -0.249 OA
BRANCH  24  26
ATOM     26  O   UNL     1       4.856  -7.116  23.573  0.00  0.00    -0.480 OA
ATOM     27  H   UNL     1       5.602  -7.013  24.217  0.00  0.00    +0.295 HD
ENDBRANCH  24  26
ENDBRANCH  20  24
ENDBRANCH  19  20
ENDBRANCH  18  19
ENDBRANCH  15  18
ENDBRANCH   1  15
TORSDOF 13
ENDMDL
MODEL 4
REMARK VINA RESULT:      -5.7      1.950      2.919
REMARK  Name = 
REMARK  13 active torsions:
REMARK  status: ('A' for Active; 'I' for Inactive)
REMARK    1  A    between atoms: N_1  and  CA_2
REMARK    2  A    between atoms: CA_2  and  C_4
REMARK    3  A    between atoms: CA_2  and  C_23
REMARK    4  A    between atoms: C_4  and  C_5
REMARK    5  A    between atoms: C_5  and  C_6
REMARK    6  A    between atoms: C_6  and  O_8
REMARK    7  A    between atoms: C_6  and  O_9
REMARK    8  A    between atoms: O_9  and  C_10
REMARK    9  A    between atoms: C_13  and  C_15
REMARK   10  A    between atoms: C_15  and  O_16
REMARK   11  A    between atoms: C_17  and  O_19
REMARK   12  A    between atoms: C_20  and  O_21
REMARK   13  A    between atoms: C_23  and  O_24
REMARK                            x       y       z     vdW  Elec       q    Type
REMARK                         _______ _______ _______ _____ _____    ______ ____
ROOT
ATOM      1  O   UNL     1       7.950   0.536  25.299  0.00  0.00    -0.317 OA
ENDROOT
BRANCH   1   2
ATOM      2  C   UNL     1       8.721   0.019  24.216  0.00  0.00    +0.321 C 
ATOM      3  C   UNL     1       9.982   0.845  23.883  0.00  0.00    +0.288 C 
ATOM      4  F   UNL     1       9.848   2.128  24.329  0.00  0.00    -0.203 F 
ATOM      5  C   UNL     1      10.057   0.880  22.357  0.00  0.00    +0.215 C 
ATOM      6  C   UNL     1       8.859   0.051  21.898  0.00  0.00    +0.181 C 
ATOM      7  O   UNL     1       7.939  -0.024  23.010  0.00  0.00    -0.338 OA
BRANCH   3   8
ATOM      8  O   UNL     1      11.154   0.333  24.506  0.00  0.00    -0.355 OA
ATOM      9  H   UNL     1      11.723   1.083  24.747  0.00  0.00    +0.213 HD
ENDBRANCH   3   8
BRANCH   5  10
ATOM     10  O   UNL     1       9.931   2.220  21.850  0.00  0.00    -0.383 OA
ATOM     11  H   UNL     1       9.994   2.170  20.874  0.00  0.00    +0.210 HD
ENDBRANCH   5  10
BRANCH   6  12
ATOM     12  C   UNL     1       9.290  -1.369  21.506  0.00  0.00    +0.190 C 
BRANCH  12  13
ATOM     13  O   UNL     1      10.627  -1.622  21.922  0.00  0.00    -0.392 OA
ATOM     14  H   UNL     1      10.863  -2.512  21.599  0.00  0.00    +0.210 HD
ENDBRANCH  12  13
ENDBRANCH   6  12
ENDBRANCH   1   2
BRANCH   1  15
ATOM     15  C   UNL     1       7.949  -0.318  26.436  0.00  0.00    +0.250 C 
BRANCH  15  16
ATOM     16  O   UNL     1       9.238  -0.376  27.018  0.00  0.00    -0.367 OA
ATOM     17  H   UNL     1       9.237  -1.137  27.624  0.00  0.00    +0.212 HD
ENDBRANCH  15  16
BRANCH  15  18
ATOM     18  C   UNL     1       7.520  -1.726  26.016  0.00  0.00    +0.063 C 
BRANCH  18  19
ATOM     19  C   UNL     1       8.450  -2.778  26.632  0.00  0.00    +0.035 C 
BRANCH  19  20
ATOM     20  CA  UNL     1       8.355  -4.165  25.999  0.00  0.00    +0.161 C 
BRANCH  20  21
ATOM     21  N   UNL     1       8.342  -5.253  27.022  0.00  0.00    -0.318 NA
ATOM     22  H1  UNL     1       9.311  -5.514  27.235  0.00  0.00    +0.119 HD
ATOM     23  H2  UNL     1       7.998  -4.849  27.899  0.00  0.00    +0.119 HD
ENDBRANCH  20  21
BRANCH  20  24
ATOM     24  C   UNL     1       9.567  -4.384  25.067  0.00  0.00    +0.322 C 
ATOM     25  OXT UNL     1       9.948  -3.612  24.202  0.00  0.00    -0.249 OA
BRANCH  24  26
ATOM     26  O   UNL     1      10.189  -5.562  25.344  0.00  0.00    -0.480 OA
ATOM     27  H   UNL     1      11.156  -5.379  25.231  0.00  0.00    +0.295 HD
ENDBRANCH  24  26
ENDBRANCH  20  24
ENDBRANCH  19  20
ENDBRANCH  18  19
ENDBRANCH  15  18
ENDBRANCH   1  15
TORSDOF 13
ENDMDL
MODEL 5
REMARK VINA RESULT:      -5.6      2.885      5.940
REMARK  Name = 
REMARK  13 active torsions:
REMARK  status: ('A' for Active; 'I' for Inactive)
REMARK    1  A    between atoms: N_1  and  CA_2
REMARK    2  A    between atoms: CA_2  and  C_4
REMARK    3  A    between atoms: CA_2  and  C_23
REMARK    4  A    between atoms: C_4  and  C_5
REMARK    5  A    between atoms: C_5  and  C_6
REMARK    6  A    between atoms: C_6  and  O_8
REMARK    7  A    between atoms: C_6  and  O_9
REMARK    8  A    between atoms: O_9  and  C_10
REMARK    9  A    between atoms: C_13  and  C_15
REMARK   10  A    between atoms: C_15  and  O_16
REMARK   11  A    between atoms: C_17  and  O_19
REMARK   12  A    between atoms: C_20  and  O_21
REMARK   13  A    between atoms: C_23  and  O_24
REMARK                            x       y       z     vdW  Elec       q    Type
REMARK                         _______ _______ _______ _____ _____    ______ ____
ROOT
ATOM      1  O   UNL     1       8.406  -1.656  23.354  0.00  0.00    -0.317 OA
ENDROOT
BRANCH   1   2
ATOM      2  C   UNL     1       7.706  -2.866  23.636  0.00  0.00    +0.321 C 
ATOM      3  C   UNL     1       8.187  -3.597  24.908  0.00  0.00    +0.288 C 
ATOM      4  F   UNL     1       9.465  -3.231  25.218  0.00  0.00    -0.203 F 
ATOM      5  C   UNL     1       8.194  -5.083  24.550  0.00  0.00    +0.215 C 
ATOM      6  C   UNL     1       7.689  -5.129  23.109  0.00  0.00    +0.181 C 
ATOM      7  O   UNL     1       7.853  -3.804  22.555  0.00  0.00    -0.338 OA
BRANCH   3   8
ATOM      8  O   UNL     1       7.401  -3.283  26.051  0.00  0.00    -0.355 OA
ATOM      9  H   UNL     1       6.467  -3.441  25.832  0.00  0.00    +0.213 HD
ENDBRANCH   3   8
BRANCH   5  10
ATOM     10  O   UNL     1       9.519  -5.637  24.608  0.00  0.00    -0.383 OA
ATOM     11  H   UNL     1       9.877  -5.446  25.500  0.00  0.00    +0.210 HD
ENDBRANCH   5  10
BRANCH   6  12
ATOM     12  C   UNL     1       6.204  -5.514  23.058  0.00  0.00    +0.190 C 
BRANCH  12  13
ATOM     13  O   UNL     1       5.992  -6.584  22.146  0.00  0.00    -0.392 OA
ATOM     14  H   UNL     1       5.881  -7.394  22.678  0.00  0.00    +0.210 HD
ENDBRANCH  12  13
ENDBRANCH   6  12
ENDBRANCH   1   2
BRANCH   1  15
ATOM     15  C   UNL     1       9.233  -1.751  22.201  0.00  0.00    +0.250 C 
BRANCH  15  16
ATOM     16  O   UNL     1      10.529  -2.201  22.552  0.00  0.00    -0.367 OA
ATOM     17  H   UNL     1      10.883  -1.559  23.191  0.00  0.00    +0.212 HD
ENDBRANCH  15  16
BRANCH  15  18
ATOM     18  C   UNL     1       9.338  -0.378  21.534  0.00  0.00    +0.063 C 
BRANCH  18  19
ATOM     19  C   UNL     1       8.480   0.650  22.282  0.00  0.00    +0.035 C 
BRANCH  19  20
ATOM     20  CA  UNL     1       9.247   1.865  22.805  0.00  0.00    +0.161 C 
BRANCH  20  21
ATOM     21  N   UNL     1      10.279   2.340  21.835  0.00  0.00    -0.318 NA
ATOM     22  H1  UNL     1      11.179   2.408  22.322  0.00  0.00    +0.119 HD
ATOM     23  H2  UNL     1      10.425   1.593  21.149  0.00  0.00    +0.119 HD
ENDBRANCH  20  21
BRANCH  20  24
ATOM     24  C   UNL     1       9.952   1.491  24.127  0.00  0.00    +0.322 C 
ATOM     25  OXT UNL     1      11.112   1.126  24.236  0.00  0.00    -0.249 OA
BRANCH  24  26
ATOM     26  O   UNL     1       9.111   1.639  25.187  0.00  0.00    -0.480 OA
ATOM     27  H   UNL     1       9.554   1.168  25.938  0.00  0.00    +0.295 HD
ENDBRANCH  24  26
ENDBRANCH  20  24
ENDBRANCH  19  20
ENDBRANCH  18  19
ENDBRANCH  15  18
ENDBRANCH   1  15
TORSDOF 13
ENDMDL
MODEL 6
REMARK VINA RESULT:      -5.5      2.399      3.539
REMARK  Name = 
REMARK  13 active torsions:
REMARK  status: ('A' for Active; 'I' for Inactive)
REMARK    1  A    between atoms: N_1  and  CA_2
REMARK    2  A    between atoms: CA_2  and  C_4
REMARK    3  A    between atoms: CA_2  and  C_23
REMARK    4  A    between atoms: C_4  and  C_5
REMARK    5  A    between atoms: C_5  and  C_6
REMARK    6  A    between atoms: C_6  and  O_8
REMARK    7  A    between atoms: C_6  and  O_9
REMARK    8  A    between atoms: O_9  and  C_10
REMARK    9  A    between atoms: C_13  and  C_15
REMARK   10  A    between atoms: C_15  and  O_16
REMARK   11  A    between atoms: C_17  and  O_19
REMARK   12  A    between atoms: C_20  and  O_21
REMARK   13  A    between atoms: C_23  and  O_24
REMARK                            x       y       z     vdW  Elec       q    Type
REMARK                         _______ _______ _______ _____ _____    ______ ____
ROOT
ATOM      1  O   UNL     1      10.332  -0.203  23.339  0.00  0.00    -0.317 OA
ENDROOT
BRANCH   1   2
ATOM      2  C   UNL     1       9.107   0.498  23.135  0.00  0.00    +0.321 C 
ATOM      3  C   UNL     1       9.177   1.598  22.055  0.00  0.00    +0.288 C 
ATOM      4  F   UNL     1      10.464   2.014  21.874  0.00  0.00    -0.203 F 
ATOM      5  C   UNL     1       8.375   2.774  22.614  0.00  0.00    +0.215 C 
ATOM      6  C   UNL     1       7.864   2.276  23.965  0.00  0.00    +0.181 C 
ATOM      7  O   UNL     1       8.687   1.150  24.346  0.00  0.00    -0.338 OA
BRANCH   3   8
ATOM      8  O   UNL     1       8.727   1.148  20.783  0.00  0.00    -0.355 OA
ATOM      9  H   UNL     1       8.039   0.477  20.923  0.00  0.00    +0.213 HD
ENDBRANCH   3   8
BRANCH   5  10
ATOM     10  O   UNL     1       9.202   3.933  22.815  0.00  0.00    -0.383 OA
ATOM     11  H   UNL     1      10.045   3.776  22.343  0.00  0.00    +0.210 HD
ENDBRANCH   5  10
BRANCH   6  12
ATOM     12  C   UNL     1       6.402   1.819  23.866  0.00  0.00    +0.190 C 
BRANCH  12  13
ATOM     13  O   UNL     1       5.967   1.812  22.512  0.00  0.00    -0.392 OA
ATOM     14  H   UNL     1       5.807   0.881  22.269  0.00  0.00    +0.210 HD
ENDBRANCH  12  13
ENDBRANCH   6  12
ENDBRANCH   1   2
BRANCH   1  15
ATOM     15  C   UNL     1      10.297  -1.536  22.842  0.00  0.00    +0.250 C 
BRANCH  15  16
ATOM     16  O   UNL     1      10.266  -1.540  21.426  0.00  0.00    -0.367 OA
ATOM     17  H   UNL     1       9.655  -2.250  21.163  0.00  0.00    +0.212 HD
ENDBRANCH  15  16
BRANCH  15  18
ATOM     18  C   UNL     1       9.053  -2.247  23.378  0.00  0.00    +0.063 C 
BRANCH  18  19
ATOM     19  C   UNL     1       9.449  -3.370  24.344  0.00  0.00    +0.035 C 
BRANCH  19  20
ATOM     20  CA  UNL     1       8.370  -3.753  25.357  0.00  0.00    +0.161 C 
BRANCH  20  21
ATOM     21  N   UNL     1       8.267  -2.765  26.472  0.00  0.00    -0.318 NA
ATOM     22  H1  UNL     1       7.300  -2.428  26.523  0.00  0.00    +0.119 HD
ATOM     23  H2  UNL     1       8.397  -3.276  27.350  0.00  0.00    +0.119 HD
ENDBRANCH  20  21
BRANCH  20  24
ATOM     24  C   UNL     1       8.704  -5.136  25.957  0.00  0.00    +0.322 C 
ATOM     25  OXT UNL     1       7.948  -5.824  26.625  0.00  0.00    -0.249 OA
BRANCH  24  26
ATOM     26  O   UNL     1       9.969  -5.517  25.631  0.00  0.00    -0.480 OA
ATOM     27  H   UNL     1      10.129  -6.353  26.138  0.00  0.00    +0.295 HD
ENDBRANCH  24  26
ENDBRANCH  20  24
ENDBRANCH  19  20
ENDBRANCH  18  19
ENDBRANCH  15  18
ENDBRANCH   1  15
TORSDOF 13
ENDMDL
MODEL 7
REMARK VINA RESULT:      -5.5      2.754      5.827
REMARK  Name = 
REMARK  13 active torsions:
REMARK  status: ('A' for Active; 'I' for Inactive)
REMARK    1  A    between atoms: N_1  and  CA_2
REMARK    2  A    between atoms: CA_2  and  C_4
REMARK    3  A    between atoms: CA_2  and  C_23
REMARK    4  A    between atoms: C_4  and  C_5
REMARK    5  A    between atoms: C_5  and  C_6
REMARK    6  A    between atoms: C_6  and  O_8
REMARK    7  A    between atoms: C_6  and  O_9
REMARK    8  A    between atoms: O_9  and  C_10
REMARK    9  A    between atoms: C_13  and  C_15
REMARK   10  A    between atoms: C_15  and  O_16
REMARK   11  A    between atoms: C_17  and  O_19
REMARK   12  A    between atoms: C_20  and  O_21
REMARK   13  A    between atoms: C_23  and  O_24
REMARK                            x       y       z     vdW  Elec       q    Type
REMARK                         _______ _______ _______ _____ _____    ______ ____
ROOT
ATOM      1  O   UNL     1       7.804  -3.062  22.964  0.00  0.00    -0.317 OA
ENDROOT
BRANCH   1   2
ATOM      2  C   UNL     1       7.807  -3.517  24.315  0.00  0.00    +0.321 C 
ATOM      3  C   UNL     1       9.163  -3.357  25.036  0.00  0.00    +0.288 C 
ATOM      4  F   UNL     1      10.183  -3.289  24.132  0.00  0.00    -0.203 F 
ATOM      5  C   UNL     1       9.344  -4.633  25.858  0.00  0.00    +0.215 C 
ATOM      6  C   UNL     1       8.075  -5.440  25.592  0.00  0.00    +0.181 C 
ATOM      7  O   UNL     1       7.480  -4.916  24.383  0.00  0.00    -0.338 OA
BRANCH   3   8
ATOM      8  O   UNL     1       9.239  -2.161  25.803  0.00  0.00    -0.355 OA
ATOM      9  H   UNL     1       9.498  -1.435  25.212  0.00  0.00    +0.213 HD
ENDBRANCH   3   8
BRANCH   5  10
ATOM     10  O   UNL     1      10.489  -5.387  25.423  0.00  0.00    -0.383 OA
ATOM     11  H   UNL     1      10.770  -5.950  26.173  0.00  0.00    +0.210 HD
ENDBRANCH   5  10
BRANCH   6  12
ATOM     12  C   UNL     1       7.076  -5.291  26.748  0.00  0.00    +0.190 C 
BRANCH  12  13
ATOM     13  O   UNL     1       7.509  -6.026  27.885  0.00  0.00    -0.392 OA
ATOM     14  H   UNL     1       6.917  -6.797  27.970  0.00  0.00    +0.210 HD
ENDBRANCH  12  13
ENDBRANCH   6  12
ENDBRANCH   1   2
BRANCH   1  15
ATOM     15  C   UNL     1       7.794  -1.644  22.856  0.00  0.00    +0.250 C 
BRANCH  15  16
ATOM     16  O   UNL     1       6.477  -1.169  22.644  0.00  0.00    -0.367 OA
ATOM     17  H   UNL     1       5.882  -1.925  22.783  0.00  0.00    +0.212 HD
ENDBRANCH  15  16
BRANCH  15  18
ATOM     18  C   UNL     1       8.681  -1.216  21.685  0.00  0.00    +0.063 C 
BRANCH  18  19
ATOM     19  C   UNL     1       9.883  -0.408  22.188  0.00  0.00    +0.035 C 
BRANCH  19  20
ATOM     20  CA  UNL     1       9.538   0.977  22.736  0.00  0.00    +0.161 C 
BRANCH  20  21
ATOM     21  N   UNL     1      10.176   2.072  21.945  0.00  0.00    -0.318 NA
ATOM     22  H1  UNL     1      10.914   1.666  21.360  0.00  0.00    +0.119 HD
ATOM     23  H2  UNL     1       9.484   2.409  21.270  0.00  0.00    +0.119 HD
ENDBRANCH  20  21
BRANCH  20  24
ATOM     24  C   UNL     1      10.025   1.082  24.198  0.00  0.00    +0.322 C 
ATOM     25  OXT UNL     1      10.799   0.314  24.748  0.00  0.00    -0.249 OA
BRANCH  24  26
ATOM     26  O   UNL     1       9.489   2.171  24.814  0.00  0.00    -0.480 OA
ATOM     27  H   UNL     1       8.742   1.820  25.362  0.00  0.00    +0.295 HD
ENDBRANCH  24  26
ENDBRANCH  20  24
ENDBRANCH  19  20
ENDBRANCH  18  19
ENDBRANCH  15  18
ENDBRANCH   1  15
TORSDOF 13
ENDMDL
MODEL 8
REMARK VINA RESULT:      -5.4      2.795      4.164
REMARK  Name = 
REMARK  13 active torsions:
REMARK  status: ('A' for Active; 'I' for Inactive)
REMARK    1  A    between atoms: N_1  and  CA_2
REMARK    2  A    between atoms: CA_2  and  C_4
REMARK    3  A    between atoms: CA_2  and  C_23
REMARK    4  A    between atoms: C_4  and  C_5
REMARK    5  A    between atoms: C_5  and  C_6
REMARK    6  A    between atoms: C_6  and  O_8
REMARK    7  A    between atoms: C_6  and  O_9
REMARK    8  A    between atoms: O_9  and  C_10
REMARK    9  A    between atoms: C_13  and  C_15
REMARK   10  A    between atoms: C_15  and  O_16
REMARK   11  A    between atoms: C_17  and  O_19
REMARK   12  A    between atoms: C_20  and  O_21
REMARK   13  A    between atoms: C_23  and  O_24
REMARK                            x       y       z     vdW  Elec       q    Type
REMARK                         _______ _______ _______ _____ _____    ______ ____
ROOT
ATOM      1  O   UNL     1      10.402  -0.192  23.193  0.00  0.00    -0.317 OA
ENDROOT
BRANCH   1   2
ATOM      2  C   UNL     1       9.162   0.499  23.054  0.00  0.00    +0.321 C 
ATOM      3  C   UNL     1       9.179   1.628  22.001  0.00  0.00    +0.288 C 
ATOM      4  F   UNL     1      10.454   2.063  21.783  0.00  0.00    -0.203 F 
ATOM      5  C   UNL     1       8.386   2.778  22.620  0.00  0.00    +0.215 C 
ATOM      6  C   UNL     1       7.932   2.240  23.976  0.00  0.00    +0.181 C 
ATOM      7  O   UNL     1       8.781   1.115  24.296  0.00  0.00    -0.338 OA
BRANCH   3   8
ATOM      8  O   UNL     1       8.687   1.205  20.735  0.00  0.00    -0.355 OA
ATOM      9  H   UNL     1       9.298   0.539  20.377  0.00  0.00    +0.213 HD
ENDBRANCH   3   8
BRANCH   5  10
ATOM     10  O   UNL     1       9.206   3.942  22.819  0.00  0.00    -0.383 OA
ATOM     11  H   UNL     1       9.200   4.144  23.778  0.00  0.00    +0.210 HD
ENDBRANCH   5  10
BRANCH   6  12
ATOM     12  C   UNL     1       6.472   1.768  23.920  0.00  0.00    +0.190 C 
BRANCH  12  13
ATOM     13  O   UNL     1       6.023   1.679  22.574  0.00  0.00    -0.392 OA
ATOM     14  H   UNL     1       5.911   2.592  22.249  0.00  0.00    +0.210 HD
ENDBRANCH  12  13
ENDBRANCH   6  12
ENDBRANCH   1   2
BRANCH   1  15
ATOM     15  C   UNL     1      10.320  -1.559  22.809  0.00  0.00    +0.250 C 
BRANCH  15  16
ATOM     16  O   UNL     1       9.776  -1.680  21.508  0.00  0.00    -0.367 OA
ATOM     17  H   UNL     1      10.168  -0.968  20.974  0.00  0.00    +0.212 HD
ENDBRANCH  15  16
BRANCH  15  18
ATOM     18  C   UNL     1       9.434  -2.315  23.801  0.00  0.00    +0.063 C 
BRANCH  18  19
ATOM     19  C   UNL     1       8.498  -3.278  23.061  0.00  0.00    +0.035 C 
BRANCH  19  20
ATOM     20  CA  UNL     1       7.081  -3.357  23.630  0.00  0.00    +0.161 C 
BRANCH  20  21
ATOM     21  N   UNL     1       6.653  -4.766  23.882  0.00  0.00    -0.318 NA
ATOM     22  H1  UNL     1       7.286  -5.183  24.573  0.00  0.00    +0.119 HD
ATOM     23  H2  UNL     1       5.749  -4.733  24.363  0.00  0.00    +0.119 HD
ENDBRANCH  20  21
BRANCH  20  24
ATOM     24  C   UNL     1       6.094  -2.717  22.630  0.00  0.00    +0.322 C 
ATOM     25  OXT UNL     1       5.350  -3.324  21.876  0.00  0.00    -0.249 OA
BRANCH  24  26
ATOM     26  O   UNL     1       6.139  -1.359  22.702  0.00  0.00    -0.480 OA
ATOM     27  H   UNL     1       6.981  -1.101  22.248  0.00  0.00    +0.295 HD
ENDBRANCH  24  26
ENDBRANCH  20  24
ENDBRANCH  19  20
ENDBRANCH  18  19
ENDBRANCH  15  18
ENDBRANCH   1  15
TORSDOF 13
ENDMDL
MODEL 9
REMARK VINA RESULT:      -5.3      2.878      6.357
REMARK  Name = 
REMARK  13 active torsions:
REMARK  status: ('A' for Active; 'I' for Inactive)
REMARK    1  A    between atoms: N_1  and  CA_2
REMARK    2  A    between atoms: CA_2  and  C_4
REMARK    3  A    between atoms: CA_2  and  C_23
REMARK    4  A    between atoms: C_4  and  C_5
REMARK    5  A    between atoms: C_5  and  C_6
REMARK    6  A    between atoms: C_6  and  O_8
REMARK    7  A    between atoms: C_6  and  O_9
REMARK    8  A    between atoms: O_9  and  C_10
REMARK    9  A    between atoms: C_13  and  C_15
REMARK   10  A    between atoms: C_15  and  O_16
REMARK   11  A    between atoms: C_17  and  O_19
REMARK   12  A    between atoms: C_20  and  O_21
REMARK   13  A    between atoms: C_23  and  O_24
REMARK                            x       y       z     vdW  Elec       q    Type
REMARK                         _______ _______ _______ _____ _____    ______ ____
ROOT
ATOM      1  O   UNL     1       8.519  -1.108  24.525  0.00  0.00    -0.317 OA
ENDROOT
BRANCH   1   2
ATOM      2  C   UNL     1       8.441  -2.392  25.142  0.00  0.00    +0.321 C 
ATOM      3  C   UNL     1       8.799  -3.568  24.209  0.00  0.00    +0.288 C 
ATOM      4  F   UNL     1       8.632  -3.213  22.902  0.00  0.00    -0.203 F 
ATOM      5  C   UNL     1       7.790  -4.670  24.532  0.00  0.00    +0.215 C 
ATOM      6  C   UNL     1       6.931  -4.082  25.650  0.00  0.00    +0.181 C 
ATOM      7  O   UNL     1       7.108  -2.648  25.617  0.00  0.00    -0.338 OA
BRANCH   3   8
ATOM      8  O   UNL     1      10.156  -3.975  24.334  0.00  0.00    -0.355 OA
ATOM      9  H   UNL     1      10.694  -3.188  24.526  0.00  0.00    +0.213 HD
ENDBRANCH   3   8
BRANCH   5  10
ATOM     10  O   UNL     1       6.957  -4.975  23.401  0.00  0.00    -0.383 OA
ATOM     11  H   UNL     1       7.237  -4.393  22.665  0.00  0.00    +0.210 HD
ENDBRANCH   5  10
BRANCH   6  12
ATOM     12  C   UNL     1       7.373  -4.611  27.021  0.00  0.00    +0.190 C 
BRANCH  12  13
ATOM     13  O   UNL     1       8.114  -5.817  26.880  0.00  0.00    -0.392 OA
ATOM     14  H   UNL     1       7.879  -6.197  26.012  0.00  0.00    +0.210 HD
ENDBRANCH  12  13
ENDBRANCH   6  12
ENDBRANCH   1   2
BRANCH   1  15
ATOM     15  C   UNL     1       9.826  -0.550  24.570  0.00  0.00    +0.250 C 
BRANCH  15  16
ATOM     16  O   UNL     1       9.839   0.627  25.357  0.00  0.00    -0.367 OA
ATOM     17  H   UNL     1       9.209   0.483  26.085  0.00  0.00    +0.212 HD
ENDBRANCH  15  16
BRANCH  15  18
ATOM     18  C   UNL     1      10.286  -0.214  23.150  0.00  0.00    +0.063 C 
BRANCH  18  19
ATOM     19  C   UNL     1       9.079   0.013  22.233  0.00  0.00    +0.035 C 
BRANCH  19  20
ATOM     20  CA  UNL     1       8.929   1.443  21.715  0.00  0.00    +0.161 C 
BRANCH  20  21
ATOM     21  N   UNL     1      10.218   2.196  21.756  0.00  0.00    -0.318 NA
ATOM     22  H1  UNL     1      10.937   1.640  21.281  0.00  0.00    +0.119 HD
ATOM     23  H2  UNL     1      10.113   3.023  21.160  0.00  0.00    +0.119 HD
ENDBRANCH  20  21
BRANCH  20  24
ATOM     24  C   UNL     1       7.896   2.194  22.583  0.00  0.00    +0.322 C 
ATOM     25  OXT UNL     1       7.938   2.311  23.798  0.00  0.00    -0.249 OA
BRANCH  24  26
ATOM     26  O   UNL     1       6.916   2.741  21.813  0.00  0.00    -0.480 OA
ATOM     27  H   UNL     1       7.008   2.307  20.927  0.00  0.00    +0.295 HD
ENDBRANCH  24  26
ENDBRANCH  20  24
ENDBRANCH  19  20
ENDBRANCH  18  19
ENDBRANCH  15  18
ENDBRANCH   1  15
TORSDOF 13
ENDMDL
