MODEL 1
REMARK VINA RESULT:      -7.2      0.000      0.000
REMARK  Name = 
REMARK  10 active torsions:
REMARK  status: ('A' for Active; 'I' for Inactive)
REMARK    1  A    between atoms: N_4  and  C_5
REMARK    2  A    between atoms: C_5  and  C_6
REMARK    3  A    between atoms: C_6  and  C_7
REMARK    4  A    between atoms: C_7  and  C_8
REMARK    5  A    between atoms: C_21  and  N_56
REMARK    6  A    between atoms: C_29  and  C_31
REMARK    7  A    between atoms: C_31  and  C_32
REMARK    8  A    between atoms: C_35  and  O_36
REMARK    9  A    between atoms: C_42  and  C_44
REMARK   10  A    between atoms: C_44  and  C_45
REMARK                            x       y       z     vdW  Elec       q    Type
REMARK                         _______ _______ _______ _____ _____    ______ ____
ROOT
ATOM      1  C   UNL     1       7.522   4.563  25.332  0.00  0.00    +0.149 C 
ATOM      2  C   UNL     1       6.348   5.894  25.061  0.00  0.00    +0.237 C 
ATOM      3  O   UNL     1       6.029   6.541  26.069  0.00  0.00    -0.285 OA
ATOM      4  C   UNL     1       5.578   6.446  23.601  0.00  0.00    +0.282 C 
ATOM      5  O   UNL     1       6.164   6.426  22.530  0.00  0.00    -0.267 OA
ATOM      6  N   UNL     1       4.180   6.857  23.717  0.00  0.00    -0.297 N 
ATOM      7  H   UNL     1       4.078   7.272  24.654  0.00  0.00    +0.150 HD
ATOM      8  C   UNL     1       2.731   7.108  22.929  0.00  0.00    +0.163 C 
ATOM      9  C   UNL     1       2.030   6.349  24.099  0.00  0.00    +0.234 C 
ATOM     10  O   UNL     1       1.192   6.838  24.796  0.00  0.00    -0.274 OA
ATOM     11  N   UNL     1       2.382   4.958  23.958  0.00  0.00    -0.307 N 
ATOM     12  H   UNL     1       2.767   4.835  23.069  0.00  0.00    +0.149 HD
ATOM     13  C   UNL     1       3.276   4.224  24.820  0.00  0.00    +0.101 C 
ATOM     14  C   UNL     1       4.418   3.851  23.835  0.00  0.00    +0.000 C 
ATOM     15  C   UNL     1       4.922   2.645  23.557  0.00  0.00    +0.065 C 
ATOM     16  C   UNL     1       6.018   2.417  22.534  0.00  0.00    +0.237 C 
ATOM     17  O   UNL     1       6.148   3.043  21.501  0.00  0.00    -0.271 OA
ATOM     18  N   UNL     1       6.891   1.490  23.025  0.00  0.00    -0.310 N 
ATOM     19  H   UNL     1       6.497   0.958  23.774  0.00  0.00    +0.149 HD
ATOM     20  C   UNL     1       8.130   0.859  22.536  0.00  0.00    +0.136 C 
ATOM     21  C   UNL     1       8.758   0.050  23.710  0.00  0.00    +0.176 C 
ATOM     22  C   UNL     1       7.731  -1.021  24.085  0.00  0.00    +0.238 C 
ATOM     23  O   UNL     1       7.649  -2.088  23.435  0.00  0.00    -0.273 OA
ATOM     24  N   UNL     1       6.865  -0.733  25.139  0.00  0.00    -0.288 N 
ATOM     25  C   UNL     1       6.481   0.536  25.909  0.00  0.00    +0.162 C 
ATOM     26  C   UNL     1       5.754  -0.117  27.116  0.00  0.00    +0.033 C 
ATOM     27  C   UNL     1       4.947  -1.243  26.452  0.00  0.00    +0.021 C 
ATOM     28  C   UNL     1       7.131   2.042  26.263  0.00  0.00    +0.234 C 
ATOM     29  O   UNL     1       7.309   2.376  27.436  0.00  0.00    -0.274 OA
ATOM     30  C   UNL     1       5.943  -1.827  25.474  0.00  0.00    +0.109 C 
ATOM     31  N   UNL     1       7.292   3.012  25.228  0.00  0.00    -0.304 N 
ATOM     32  H   UNL     1       7.586   2.642  24.330  0.00  0.00    +0.149 HD
ENDROOT
BRANCH  21  33
ATOM     33  N   UNL     1      10.066  -0.540  23.429  0.00  0.00    -0.305 N 
ATOM     34  H   UNL     1      10.234  -0.988  22.540  0.00  0.00    +0.149 HD
ATOM     35  C   UNL     1      11.164  -0.064  24.099  0.00  0.00    +0.326 C 
ATOM     36  O   UNL     1      11.145   0.731  25.028  0.00  0.00    -0.280 OA
ENDBRANCH  21  33
BRANCH   1  37
ATOM     37  C   UNL     1       9.021   4.885  24.915  0.00  0.00    +0.033 C 
BRANCH  37  38
ATOM     38  C   UNL     1       9.613   4.348  23.532  0.00  0.00    +0.039 C 
BRANCH  38  39
ATOM     39  C   UNL     1      11.046   3.756  23.498  0.00  0.00    +0.196 C 
BRANCH  39  44
ATOM     40  N   UNL     1      12.731   6.083  24.105  0.00  0.00    -0.289 N 
ATOM     41  H   UNL     1      12.341   5.538  24.865  0.00  0.00    +0.255 HD
ATOM     42  H   UNL     1      13.529   6.614  24.412  0.00  0.00    +0.255 HD
ATOM     43  C   UNL     1      12.901   5.416  22.962  0.00  0.00    +0.376 C 
ATOM     44  N   UNL     1      11.946   4.505  22.618  0.00  0.00    -0.276 N 
ATOM     45  H   UNL     1      12.268   4.001  21.789  0.00  0.00    +0.258 HD
ATOM     46  N   UNL     1      13.888   5.638  22.165  0.00  0.00    -0.130 NA
ATOM     47  H   UNL     1      14.468   6.360  22.548  0.00  0.00    +0.306 HD
ENDBRANCH  39  44
ENDBRANCH  38  39
ENDBRANCH  37  38
ENDBRANCH   1  37
BRANCH   8  48
ATOM     48  C   UNL     1       1.618   6.332  21.889  0.00  0.00    +0.067 C 
BRANCH  48  49
ATOM     49  C   UNL     1       1.828   5.705  20.553  0.00  0.00    -0.045 A 
ATOM     50  C   UNL     1       1.925   4.341  20.378  0.00  0.00    +0.004 A 
ATOM     51  C   UNL     1       1.833   3.833  19.086  0.00  0.00    +0.000 A 
ATOM     52  C   UNL     1       1.728   4.689  17.985  0.00  0.00    +0.000 A 
ATOM     53  C   UNL     1       1.898   6.056  18.144  0.00  0.00    +0.000 A 
ATOM     54  C   UNL     1       1.997   6.560  19.433  0.00  0.00    +0.004 A 
ENDBRANCH  48  49
ENDBRANCH   8  48
BRANCH  13  55
ATOM     55  C   UNL     1       3.429   4.912  26.201  0.00  0.00    +0.061 C 
BRANCH  55  56
ATOM     56  C   UNL     1       3.398   3.913  27.368  0.00  0.00    -0.045 A 
ATOM     57  C   UNL     1       2.616   2.743  27.291  0.00  0.00    +0.007 A 
ATOM     58  C   UNL     1       2.754   1.735  28.257  0.00  0.00    +0.045 A 
ATOM     59  C   UNL     1       3.669   1.890  29.290  0.00  0.00    +0.117 A 
ATOM     60  C   UNL     1       4.458   3.025  29.374  0.00  0.00    +0.045 A 
ATOM     61  C   UNL     1       4.297   4.041  28.441  0.00  0.00    +0.007 A 
BRANCH  59  62
ATOM     62  O   UNL     1       3.780   0.904  30.224  0.00  0.00    -0.507 OA
ATOM     63  H   UNL     1       4.375   1.227  30.920  0.00  0.00    +0.292 HD
ENDBRANCH  59  62
ENDBRANCH  55  56
ENDBRANCH  13  55
TORSDOF 10
ENDMDL
MODEL 2
REMARK VINA RESULT:      -7.0      3.511      9.009
REMARK  Name = 
REMARK  10 active torsions:
REMARK  status: ('A' for Active; 'I' for Inactive)
REMARK    1  A    between atoms: N_4  and  C_5
REMARK    2  A    between atoms: C_5  and  C_6
REMARK    3  A    between atoms: C_6  and  C_7
REMARK    4  A    between atoms: C_7  and  C_8
REMARK    5  A    between atoms: C_21  and  N_56
REMARK    6  A    between atoms: C_29  and  C_31
REMARK    7  A    between atoms: C_31  and  C_32
REMARK    8  A    between atoms: C_35  and  O_36
REMARK    9  A    between atoms: C_42  and  C_44
REMARK   10  A    between atoms: C_44  and  C_45
REMARK                            x       y       z     vdW  Elec       q    Type
REMARK                         _______ _______ _______ _____ _____    ______ ____
ROOT
ATOM      1  C   UNL     1       7.275   0.961  28.200  0.00  0.00    +0.149 C 
ATOM      2  C   UNL     1       8.295  -0.321  27.464  0.00  0.00    +0.237 C 
ATOM      3  O   UNL     1       9.517  -0.117  27.495  0.00  0.00    -0.285 OA
ATOM      4  C   UNL     1       7.854  -1.826  26.711  0.00  0.00    +0.282 C 
ATOM      5  O   UNL     1       6.906  -2.482  27.114  0.00  0.00    -0.267 OA
ATOM      6  N   UNL     1       8.628  -2.217  25.534  0.00  0.00    -0.297 N 
ATOM      7  H   UNL     1       9.586  -1.871  25.690  0.00  0.00    +0.150 HD
ATOM      8  C   UNL     1       8.678  -3.132  24.139  0.00  0.00    +0.163 C 
ATOM      9  C   UNL     1       9.234  -1.873  23.403  0.00  0.00    +0.234 C 
ATOM     10  O   UNL     1      10.296  -1.842  22.856  0.00  0.00    -0.274 OA
ATOM     11  N   UNL     1       8.138  -0.943  23.291  0.00  0.00    -0.307 N 
ATOM     12  H   UNL     1       7.314  -1.425  23.498  0.00  0.00    +0.149 HD
ATOM     13  C   UNL     1       8.002   0.292  24.025  0.00  0.00    +0.101 C 
ATOM     14  C   UNL     1       6.718   0.018  24.856  0.00  0.00    +0.000 C 
ATOM     15  C   UNL     1       5.597   0.742  24.924  0.00  0.00    +0.065 C 
ATOM     16  C   UNL     1       4.392   0.333  25.751  0.00  0.00    +0.237 C 
ATOM     17  O   UNL     1       4.024  -0.812  25.927  0.00  0.00    -0.271 OA
ATOM     18  N   UNL     1       3.879   1.442  26.357  0.00  0.00    -0.310 N 
ATOM     19  H   UNL     1       4.188   2.288  25.923  0.00  0.00    +0.149 HD
ATOM     20  C   UNL     1       2.749   1.708  27.266  0.00  0.00    +0.136 C 
ATOM     21  C   UNL     1       2.867   3.179  27.768  0.00  0.00    +0.176 C 
ATOM     22  C   UNL     1       2.764   4.062  26.523  0.00  0.00    +0.238 C 
ATOM     23  O   UNL     1       1.648   4.352  26.033  0.00  0.00    -0.273 OA
ATOM     24  N   UNL     1       3.957   4.480  25.936  0.00  0.00    -0.288 N 
ATOM     25  C   UNL     1       5.429   4.070  26.065  0.00  0.00    +0.162 C 
ATOM     26  C   UNL     1       6.087   5.277  25.342  0.00  0.00    +0.033 C 
ATOM     27  C   UNL     1       5.146   5.505  24.147  0.00  0.00    +0.021 C 
ATOM     28  C   UNL     1       6.441   3.338  27.185  0.00  0.00    +0.234 C 
ATOM     29  O   UNL     1       7.427   3.942  27.613  0.00  0.00    -0.274 OA
ATOM     30  C   UNL     1       3.778   5.366  24.777  0.00  0.00    +0.109 C 
ATOM     31  N   UNL     1       6.282   1.954  27.495  0.00  0.00    -0.304 N 
ATOM     32  H   UNL     1       5.321   1.628  27.538  0.00  0.00    +0.149 HD
ENDROOT
BRANCH  21  33
ATOM     33  N   UNL     1       1.891   3.569  28.784  0.00  0.00    -0.305 N 
ATOM     34  H   UNL     1       0.935   3.251  28.709  0.00  0.00    +0.149 HD
ATOM     35  C   UNL     1       2.336   3.903  30.037  0.00  0.00    +0.326 C 
ATOM     36  O   UNL     1       3.507   4.041  30.366  0.00  0.00    -0.280 OA
ENDBRANCH  21  33
BRANCH   1  37
ATOM     37  C   UNL     1       6.726   0.638  29.655  0.00  0.00    +0.033 C 
BRANCH  37  38
ATOM     38  C   UNL     1       5.199   0.922  30.029  0.00  0.00    +0.039 C 
BRANCH  38  39
ATOM     39  C   UNL     1       4.188  -0.255  30.043  0.00  0.00    +0.196 C 
BRANCH  39  44
ATOM     40  N   UNL     1       3.795  -3.164  30.086  0.00  0.00    -0.289 N 
ATOM     41  H   UNL     1       3.354  -2.591  30.796  0.00  0.00    +0.255 HD
ATOM     42  H   UNL     1       3.332  -4.053  29.998  0.00  0.00    +0.255 HD
ATOM     43  C   UNL     1       4.044  -2.541  28.933  0.00  0.00    +0.376 C 
ATOM     44  N   UNL     1       4.457  -1.243  28.996  0.00  0.00    -0.276 N 
ATOM     45  H   UNL     1       4.497  -0.872  28.044  0.00  0.00    +0.258 HD
ATOM     46  N   UNL     1       3.962  -3.129  27.790  0.00  0.00    -0.130 NA
ATOM     47  H   UNL     1       3.688  -4.083  27.927  0.00  0.00    +0.306 HD
ENDBRANCH  39  44
ENDBRANCH  38  39
ENDBRANCH  37  38
ENDBRANCH   1  37
BRANCH   8  48
ATOM     48  C   UNL     1       7.790  -3.453  22.714  0.00  0.00    +0.067 C 
BRANCH  48  49
ATOM     49  C   UNL     1       6.557  -4.264  22.512  0.00  0.00    -0.045 A 
ATOM     50  C   UNL     1       6.555  -5.456  21.820  0.00  0.00    +0.004 A 
ATOM     51  C   UNL     1       5.437  -6.278  21.924  0.00  0.00    +0.000 A 
ATOM     52  C   UNL     1       4.311  -5.868  22.643  0.00  0.00    +0.000 A 
ATOM     53  C   UNL     1       4.216  -4.565  23.111  0.00  0.00    +0.000 A 
ATOM     54  C   UNL     1       5.329  -3.746  23.000  0.00  0.00    +0.004 A 
ENDBRANCH  48  49
ENDBRANCH   8  48
BRANCH  13  55
ATOM     55  C   UNL     1       9.368   0.787  24.564  0.00  0.00    +0.061 C 
BRANCH  55  56
ATOM     56  C   UNL     1       9.721   2.200  24.075  0.00  0.00    -0.045 A 
ATOM     57  C   UNL     1       8.882   3.293  24.369  0.00  0.00    +0.007 A 
ATOM     58  C   UNL     1       9.310   4.604  24.112  0.00  0.00    +0.045 A 
ATOM     59  C   UNL     1      10.569   4.825  23.568  0.00  0.00    +0.117 A 
ATOM     60  C   UNL     1      11.415   3.766  23.287  0.00  0.00    +0.045 A 
ATOM     61  C   UNL     1      10.979   2.465  23.506  0.00  0.00    +0.007 A 
BRANCH  59  62
ATOM     62  O   UNL     1      10.960   6.105  23.315  0.00  0.00    -0.507 OA
ATOM     63  H   UNL     1      10.462   6.415  22.541  0.00  0.00    +0.292 HD
ENDBRANCH  59  62
ENDBRANCH  55  56
ENDBRANCH  13  55
TORSDOF 10
ENDMDL
MODEL 3
REMARK VINA RESULT:      -7.0      3.364      8.773
REMARK  Name = 
REMARK  10 active torsions:
REMARK  status: ('A' for Active; 'I' for Inactive)
REMARK    1  A    between atoms: N_4  and  C_5
REMARK    2  A    between atoms: C_5  and  C_6
REMARK    3  A    between atoms: C_6  and  C_7
REMARK    4  A    between atoms: C_7  and  C_8
REMARK    5  A    between atoms: C_21  and  N_56
REMARK    6  A    between atoms: C_29  and  C_31
REMARK    7  A    between atoms: C_31  and  C_32
REMARK    8  A    between atoms: C_35  and  O_36
REMARK    9  A    between atoms: C_42  and  C_44
REMARK   10  A    between atoms: C_44  and  C_45
REMARK                            x       y       z     vdW  Elec       q    Type
REMARK                         _______ _______ _______ _____ _____    ______ ____
ROOT
ATOM      1  C   UNL     1       7.328   1.596  27.571  0.00  0.00    +0.149 C 
ATOM      2  C   UNL     1       7.425  -0.169  27.258  0.00  0.00    +0.237 C 
ATOM      3  O   UNL     1       8.568  -0.627  27.121  0.00  0.00    -0.285 OA
ATOM      4  C   UNL     1       6.169  -1.365  27.121  0.00  0.00    +0.282 C 
ATOM      5  O   UNL     1       5.156  -1.302  27.801  0.00  0.00    -0.267 OA
ATOM      6  N   UNL     1       6.359  -2.396  26.102  0.00  0.00    -0.297 N 
ATOM      7  H   UNL     1       7.374  -2.568  26.051  0.00  0.00    +0.150 HD
ATOM      8  C   UNL     1       5.637  -3.536  25.120  0.00  0.00    +0.163 C 
ATOM      9  C   UNL     1       6.512  -2.994  23.947  0.00  0.00    +0.234 C 
ATOM     10  O   UNL     1       7.298  -3.663  23.343  0.00  0.00    -0.274 OA
ATOM     11  N   UNL     1       5.980  -1.700  23.599  0.00  0.00    -0.307 N 
ATOM     12  H   UNL     1       5.106  -1.611  24.024  0.00  0.00    +0.149 HD
ATOM     13  C   UNL     1       6.614  -0.431  23.858  0.00  0.00    +0.101 C 
ATOM     14  C   UNL     1       5.597   0.231  24.828  0.00  0.00    +0.000 C 
ATOM     15  C   UNL     1       4.993   1.418  24.723  0.00  0.00    +0.065 C 
ATOM     16  C   UNL     1       3.980   1.928  25.731  0.00  0.00    +0.237 C 
ATOM     17  O   UNL     1       3.181   1.233  26.327  0.00  0.00    -0.271 OA
ATOM     18  N   UNL     1       4.203   3.256  25.944  0.00  0.00    -0.310 N 
ATOM     19  H   UNL     1       4.751   3.670  25.218  0.00  0.00    +0.149 HD
ATOM     20  C   UNL     1       3.587   4.298  26.785  0.00  0.00    +0.136 C 
ATOM     21  C   UNL     1       4.489   5.567  26.726  0.00  0.00    +0.176 C 
ATOM     22  C   UNL     1       4.504   6.009  25.261  0.00  0.00    +0.238 C 
ATOM     23  O   UNL     1       3.567   6.692  24.787  0.00  0.00    -0.273 OA
ATOM     24  N   UNL     1       5.570   5.577  24.474  0.00  0.00    -0.288 N 
ATOM     25  C   UNL     1       6.667   4.516  24.625  0.00  0.00    +0.162 C 
ATOM     26  C   UNL     1       7.607   4.966  23.474  0.00  0.00    +0.033 C 
ATOM     27  C   UNL     1       6.618   5.321  22.353  0.00  0.00    +0.021 C 
ATOM     28  C   UNL     1       7.466   3.693  25.850  0.00  0.00    +0.234 C 
ATOM     29  O   UNL     1       8.690   3.788  25.960  0.00  0.00    -0.274 OA
ATOM     30  C   UNL     1       5.543   6.083  23.095  0.00  0.00    +0.109 C 
ATOM     31  N   UNL     1       6.767   2.731  26.640  0.00  0.00    -0.304 N 
ATOM     32  H   UNL     1       5.808   2.975  26.869  0.00  0.00    +0.149 HD
ENDROOT
BRANCH  21  33
ATOM     33  N   UNL     1       4.086   6.659  27.610  0.00  0.00    -0.305 N 
ATOM     34  H   UNL     1       3.107   6.866  27.738  0.00  0.00    +0.149 HD
ATOM     35  C   UNL     1       4.936   7.045  28.614  0.00  0.00    +0.326 C 
ATOM     36  O   UNL     1       6.084   6.651  28.771  0.00  0.00    -0.280 OA
ENDBRANCH  21  33
BRANCH   1  37
ATOM     37  C   UNL     1       7.067   2.004  29.084  0.00  0.00    +0.033 C 
BRANCH  37  38
ATOM     38  C   UNL     1       6.016   3.151  29.448  0.00  0.00    +0.039 C 
BRANCH  38  39
ATOM     39  C   UNL     1       4.718   2.778  30.210  0.00  0.00    +0.196 C 
BRANCH  39  44
ATOM     40  N   UNL     1       4.112  -0.084  30.468  0.00  0.00    -0.289 N 
ATOM     41  H   UNL     1       4.579   0.397  31.228  0.00  0.00    +0.255 HD
ATOM     42  H   UNL     1       3.668  -0.927  30.791  0.00  0.00    +0.255 HD
ATOM     43  C   UNL     1       3.354   0.691  29.691  0.00  0.00    +0.376 C 
ATOM     44  N   UNL     1       3.814   1.945  29.414  0.00  0.00    -0.276 N 
ATOM     45  H   UNL     1       3.083   2.451  28.909  0.00  0.00    +0.258 HD
ATOM     46  N   UNL     1       2.253   0.285  29.162  0.00  0.00    -0.130 NA
ATOM     47  H   UNL     1       2.085  -0.665  29.433  0.00  0.00    +0.306 HD
ENDBRANCH  39  44
ENDBRANCH  38  39
ENDBRANCH  37  38
ENDBRANCH   1  37
BRANCH   8  48
ATOM     48  C   UNL     1       4.383  -3.715  23.972  0.00  0.00    +0.067 C 
BRANCH  48  49
ATOM     49  C   UNL     1       3.151  -4.553  24.018  0.00  0.00    -0.045 A 
ATOM     50  C   UNL     1       2.076  -4.251  24.826  0.00  0.00    +0.004 A 
ATOM     51  C   UNL     1       0.873  -4.912  24.597  0.00  0.00    +0.000 A 
ATOM     52  C   UNL     1       0.779  -5.916  23.629  0.00  0.00    +0.000 A 
ATOM     53  C   UNL     1       1.923  -6.398  23.009  0.00  0.00    +0.000 A 
ATOM     54  C   UNL     1       3.122  -5.742  23.243  0.00  0.00    +0.004 A 
ENDBRANCH  48  49
ENDBRANCH   8  48
BRANCH  13  55
ATOM     55  C   UNL     1       8.140  -0.591  24.080  0.00  0.00    +0.061 C 
BRANCH  55  56
ATOM     56  C   UNL     1       8.923   0.695  23.773  0.00  0.00    -0.045 A 
ATOM     57  C   UNL     1      10.088   1.016  24.496  0.00  0.00    +0.007 A 
ATOM     58  C   UNL     1      10.915   2.069  24.075  0.00  0.00    +0.045 A 
ATOM     59  C   UNL     1      10.584   2.794  22.937  0.00  0.00    +0.117 A 
ATOM     60  C   UNL     1       9.451   2.483  22.204  0.00  0.00    +0.045 A 
ATOM     61  C   UNL     1       8.611   1.467  22.639  0.00  0.00    +0.007 A 
BRANCH  59  62
ATOM     62  O   UNL     1      11.394   3.819  22.552  0.00  0.00    -0.507 OA
ATOM     63  H   UNL     1      10.873   4.402  21.976  0.00  0.00    +0.292 HD
ENDBRANCH  59  62
ENDBRANCH  55  56
ENDBRANCH  13  55
TORSDOF 10
ENDMDL
MODEL 4
REMARK VINA RESULT:      -6.9      3.709      7.731
REMARK  Name = 
REMARK  10 active torsions:
REMARK  status: ('A' for Active; 'I' for Inactive)
REMARK    1  A    between atoms: N_4  and  C_5
REMARK    2  A    between atoms: C_5  and  C_6
REMARK    3  A    between atoms: C_6  and  C_7
REMARK    4  A    between atoms: C_7  and  C_8
REMARK    5  A    between atoms: C_21  and  N_56
REMARK    6  A    between atoms: C_29  and  C_31
REMARK    7  A    between atoms: C_31  and  C_32
REMARK    8  A    between atoms: C_35  and  O_36
REMARK    9  A    between atoms: C_42  and  C_44
REMARK   10  A    between atoms: C_44  and  C_45
REMARK                            x       y       z     vdW  Elec       q    Type
REMARK                         _______ _______ _______ _____ _____    ______ ____
ROOT
ATOM      1  C   UNL     1       7.720  -2.879  26.529  0.00  0.00    +0.149 C 
ATOM      2  C   UNL     1       8.675  -1.360  26.455  0.00  0.00    +0.237 C 
ATOM      3  O   UNL     1       8.904  -0.817  27.545  0.00  0.00    -0.285 OA
ATOM      4  C   UNL     1       9.351  -0.513  25.094  0.00  0.00    +0.282 C 
ATOM      5  O   UNL     1       9.792  -1.115  24.128  0.00  0.00    -0.267 OA
ATOM      6  N   UNL     1       9.291   0.947  25.140  0.00  0.00    -0.297 N 
ATOM      7  H   UNL     1       9.390   1.209  26.132  0.00  0.00    +0.150 HD
ATOM      8  C   UNL     1       9.314   2.372  24.272  0.00  0.00    +0.163 C 
ATOM      9  C   UNL     1       8.098   2.845  25.129  0.00  0.00    +0.234 C 
ATOM     10  O   UNL     1       8.116   3.820  25.820  0.00  0.00    -0.274 OA
ATOM     11  N   UNL     1       6.961   2.073  24.694  0.00  0.00    -0.307 N 
ATOM     12  H   UNL     1       7.200   1.636  23.854  0.00  0.00    +0.149 HD
ATOM     13  C   UNL     1       6.314   1.028  25.449  0.00  0.00    +0.101 C 
ATOM     14  C   UNL     1       6.569  -0.210  24.546  0.00  0.00    +0.000 C 
ATOM     15  C   UNL     1       5.682  -1.074  24.043  0.00  0.00    +0.065 C 
ATOM     16  C   UNL     1       6.067  -2.225  23.132  0.00  0.00    +0.237 C 
ATOM     17  O   UNL     1       6.958  -2.192  22.307  0.00  0.00    -0.271 OA
ATOM     18  N   UNL     1       5.337  -3.323  23.481  0.00  0.00    -0.310 N 
ATOM     19  H   UNL     1       4.532  -3.086  24.024  0.00  0.00    +0.149 HD
ATOM     20  C   UNL     1       5.249  -4.714  23.002  0.00  0.00    +0.136 C 
ATOM     21  C   UNL     1       4.372  -5.519  24.008  0.00  0.00    +0.176 C 
ATOM     22  C   UNL     1       2.990  -4.862  23.985  0.00  0.00    +0.238 C 
ATOM     23  O   UNL     1       2.161  -5.141  23.088  0.00  0.00    -0.273 OA
ATOM     24  N   UNL     1       2.718  -3.911  24.967  0.00  0.00    -0.288 N 
ATOM     25  C   UNL     1       3.564  -3.122  25.974  0.00  0.00    +0.162 C 
ATOM     26  C   UNL     1       2.429  -2.589  26.889  0.00  0.00    +0.033 C 
ATOM     27  C   UNL     1       1.339  -2.198  25.878  0.00  0.00    +0.021 C 
ATOM     28  C   UNL     1       5.040  -3.257  26.760  0.00  0.00    +0.234 C 
ATOM     29  O   UNL     1       5.083  -3.278  27.992  0.00  0.00    -0.274 OA
ATOM     30  C   UNL     1       1.356  -3.363  24.913  0.00  0.00    +0.109 C 
ATOM     31  N   UNL     1       6.257  -3.147  26.021  0.00  0.00    -0.304 N 
ATOM     32  H   UNL     1       6.244  -3.575  25.101  0.00  0.00    +0.149 HD
ENDROOT
BRANCH  21  33
ATOM     33  N   UNL     1       4.286  -6.955  23.748  0.00  0.00    -0.305 N 
ATOM     34  H   UNL     1       4.932  -7.388  23.105  0.00  0.00    +0.149 HD
ATOM     35  C   UNL     1       3.721  -7.766  24.698  0.00  0.00    +0.326 C 
ATOM     36  O   UNL     1       3.145  -7.389  25.710  0.00  0.00    -0.280 OA
ENDBRANCH  21  33
BRANCH   1  37
ATOM     37  C   UNL     1       8.563  -4.217  26.384  0.00  0.00    +0.033 C 
BRANCH  37  38
ATOM     38  C   UNL     1       7.857  -5.643  26.534  0.00  0.00    +0.039 C 
BRANCH  38  39
ATOM     39  C   UNL     1       7.165  -6.011  27.872  0.00  0.00    +0.196 C 
BRANCH  39  44
ATOM     40  N   UNL     1       5.265  -7.065  29.848  0.00  0.00    -0.289 N 
ATOM     41  H   UNL     1       6.123  -6.627  30.165  0.00  0.00    +0.255 HD
ATOM     42  H   UNL     1       4.571  -7.072  30.576  0.00  0.00    +0.255 HD
ATOM     43  C   UNL     1       4.829  -6.654  28.656  0.00  0.00    +0.376 C 
ATOM     44  N   UNL     1       5.766  -6.405  27.696  0.00  0.00    -0.276 N 
ATOM     45  H   UNL     1       5.294  -5.995  26.887  0.00  0.00    +0.258 HD
ATOM     46  N   UNL     1       3.579  -6.539  28.372  0.00  0.00    -0.130 NA
ATOM     47  H   UNL     1       3.032  -6.798  29.171  0.00  0.00    +0.306 HD
ENDBRANCH  39  44
ENDBRANCH  38  39
ENDBRANCH  37  38
ENDBRANCH   1  37
BRANCH   8  48
ATOM     48  C   UNL     1       8.558   3.148  22.949  0.00  0.00    +0.067 C 
BRANCH  48  49
ATOM     49  C   UNL     1       8.037   4.537  22.820  0.00  0.00    -0.045 A 
ATOM     50  C   UNL     1       6.778   4.818  22.330  0.00  0.00    +0.004 A 
ATOM     51  C   UNL     1       6.271   6.100  22.510  0.00  0.00    +0.000 A 
ATOM     52  C   UNL     1       7.049   7.103  23.096  0.00  0.00    +0.000 A 
ATOM     53  C   UNL     1       8.398   6.888  23.341  0.00  0.00    +0.000 A 
ATOM     54  C   UNL     1       8.903   5.610  23.155  0.00  0.00    +0.004 A 
ENDBRANCH  48  49
ENDBRANCH   8  48
BRANCH  13  55
ATOM     55  C   UNL     1       6.618   1.149  26.965  0.00  0.00    +0.061 C 
BRANCH  55  56
ATOM     56  C   UNL     1       5.371   0.941  27.838  0.00  0.00    -0.045 A 
ATOM     57  C   UNL     1       4.093   1.294  27.361  0.00  0.00    +0.007 A 
ATOM     58  C   UNL     1       2.942   0.908  28.066  0.00  0.00    +0.045 A 
ATOM     59  C   UNL     1       3.066   0.172  29.237  0.00  0.00    +0.117 A 
ATOM     60  C   UNL     1       4.312  -0.198  29.714  0.00  0.00    +0.045 A 
ATOM     61  C   UNL     1       5.453   0.214  29.039  0.00  0.00    +0.007 A 
BRANCH  59  62
ATOM     62  O   UNL     1       1.937  -0.182  29.913  0.00  0.00    -0.507 OA
ATOM     63  H   UNL     1       1.189   0.273  29.491  0.00  0.00    +0.292 HD
ENDBRANCH  59  62
ENDBRANCH  55  56
ENDBRANCH  13  55
TORSDOF 10
ENDMDL
MODEL 5
REMARK VINA RESULT:      -6.3      3.284      9.119
REMARK  Name = 
REMARK  10 active torsions:
REMARK  status: ('A' for Active; 'I' for Inactive)
REMARK    1  A    between atoms: N_4  and  C_5
REMARK    2  A    between atoms: C_5  and  C_6
REMARK    3  A    between atoms: C_6  and  C_7
REMARK    4  A    between atoms: C_7  and  C_8
REMARK    5  A    between atoms: C_21  and  N_56
REMARK    6  A    between atoms: C_29  and  C_31
REMARK    7  A    between atoms: C_31  and  C_32
REMARK    8  A    between atoms: C_35  and  O_36
REMARK    9  A    between atoms: C_42  and  C_44
REMARK   10  A    between atoms: C_44  and  C_45
REMARK                            x       y       z     vdW  Elec       q    Type
REMARK                         _______ _______ _______ _____ _____    ______ ____
ROOT
ATOM      1  C   UNL     1       5.925   3.004  28.325  0.00  0.00    +0.149 C 
ATOM      2  C   UNL     1       6.681   1.393  28.089  0.00  0.00    +0.237 C 
ATOM      3  O   UNL     1       7.903   1.341  28.286  0.00  0.00    -0.285 OA
ATOM      4  C   UNL     1       5.978  -0.132  27.634  0.00  0.00    +0.282 C 
ATOM      5  O   UNL     1       4.858  -0.449  28.004  0.00  0.00    -0.267 OA
ATOM      6  N   UNL     1       6.766  -0.969  26.731  0.00  0.00    -0.297 N 
ATOM      7  H   UNL     1       7.754  -0.799  26.968  0.00  0.00    +0.150 HD
ATOM      8  C   UNL     1       6.755  -2.206  25.612  0.00  0.00    +0.163 C 
ATOM      9  C   UNL     1       7.683  -1.327  24.717  0.00  0.00    +0.234 C 
ATOM     10  O   UNL     1       8.778  -1.660  24.371  0.00  0.00    -0.274 OA
ATOM     11  N   UNL     1       6.868  -0.253  24.207  0.00  0.00    -0.307 N 
ATOM     12  H   UNL     1       5.933  -0.483  24.370  0.00  0.00    +0.149 HD
ATOM     13  C   UNL     1       6.952   1.131  24.604  0.00  0.00    +0.101 C 
ATOM     14  C   UNL     1       5.551   1.355  25.239  0.00  0.00    +0.000 C 
ATOM     15  C   UNL     1       4.640   2.287  24.944  0.00  0.00    +0.065 C 
ATOM     16  C   UNL     1       3.283   2.367  25.619  0.00  0.00    +0.237 C 
ATOM     17  O   UNL     1       2.630   1.410  25.984  0.00  0.00    -0.271 OA
ATOM     18  N   UNL     1       2.988   3.677  25.857  0.00  0.00    -0.310 N 
ATOM     19  H   UNL     1       3.543   4.297  25.303  0.00  0.00    +0.149 HD
ATOM     20  C   UNL     1       1.859   4.400  26.471  0.00  0.00    +0.136 C 
ATOM     21  C   UNL     1       2.271   5.893  26.637  0.00  0.00    +0.176 C 
ATOM     22  C   UNL     1       2.533   6.421  25.225  0.00  0.00    +0.238 C 
ATOM     23  O   UNL     1       1.587   6.796  24.495  0.00  0.00    -0.273 OA
ATOM     24  N   UNL     1       3.853   6.415  24.776  0.00  0.00    -0.288 N 
ATOM     25  C   UNL     1       5.155   5.759  25.250  0.00  0.00    +0.162 C 
ATOM     26  C   UNL     1       6.167   6.571  24.396  0.00  0.00    +0.033 C 
ATOM     27  C   UNL     1       5.457   6.667  23.036  0.00  0.00    +0.021 C 
ATOM     28  C   UNL     1       5.819   5.152  26.665  0.00  0.00    +0.234 C 
ATOM     29  O   UNL     1       6.865   5.630  27.110  0.00  0.00    -0.274 OA
ATOM     30  C   UNL     1       4.032   6.984  23.433  0.00  0.00    +0.109 C 
ATOM     31  N   UNL     1       5.292   3.961  27.250  0.00  0.00    -0.304 N 
ATOM     32  H   UNL     1       4.283   3.864  27.198  0.00  0.00    +0.149 HD
ENDROOT
BRANCH  21  33
ATOM     33  N   UNL     1       1.307   6.729  27.350  0.00  0.00    -0.305 N 
ATOM     34  H   UNL     1       0.396   6.897  26.950  0.00  0.00    +0.149 HD
ATOM     35  C   UNL     1       1.416   6.850  28.712  0.00  0.00    +0.326 C 
ATOM     36  O   UNL     1       2.339   6.428  29.396  0.00  0.00    -0.280 OA
ENDBRANCH  21  33
BRANCH   1  37
ATOM     37  C   UNL     1       5.146   3.194  29.697  0.00  0.00    +0.033 C 
BRANCH  37  38
ATOM     38  C   UNL     1       3.556   3.050  29.756  0.00  0.00    +0.039 C 
BRANCH  38  39
ATOM     39  C   UNL     1       2.930   1.664  30.060  0.00  0.00    +0.196 C 
BRANCH  39  44
ATOM     40  N   UNL     1       2.177  -1.129  29.553  0.00  0.00    -0.289 N 
ATOM     41  H   UNL     1       2.429  -0.843  30.492  0.00  0.00    +0.255 HD
ATOM     42  H   UNL     1       1.632  -1.974  29.566  0.00  0.00    +0.255 HD
ATOM     43  C   UNL     1       1.694  -0.156  28.778  0.00  0.00    +0.376 C 
ATOM     44  N   UNL     1       2.257   1.081  28.897  0.00  0.00    -0.276 N 
ATOM     45  H   UNL     1       1.714   1.736  28.331  0.00  0.00    +0.258 HD
ATOM     46  N   UNL     1       0.772  -0.356  27.902  0.00  0.00    -0.130 NA
ATOM     47  H   UNL     1       0.502  -1.321  27.918  0.00  0.00    +0.306 HD
ENDBRANCH  39  44
ENDBRANCH  38  39
ENDBRANCH  37  38
ENDBRANCH   1  37
BRANCH   8  48
ATOM     48  C   UNL     1       5.990  -2.699  24.164  0.00  0.00    +0.067 C 
BRANCH  48  49
ATOM     49  C   UNL     1       6.016  -4.012  23.462  0.00  0.00    -0.045 A 
ATOM     50  C   UNL     1       4.970  -4.909  23.520  0.00  0.00    +0.004 A 
ATOM     51  C   UNL     1       4.956  -5.967  22.618  0.00  0.00    +0.000 A 
ATOM     52  C   UNL     1       6.018  -6.166  21.730  0.00  0.00    +0.000 A 
ATOM     53  C   UNL     1       7.183  -5.424  21.857  0.00  0.00    +0.000 A 
ATOM     54  C   UNL     1       7.197  -4.373  22.763  0.00  0.00    +0.004 A 
ENDBRANCH  48  49
ENDBRANCH   8  48
BRANCH  13  55
ATOM     55  C   UNL     1       8.324   1.457  25.247  0.00  0.00    +0.061 C 
BRANCH  55  56
ATOM     56  C   UNL     1       9.084   2.559  24.493  0.00  0.00    -0.045 A 
ATOM     57  C   UNL     1       8.703   3.910  24.619  0.00  0.00    +0.007 A 
ATOM     58  C   UNL     1       9.522   4.928  24.108  0.00  0.00    +0.045 A 
ATOM     59  C   UNL     1      10.717   4.601  23.479  0.00  0.00    +0.117 A 
ATOM     60  C   UNL     1      11.117   3.281  23.359  0.00  0.00    +0.045 A 
ATOM     61  C   UNL     1      10.290   2.270  23.830  0.00  0.00    +0.007 A 
BRANCH  59  62
ATOM     62  O   UNL     1      11.492   5.604  22.980  0.00  0.00    -0.507 OA
ATOM     63  H   UNL     1      11.138   5.840  22.107  0.00  0.00    +0.292 HD
ENDBRANCH  59  62
ENDBRANCH  55  56
ENDBRANCH  13  55
TORSDOF 10
ENDMDL
MODEL 6
REMARK VINA RESULT:      -6.3      2.690      4.303
REMARK  Name = 
REMARK  10 active torsions:
REMARK  status: ('A' for Active; 'I' for Inactive)
REMARK    1  A    between atoms: N_4  and  C_5
REMARK    2  A    between atoms: C_5  and  C_6
REMARK    3  A    between atoms: C_6  and  C_7
REMARK    4  A    between atoms: C_7  and  C_8
REMARK    5  A    between atoms: C_21  and  N_56
REMARK    6  A    between atoms: C_29  and  C_31
REMARK    7  A    between atoms: C_31  and  C_32
REMARK    8  A    between atoms: C_35  and  O_36
REMARK    9  A    between atoms: C_42  and  C_44
REMARK   10  A    between atoms: C_44  and  C_45
REMARK                            x       y       z     vdW  Elec       q    Type
REMARK                         _______ _______ _______ _____ _____    ______ ____
ROOT
ATOM      1  C   UNL     1       7.578  -0.062  27.298  0.00  0.00    +0.149 C 
ATOM      2  C   UNL     1       7.315   1.633  27.826  0.00  0.00    +0.237 C 
ATOM      3  O   UNL     1       7.166   1.798  29.045  0.00  0.00    -0.285 OA
ATOM      4  C   UNL     1       7.243   3.108  26.906  0.00  0.00    +0.282 C 
ATOM      5  O   UNL     1       7.945   3.275  25.920  0.00  0.00    -0.267 OA
ATOM      6  N   UNL     1       6.251   4.094  27.331  0.00  0.00    -0.297 N 
ATOM      7  H   UNL     1       6.182   4.010  28.355  0.00  0.00    +0.150 HD
ATOM      8  C   UNL     1       5.320   5.410  26.900  0.00  0.00    +0.163 C 
ATOM      9  C   UNL     1       4.111   4.709  27.595  0.00  0.00    +0.234 C 
ATOM     10  O   UNL     1       3.510   5.182  28.513  0.00  0.00    -0.274 OA
ATOM     11  N   UNL     1       3.738   3.600  26.752  0.00  0.00    -0.307 N 
ATOM     12  H   UNL     1       4.181   3.717  25.890  0.00  0.00    +0.149 HD
ATOM     13  C   UNL     1       3.944   2.205  27.055  0.00  0.00    +0.101 C 
ATOM     14  C   UNL     1       4.918   1.784  25.920  0.00  0.00    +0.000 C 
ATOM     15  C   UNL     1       4.792   0.788  25.037  0.00  0.00    +0.065 C 
ATOM     16  C   UNL     1       5.808   0.511  23.945  0.00  0.00    +0.237 C 
ATOM     17  O   UNL     1       6.443   1.361  23.353  0.00  0.00    -0.271 OA
ATOM     18  N   UNL     1       5.976  -0.838  23.834  0.00  0.00    -0.310 N 
ATOM     19  H   UNL     1       5.225  -1.349  24.250  0.00  0.00    +0.149 HD
ATOM     20  C   UNL     1       6.801  -1.722  22.990  0.00  0.00    +0.136 C 
ATOM     21  C   UNL     1       6.683  -3.172  23.548  0.00  0.00    +0.176 C 
ATOM     22  C   UNL     1       5.205  -3.554  23.430  0.00  0.00    +0.238 C 
ATOM     23  O   UNL     1       4.734  -3.966  22.345  0.00  0.00    -0.273 OA
ATOM     24  N   UNL     1       4.407  -3.373  24.558  0.00  0.00    -0.288 N 
ATOM     25  C   UNL     1       4.564  -2.623  25.886  0.00  0.00    +0.162 C 
ATOM     26  C   UNL     1       3.379  -3.252  26.667  0.00  0.00    +0.033 C 
ATOM     27  C   UNL     1       2.270  -3.312  25.604  0.00  0.00    +0.021 C 
ATOM     28  C   UNL     1       5.793  -2.067  26.883  0.00  0.00    +0.234 C 
ATOM     29  O   UNL     1       5.872  -2.467  28.047  0.00  0.00    -0.274 OA
ATOM     30  C   UNL     1       3.014  -3.808  24.384  0.00  0.00    +0.109 C 
ATOM     31  N   UNL     1       6.627  -0.990  26.458  0.00  0.00    -0.304 N 
ATOM     32  H   UNL     1       6.872  -0.995  25.472  0.00  0.00    +0.149 HD
ENDROOT
BRANCH  21  33
ATOM     33  N   UNL     1       7.543  -4.160  22.899  0.00  0.00    -0.305 N 
ATOM     34  H   UNL     1       7.980  -3.942  22.016  0.00  0.00    +0.149 HD
ATOM     35  C   UNL     1       8.152  -5.116  23.671  0.00  0.00    +0.326 C 
ATOM     36  O   UNL     1       7.940  -5.317  24.859  0.00  0.00    -0.280 OA
ENDBRANCH  21  33
BRANCH   1  37
ATOM     37  C   UNL     1       9.085  -0.444  26.967  0.00  0.00    +0.033 C 
BRANCH  37  38
ATOM     38  C   UNL     1       9.598  -0.492  25.455  0.00  0.00    +0.039 C 
BRANCH  38  39
ATOM     39  C   UNL     1      10.212   0.782  24.820  0.00  0.00    +0.196 C 
BRANCH  39  44
ATOM     40  N   UNL     1      10.707   3.103  23.090  0.00  0.00    -0.289 N 
ATOM     41  H   UNL     1      11.477   2.694  23.608  0.00  0.00    +0.255 HD
ATOM     42  H   UNL     1      11.042   3.640  22.308  0.00  0.00    +0.255 HD
ATOM     43  C   UNL     1       9.705   2.267  22.814  0.00  0.00    +0.376 C 
ATOM     44  N   UNL     1       9.366   1.355  23.770  0.00  0.00    -0.276 N 
ATOM     45  H   UNL     1       8.669   0.721  23.375  0.00  0.00    +0.258 HD
ATOM     46  N   UNL     1       9.027   2.328  21.722  0.00  0.00    -0.130 NA
ATOM     47  H   UNL     1       9.379   3.075  21.153  0.00  0.00    +0.306 HD
ENDBRANCH  39  44
ENDBRANCH  38  39
ENDBRANCH  37  38
ENDBRANCH   1  37
BRANCH   8  48
ATOM     48  C   UNL     1       4.208   5.935  25.713  0.00  0.00    +0.067 C 
BRANCH  48  49
ATOM     49  C   UNL     1       3.901   5.372  24.368  0.00  0.00    -0.045 A 
ATOM     50  C   UNL     1       4.848   4.735  23.594  0.00  0.00    +0.004 A 
ATOM     51  C   UNL     1       4.415   3.998  22.496  0.00  0.00    +0.000 A 
ATOM     52  C   UNL     1       3.065   3.973  22.136  0.00  0.00    +0.000 A 
ATOM     53  C   UNL     1       2.161   4.826  22.754  0.00  0.00    +0.000 A 
ATOM     54  C   UNL     1       2.596   5.564  23.845  0.00  0.00    +0.004 A 
ENDBRANCH  48  49
ENDBRANCH   8  48
BRANCH  13  55
ATOM     55  C   UNL     1       4.136   1.974  28.575  0.00  0.00    +0.061 C 
BRANCH  55  56
ATOM     56  C   UNL     1       3.379   0.739  29.088  0.00  0.00    -0.045 A 
ATOM     57  C   UNL     1       2.146   0.365  28.518  0.00  0.00    +0.007 A 
ATOM     58  C   UNL     1       1.565  -0.872  28.835  0.00  0.00    +0.045 A 
ATOM     59  C   UNL     1       2.212  -1.733  29.713  0.00  0.00    +0.117 A 
ATOM     60  C   UNL     1       3.432  -1.391  30.271  0.00  0.00    +0.045 A 
ATOM     61  C   UNL     1       3.991  -0.151  29.988  0.00  0.00    +0.007 A 
BRANCH  59  62
ATOM     62  O   UNL     1       1.626  -2.925  30.017  0.00  0.00    -0.507 OA
ATOM     63  H   UNL     1       1.073  -3.179  29.260  0.00  0.00    +0.292 HD
ENDBRANCH  59  62
ENDBRANCH  55  56
ENDBRANCH  13  55
TORSDOF 10
ENDMDL
MODEL 7
REMARK VINA RESULT:      -6.3      3.609      8.638
REMARK  Name = 
REMARK  10 active torsions:
REMARK  status: ('A' for Active; 'I' for Inactive)
REMARK    1  A    between atoms: N_4  and  C_5
REMARK    2  A    between atoms: C_5  and  C_6
REMARK    3  A    between atoms: C_6  and  C_7
REMARK    4  A    between atoms: C_7  and  C_8
REMARK    5  A    between atoms: C_21  and  N_56
REMARK    6  A    between atoms: C_29  and  C_31
REMARK    7  A    between atoms: C_31  and  C_32
REMARK    8  A    between atoms: C_35  and  O_36
REMARK    9  A    between atoms: C_42  and  C_44
REMARK   10  A    between atoms: C_44  and  C_45
REMARK                            x       y       z     vdW  Elec       q    Type
REMARK                         _______ _______ _______ _____ _____    ______ ____
ROOT
ATOM      1  C   UNL     1       7.446   0.771  27.487  0.00  0.00    +0.149 C 
ATOM      2  C   UNL     1       8.525  -0.369  26.617  0.00  0.00    +0.237 C 
ATOM      3  O   UNL     1       9.546   0.130  26.122  0.00  0.00    -0.285 OA
ATOM      4  C   UNL     1       8.386  -2.084  26.354  0.00  0.00    +0.282 C 
ATOM      5  O   UNL     1       7.903  -2.818  27.202  0.00  0.00    -0.267 OA
ATOM      6  N   UNL     1       8.805  -2.578  25.043  0.00  0.00    -0.297 N 
ATOM      7  H   UNL     1       9.586  -1.977  24.745  0.00  0.00    +0.150 HD
ATOM      8  C   UNL     1       8.687  -3.797  23.910  0.00  0.00    +0.163 C 
ATOM      9  C   UNL     1       8.512  -2.691  22.824  0.00  0.00    +0.234 C 
ATOM     10  O   UNL     1       9.256  -2.549  21.899  0.00  0.00    -0.274 OA
ATOM     11  N   UNL     1       7.199  -2.128  23.016  0.00  0.00    -0.307 N 
ATOM     12  H   UNL     1       6.702  -2.723  23.609  0.00  0.00    +0.149 HD
ATOM     13  C   UNL     1       6.914  -0.814  23.536  0.00  0.00    +0.101 C 
ATOM     14  C   UNL     1       6.150  -1.158  24.845  0.00  0.00    +0.000 C 
ATOM     15  C   UNL     1       4.944  -0.743  25.243  0.00  0.00    +0.065 C 
ATOM     16  C   UNL     1       4.294  -1.195  26.537  0.00  0.00    +0.237 C 
ATOM     17  O   UNL     1       4.409  -2.302  27.025  0.00  0.00    -0.271 OA
ATOM     18  N   UNL     1       3.675  -0.125  27.113  0.00  0.00    -0.310 N 
ATOM     19  H   UNL     1       3.521   0.619  26.464  0.00  0.00    +0.149 HD
ATOM     20  C   UNL     1       2.894   0.092  28.345  0.00  0.00    +0.136 C 
ATOM     21  C   UNL     1       2.677   1.625  28.518  0.00  0.00    +0.176 C 
ATOM     22  C   UNL     1       1.875   2.080  27.296  0.00  0.00    +0.238 C 
ATOM     23  O   UNL     1       0.631   1.940  27.256  0.00  0.00    -0.273 OA
ATOM     24  N   UNL     1       2.592   2.604  26.221  0.00  0.00    -0.288 N 
ATOM     25  C   UNL     1       4.069   2.621  25.811  0.00  0.00    +0.162 C 
ATOM     26  C   UNL     1       4.006   3.707  24.703  0.00  0.00    +0.033 C 
ATOM     27  C   UNL     1       2.702   3.360  23.967  0.00  0.00    +0.021 C 
ATOM     28  C   UNL     1       5.580   2.497  26.530  0.00  0.00    +0.234 C 
ATOM     29  O   UNL     1       6.391   3.419  26.424  0.00  0.00    -0.274 OA
ATOM     30  C   UNL     1       1.752   3.066  25.107  0.00  0.00    +0.109 C 
ATOM     31  N   UNL     1       6.004   1.255  27.093  0.00  0.00    -0.304 N 
ATOM     32  H   UNL     1       5.279   0.727  27.570  0.00  0.00    +0.149 HD
ENDROOT
BRANCH  21  33
ATOM     33  N   UNL     1       2.025   2.025  29.764  0.00  0.00    -0.305 N 
ATOM     34  H   UNL     1       1.586   1.327  30.346  0.00  0.00    +0.149 HD
ATOM     35  C   UNL     1       2.429   3.181  30.380  0.00  0.00    +0.326 C 
ATOM     36  O   UNL     1       3.205   4.005  29.917  0.00  0.00    -0.280 OA
ENDBRANCH  21  33
BRANCH   1  37
ATOM     37  C   UNL     1       7.556   0.733  29.072  0.00  0.00    +0.033 C 
BRANCH  37  38
ATOM     38  C   UNL     1       7.780   2.079  29.904  0.00  0.00    +0.039 C 
BRANCH  38  39
ATOM     39  C   UNL     1       6.683   3.175  29.885  0.00  0.00    +0.196 C 
BRANCH  39  44
ATOM     40  N   UNL     1       5.264   5.383  28.567  0.00  0.00    -0.289 N 
ATOM     41  H   UNL     1       4.732   4.641  29.009  0.00  0.00    +0.255 HD
ATOM     42  H   UNL     1       4.708   6.214  28.461  0.00  0.00    +0.255 HD
ATOM     43  C   UNL     1       6.484   5.580  29.071  0.00  0.00    +0.376 C 
ATOM     44  N   UNL     1       7.193   4.478  29.450  0.00  0.00    -0.276 N 
ATOM     45  H   UNL     1       8.048   4.791  29.915  0.00  0.00    +0.258 HD
ATOM     46  N   UNL     1       7.023   6.746  29.159  0.00  0.00    -0.130 NA
ATOM     47  H   UNL     1       6.387   7.433  28.801  0.00  0.00    +0.306 HD
ENDBRANCH  39  44
ENDBRANCH  38  39
ENDBRANCH  37  38
ENDBRANCH   1  37
BRANCH   8  48
ATOM     48  C   UNL     1       7.535  -4.705  23.033  0.00  0.00    +0.067 C 
BRANCH  48  49
ATOM     49  C   UNL     1       6.203  -5.227  23.449  0.00  0.00    -0.045 A 
ATOM     50  C   UNL     1       5.117  -5.261  22.600  0.00  0.00    +0.004 A 
ATOM     51  C   UNL     1       4.011  -6.017  22.973  0.00  0.00    +0.000 A 
ATOM     52  C   UNL     1       3.966  -6.657  24.215  0.00  0.00    +0.000 A 
ATOM     53  C   UNL     1       4.941  -6.402  25.169  0.00  0.00    +0.000 A 
ATOM     54  C   UNL     1       6.040  -5.642  24.797  0.00  0.00    +0.004 A 
ENDBRANCH  48  49
ENDBRANCH   8  48
BRANCH  13  55
ATOM     55  C   UNL     1       8.134   0.132  23.395  0.00  0.00    +0.061 C 
BRANCH  55  56
ATOM     56  C   UNL     1       7.726   1.594  23.157  0.00  0.00    -0.045 A 
ATOM     57  C   UNL     1       8.523   2.650  23.641  0.00  0.00    +0.007 A 
ATOM     58  C   UNL     1       8.269   3.971  23.241  0.00  0.00    +0.045 A 
ATOM     59  C   UNL     1       7.228   4.237  22.361  0.00  0.00    +0.117 A 
ATOM     60  C   UNL     1       6.443   3.211  21.861  0.00  0.00    +0.045 A 
ATOM     61  C   UNL     1       6.669   1.908  22.284  0.00  0.00    +0.007 A 
BRANCH  59  62
ATOM     62  O   UNL     1       6.990   5.527  21.994  0.00  0.00    -0.507 OA
ATOM     63  H   UNL     1       6.943   6.057  22.807  0.00  0.00    +0.292 HD
ENDBRANCH  59  62
ENDBRANCH  55  56
ENDBRANCH  13  55
TORSDOF 10
ENDMDL
MODEL 8
REMARK VINA RESULT:      -6.0      2.647      7.814
REMARK  Name = 
REMARK  10 active torsions:
REMARK  status: ('A' for Active; 'I' for Inactive)
REMARK    1  A    between atoms: N_4  and  C_5
REMARK    2  A    between atoms: C_5  and  C_6
REMARK    3  A    between atoms: C_6  and  C_7
REMARK    4  A    between atoms: C_7  and  C_8
REMARK    5  A    between atoms: C_21  and  N_56
REMARK    6  A    between atoms: C_29  and  C_31
REMARK    7  A    between atoms: C_31  and  C_32
REMARK    8  A    between atoms: C_35  and  O_36
REMARK    9  A    between atoms: C_42  and  C_44
REMARK   10  A    between atoms: C_44  and  C_45
REMARK                            x       y       z     vdW  Elec       q    Type
REMARK                         _______ _______ _______ _____ _____    ______ ____
ROOT
ATOM      1  C   UNL     1       4.344   2.631  23.911  0.00  0.00    +0.149 C 
ATOM      2  C   UNL     1       5.718   2.294  22.806  0.00  0.00    +0.237 C 
ATOM      3  O   UNL     1       5.719   1.174  22.277  0.00  0.00    -0.285 OA
ATOM      4  C   UNL     1       7.065   3.291  22.337  0.00  0.00    +0.282 C 
ATOM      5  O   UNL     1       6.942   4.498  22.199  0.00  0.00    -0.267 OA
ATOM      6  N   UNL     1       8.355   2.618  22.195  0.00  0.00    -0.297 N 
ATOM      7  H   UNL     1       8.150   1.670  21.851  0.00  0.00    +0.150 HD
ATOM      8  C   UNL     1      10.016   2.778  22.177  0.00  0.00    +0.163 C 
ATOM      9  C   UNL     1      10.088   1.526  23.105  0.00  0.00    +0.234 C 
ATOM     10  O   UNL     1      10.657   0.516  22.811  0.00  0.00    -0.274 OA
ATOM     11  N   UNL     1       9.612   1.944  24.400  0.00  0.00    -0.307 N 
ATOM     12  H   UNL     1       9.585   2.919  24.408  0.00  0.00    +0.149 HD
ATOM     13  C   UNL     1       8.355   1.564  24.998  0.00  0.00    +0.101 C 
ATOM     14  C   UNL     1       7.639   2.939  25.109  0.00  0.00    +0.000 C 
ATOM     15  C   UNL     1       7.105   3.518  26.188  0.00  0.00    +0.065 C 
ATOM     16  C   UNL     1       6.467   4.894  26.163  0.00  0.00    +0.237 C 
ATOM     17  O   UNL     1       6.842   5.823  25.476  0.00  0.00    -0.271 OA
ATOM     18  N   UNL     1       5.343   4.871  26.936  0.00  0.00    -0.310 N 
ATOM     19  H   UNL     1       5.333   4.095  27.566  0.00  0.00    +0.149 HD
ATOM     20  C   UNL     1       4.308   5.853  27.307  0.00  0.00    +0.136 C 
ATOM     21  C   UNL     1       3.162   5.097  28.041  0.00  0.00    +0.176 C 
ATOM     22  C   UNL     1       3.790   4.490  29.298  0.00  0.00    +0.238 C 
ATOM     23  O   UNL     1       3.954   5.180  30.330  0.00  0.00    -0.273 OA
ATOM     24  N   UNL     1       4.215   3.165  29.224  0.00  0.00    -0.288 N 
ATOM     25  C   UNL     1       4.460   2.169  28.084  0.00  0.00    +0.162 C 
ATOM     26  C   UNL     1       4.558   0.861  28.914  0.00  0.00    +0.033 C 
ATOM     27  C   UNL     1       5.379   1.301  30.137  0.00  0.00    +0.021 C 
ATOM     28  C   UNL     1       3.960   1.914  26.503  0.00  0.00    +0.234 C 
ATOM     29  O   UNL     1       3.396   0.861  26.197  0.00  0.00    -0.274 OA
ATOM     30  C   UNL     1       4.760   2.637  30.482  0.00  0.00    +0.109 C 
ATOM     31  N   UNL     1       4.359   2.817  25.472  0.00  0.00    -0.304 N 
ATOM     32  H   UNL     1       4.382   3.796  25.740  0.00  0.00    +0.149 HD
ENDROOT
BRANCH  21  33
ATOM     33  N   UNL     1       1.990   5.908  28.368  0.00  0.00    -0.305 N 
ATOM     34  H   UNL     1       2.104   6.885  28.595  0.00  0.00    +0.149 HD
ATOM     35  C   UNL     1       0.764   5.523  27.889  0.00  0.00    +0.326 C 
ATOM     36  O   UNL     1       0.520   4.472  27.313  0.00  0.00    -0.280 OA
ENDBRANCH  21  33
BRANCH   1  37
ATOM     37  C   UNL     1       3.189   3.536  23.301  0.00  0.00    +0.033 C 
BRANCH  37  38
ATOM     38  C   UNL     1       2.589   4.760  24.135  0.00  0.00    +0.039 C 
BRANCH  38  39
ATOM     39  C   UNL     1       3.310   6.133  24.093  0.00  0.00    +0.196 C 
BRANCH  39  44
ATOM     40  N   UNL     1       3.537   7.102  21.331  0.00  0.00    -0.289 N 
ATOM     41  H   UNL     1       2.737   7.374  21.890  0.00  0.00    +0.255 HD
ATOM     42  H   UNL     1       3.677   7.739  20.565  0.00  0.00    +0.255 HD
ATOM     43  C   UNL     1       4.636   6.803  22.026  0.00  0.00    +0.376 C 
ATOM     44  N   UNL     1       4.473   6.134  23.203  0.00  0.00    -0.276 N 
ATOM     45  H   UNL     1       5.381   6.078  23.669  0.00  0.00    +0.258 HD
ATOM     46  N   UNL     1       5.823   7.072  21.604  0.00  0.00    -0.130 NA
ATOM     47  H   UNL     1       5.763   7.524  20.712  0.00  0.00    +0.306 HD
ENDBRANCH  39  44
ENDBRANCH  38  39
ENDBRANCH  37  38
ENDBRANCH   1  37
BRANCH   8  48
ATOM     48  C   UNL     1      11.312   3.411  23.094  0.00  0.00    +0.067 C 
BRANCH  48  49
ATOM     49  C   UNL     1      11.498   4.765  23.688  0.00  0.00    -0.045 A 
ATOM     50  C   UNL     1      10.485   5.440  24.335  0.00  0.00    +0.004 A 
ATOM     51  C   UNL     1      10.817   6.554  25.098  0.00  0.00    +0.000 A 
ATOM     52  C   UNL     1      12.131   7.029  25.141  0.00  0.00    +0.000 A 
ATOM     53  C   UNL     1      13.089   6.510  24.282  0.00  0.00    +0.000 A 
ATOM     54  C   UNL     1      12.755   5.403  23.517  0.00  0.00    +0.004 A 
ENDBRANCH  48  49
ENDBRANCH   8  48
BRANCH  13  55
ATOM     55  C   UNL     1       7.788   0.271  24.359  0.00  0.00    +0.061 C 
BRANCH  55  56
ATOM     56  C   UNL     1       7.753  -0.910  25.342  0.00  0.00    -0.045 A 
ATOM     57  C   UNL     1       6.590  -1.192  26.085  0.00  0.00    +0.007 A 
ATOM     58  C   UNL     1       6.487  -2.386  26.814  0.00  0.00    +0.045 A 
ATOM     59  C   UNL     1       7.536  -3.296  26.798  0.00  0.00    +0.117 A 
ATOM     60  C   UNL     1       8.681  -3.045  26.061  0.00  0.00    +0.045 A 
ATOM     61  C   UNL     1       8.801  -1.847  25.369  0.00  0.00    +0.007 A 
BRANCH  59  62
ATOM     62  O   UNL     1       7.421  -4.445  27.521  0.00  0.00    -0.507 OA
ATOM     63  H   UNL     1       8.142  -4.453  28.172  0.00  0.00    +0.292 HD
ENDBRANCH  59  62
ENDBRANCH  55  56
ENDBRANCH  13  55
TORSDOF 10
ENDMDL
MODEL 9
REMARK VINA RESULT:      -6.0      3.308      8.356
REMARK  Name = 
REMARK  10 active torsions:
REMARK  status: ('A' for Active; 'I' for Inactive)
REMARK    1  A    between atoms: N_4  and  C_5
REMARK    2  A    between atoms: C_5  and  C_6
REMARK    3  A    between atoms: C_6  and  C_7
REMARK    4  A    between atoms: C_7  and  C_8
REMARK    5  A    between atoms: C_21  and  N_56
REMARK    6  A    between atoms: C_29  and  C_31
REMARK    7  A    between atoms: C_31  and  C_32
REMARK    8  A    between atoms: C_35  and  O_36
REMARK    9  A    between atoms: C_42  and  C_44
REMARK   10  A    between atoms: C_44  and  C_45
REMARK                            x       y       z     vdW  Elec       q    Type
REMARK                         _______ _______ _______ _____ _____    ______ ____
ROOT
ATOM      1  C   UNL     1       6.746   2.129  27.858  0.00  0.00    +0.149 C 
ATOM      2  C   UNL     1       6.908   0.347  27.708  0.00  0.00    +0.237 C 
ATOM      3  O   UNL     1       8.063  -0.095  27.797  0.00  0.00    -0.285 OA
ATOM      4  C   UNL     1       5.703  -0.883  27.464  0.00  0.00    +0.282 C 
ATOM      5  O   UNL     1       4.592  -0.789  27.962  0.00  0.00    -0.267 OA
ATOM      6  N   UNL     1       6.067  -1.986  26.575  0.00  0.00    -0.297 N 
ATOM      7  H   UNL     1       7.077  -2.139  26.705  0.00  0.00    +0.150 HD
ATOM      8  C   UNL     1       5.526  -3.214  25.583  0.00  0.00    +0.163 C 
ATOM      9  C   UNL     1       6.578  -2.746  24.529  0.00  0.00    +0.234 C 
ATOM     10  O   UNL     1       7.458  -3.442  24.118  0.00  0.00    -0.274 OA
ATOM     11  N   UNL     1       6.099  -1.494  23.996  0.00  0.00    -0.307 N 
ATOM     12  H   UNL     1       5.166  -1.392  24.265  0.00  0.00    +0.149 HD
ATOM     13  C   UNL     1       6.671  -0.196  24.253  0.00  0.00    +0.101 C 
ATOM     14  C   UNL     1       5.502   0.517  24.988  0.00  0.00    +0.000 C 
ATOM     15  C   UNL     1       4.913   1.679  24.691  0.00  0.00    +0.065 C 
ATOM     16  C   UNL     1       3.744   2.244  25.476  0.00  0.00    +0.237 C 
ATOM     17  O   UNL     1       2.864   1.580  25.987  0.00  0.00    -0.271 OA
ATOM     18  N   UNL     1       3.918   3.589  25.615  0.00  0.00    -0.310 N 
ATOM     19  H   UNL     1       4.574   3.957  24.957  0.00  0.00    +0.149 HD
ATOM     20  C   UNL     1       3.162   4.680  26.258  0.00  0.00    +0.136 C 
ATOM     21  C   UNL     1       4.051   5.959  26.245  0.00  0.00    +0.176 C 
ATOM     22  C   UNL     1       4.303   6.287  24.772  0.00  0.00    +0.238 C 
ATOM     23  O   UNL     1       3.451   6.910  24.098  0.00  0.00    -0.273 OA
ATOM     24  N   UNL     1       5.488   5.818  24.206  0.00  0.00    -0.288 N 
ATOM     25  C   UNL     1       6.554   4.796  24.620  0.00  0.00    +0.162 C 
ATOM     26  C   UNL     1       7.667   5.175  23.605  0.00  0.00    +0.033 C 
ATOM     27  C   UNL     1       6.873   5.421  22.312  0.00  0.00    +0.021 C 
ATOM     28  C   UNL     1       7.147   4.088  26.020  0.00  0.00    +0.234 C 
ATOM     29  O   UNL     1       8.336   4.218  26.321  0.00  0.00    -0.274 OA
ATOM     30  C   UNL     1       5.683   6.214  22.805  0.00  0.00    +0.109 C 
ATOM     31  N   UNL     1       6.336   3.176  26.760  0.00  0.00    -0.304 N 
ATOM     32  H   UNL     1       5.351   3.415  26.809  0.00  0.00    +0.149 HD
ENDROOT
BRANCH  21  33
ATOM     33  N   UNL     1       3.499   7.108  26.961  0.00  0.00    -0.305 N 
ATOM     34  H   UNL     1       3.397   7.993  26.486  0.00  0.00    +0.149 HD
ATOM     35  C   UNL     1       2.679   6.885  28.037  0.00  0.00    +0.326 C 
ATOM     36  O   UNL     1       2.462   5.799  28.558  0.00  0.00    -0.280 OA
ENDBRANCH  21  33
BRANCH   1  37
ATOM     37  C   UNL     1       6.237   2.647  29.271  0.00  0.00    +0.033 C 
BRANCH  37  38
ATOM     38  C   UNL     1       5.169   3.832  29.366  0.00  0.00    +0.039 C 
BRANCH  38  39
ATOM     39  C   UNL     1       5.622   5.223  29.878  0.00  0.00    +0.196 C 
BRANCH  39  44
ATOM     40  N   UNL     1       7.059   6.892  27.936  0.00  0.00    -0.289 N 
ATOM     41  H   UNL     1       6.061   7.020  28.062  0.00  0.00    +0.255 HD
ATOM     42  H   UNL     1       7.480   7.709  27.525  0.00  0.00    +0.255 HD
ATOM     43  C   UNL     1       7.702   6.397  28.995  0.00  0.00    +0.376 C 
ATOM     44  N   UNL     1       7.063   5.440  29.727  0.00  0.00    -0.276 N 
ATOM     45  H   UNL     1       7.625   5.243  30.558  0.00  0.00    +0.258 HD
ATOM     46  N   UNL     1       8.901   6.745  29.308  0.00  0.00    -0.130 NA
ATOM     47  H   UNL     1       9.234   7.420  28.647  0.00  0.00    +0.306 HD
ENDBRANCH  39  44
ENDBRANCH  38  39
ENDBRANCH  37  38
ENDBRANCH   1  37
BRANCH   8  48
ATOM     48  C   UNL     1       4.480  -3.509  24.265  0.00  0.00    +0.067 C 
BRANCH  48  49
ATOM     49  C   UNL     1       3.276  -4.383  24.170  0.00  0.00    -0.045 A 
ATOM     50  C   UNL     1       2.115  -4.129  24.867  0.00  0.00    +0.004 A 
ATOM     51  C   UNL     1       0.963  -4.819  24.505  0.00  0.00    +0.000 A 
ATOM     52  C   UNL     1       1.000  -5.807  23.517  0.00  0.00    +0.000 A 
ATOM     53  C   UNL     1       2.216  -6.243  23.010  0.00  0.00    +0.000 A 
ATOM     54  C   UNL     1       3.364  -5.557  23.377  0.00  0.00    +0.004 A 
ENDBRANCH  48  49
ENDBRANCH   8  48
BRANCH  13  55
ATOM     55  C   UNL     1       8.140  -0.305  24.734  0.00  0.00    +0.061 C 
BRANCH  55  56
ATOM     56  C   UNL     1       9.068   0.706  24.043  0.00  0.00    -0.045 A 
ATOM     57  C   UNL     1       8.589   1.525  23.001  0.00  0.00    +0.007 A 
ATOM     58  C   UNL     1       9.368   2.588  22.520  0.00  0.00    +0.045 A 
ATOM     59  C   UNL     1      10.615   2.837  23.079  0.00  0.00    +0.117 A 
ATOM     60  C   UNL     1      11.097   2.054  24.114  0.00  0.00    +0.045 A 
ATOM     61  C   UNL     1      10.345   0.978  24.566  0.00  0.00    +0.007 A 
BRANCH  59  62
ATOM     62  O   UNL     1      11.361   3.868  22.590  0.00  0.00    -0.507 OA
ATOM     63  H   UNL     1      12.228   3.832  23.025  0.00  0.00    +0.292 HD
ENDBRANCH  59  62
ENDBRANCH  55  56
ENDBRANCH  13  55
TORSDOF 10
ENDMDL
