MODEL 1
REMARK VINA RESULT:      -7.5      0.000      0.000
REMARK  Name = 
REMARK  7 active torsions:
REMARK  status: ('A' for Active; 'I' for Inactive)
REMARK    1  A    between atoms: C_1  and  O_2
REMARK    2  A    between atoms: O_2  and  C_3
REMARK    3  A    between atoms: C_5  and  C_6
REMARK    4  A    between atoms: C_6  and  C_7
REMARK    5  A    between atoms: C_8  and  C_9
REMARK    6  A    between atoms: C_20  and  O_21
REMARK    7  A    between atoms: O_21  and  C_22
REMARK                            x       y       z     vdW  Elec       q    Type
REMARK                         _______ _______ _______ _____ _____    ______ ____
ROOT
ATOM      1  C   UNL     1       9.232   0.164  23.142  0.00  0.00    -0.021 A 
ATOM      2  C   UNL     1      10.023  -0.705  22.408  0.00  0.00    +0.117 A 
ATOM      3  N   UNL     1      10.346  -1.959  22.794  0.00  0.00    -0.235 NA
ATOM      4  C   UNL     1       9.817  -2.455  23.913  0.00  0.00    +0.167 A 
ATOM      5  N   UNL     1      10.087  -3.729  24.166  0.00  0.00    -0.195 NA
ATOM      6  C   UNL     1       9.514  -4.290  25.223  0.00  0.00    +0.216 A 
ATOM      7  N   UNL     1       8.703  -3.670  26.066  0.00  0.00    -0.199 NA
ATOM      8  C   UNL     1       8.442  -2.384  25.806  0.00  0.00    +0.131 A 
ATOM      9  N   UNL     1       7.477  -1.828  26.658  0.00  0.00    -0.342 N 
ATOM     10  H   UNL     1       6.679  -1.505  26.123  0.00  0.00    +0.144 HD
ATOM     11  H   UNL     1       7.198  -2.573  27.295  0.00  0.00    +0.144 HD
ATOM     12  N   UNL     1       9.782  -5.622  25.473  0.00  0.00    -0.327 N 
ATOM     13  H   UNL     1       9.620  -5.830  26.447  0.00  0.00    +0.145 HD
ATOM     14  H   UNL     1      10.680  -5.876  25.078  0.00  0.00    +0.145 HD
ATOM     15  C   UNL     1       9.011  -1.670  24.739  0.00  0.00    +0.062 A 
ATOM     16  C   UNL     1       8.818  -0.283  24.400  0.00  0.00    -0.032 A 
ATOM     17  C   UNL     1       8.218   0.681  25.393  0.00  0.00    +0.045 C 
ENDROOT
BRANCH   1  18
ATOM     18  C   UNL     1       8.803   1.482  22.533  0.00  0.00    +0.075 C 
BRANCH  18  23
ATOM     19  C   UNL     1      11.283   4.227  23.494  0.00  0.00    +0.121 A 
ATOM     20  C   UNL     1      10.423   5.261  23.851  0.00  0.00    +0.049 A 
ATOM     21  C   UNL     1       9.046   5.053  23.841  0.00  0.00    +0.049 A 
ATOM     22  C   UNL     1       8.520   3.819  23.450  0.00  0.00    +0.124 A 
ATOM     23  C   UNL     1       9.391   2.766  23.079  0.00  0.00    +0.002 A 
ATOM     24  C   UNL     1      10.776   2.973  23.168  0.00  0.00    +0.053 A 
BRANCH  19  26
ATOM     25  C   UNL     1      13.043   5.433  22.566  0.00  0.00    +0.277 C 
ATOM     26  O   UNL     1      12.642   4.372  23.431  0.00  0.00    -0.495 OA
ENDBRANCH  19  26
BRANCH  22  27
ATOM     27  O   UNL     1       7.177   3.542  23.385  0.00  0.00    -0.495 OA
ATOM     28  C   UNL     1       6.351   4.491  22.716  0.00  0.00    +0.277 C 
ENDBRANCH  22  27
ENDBRANCH  18  23
ENDBRANCH   1  18
TORSDOF 4
ENDMDL
MODEL 2
REMARK VINA RESULT:      -7.3      4.519      8.419
REMARK  Name = 
REMARK  7 active torsions:
REMARK  status: ('A' for Active; 'I' for Inactive)
REMARK    1  A    between atoms: C_1  and  O_2
REMARK    2  A    between atoms: O_2  and  C_3
REMARK    3  A    between atoms: C_5  and  C_6
REMARK    4  A    between atoms: C_6  and  C_7
REMARK    5  A    between atoms: C_8  and  C_9
REMARK    6  A    between atoms: C_20  and  O_21
REMARK    7  A    between atoms: O_21  and  C_22
REMARK                            x       y       z     vdW  Elec       q    Type
REMARK                         _______ _______ _______ _____ _____    ______ ____
ROOT
ATOM      1  C   UNL     1       8.071  -3.346  23.845  0.00  0.00    -0.021 A 
ATOM      2  C   UNL     1       8.039  -3.148  22.474  0.00  0.00    +0.117 A 
ATOM      3  N   UNL     1       8.357  -1.987  21.860  0.00  0.00    -0.235 NA
ATOM      4  C   UNL     1       8.816  -0.968  22.586  0.00  0.00    +0.167 A 
ATOM      5  N   UNL     1       9.216   0.097  21.903  0.00  0.00    -0.195 NA
ATOM      6  C   UNL     1       9.759   1.103  22.576  0.00  0.00    +0.216 A 
ATOM      7  N   UNL     1       9.916   1.139  23.890  0.00  0.00    -0.199 NA
ATOM      8  C   UNL     1       9.504   0.065  24.572  0.00  0.00    +0.131 A 
ATOM      9  N   UNL     1       9.819   0.115  25.937  0.00  0.00    -0.342 N 
ATOM     10  H   UNL     1      10.417  -0.665  26.189  0.00  0.00    +0.144 HD
ATOM     11  H   UNL     1      10.308   0.997  26.083  0.00  0.00    +0.144 HD
ATOM     12  N   UNL     1      10.192   2.202  21.860  0.00  0.00    -0.327 N 
ATOM     13  H   UNL     1      10.228   3.012  22.459  0.00  0.00    +0.145 HD
ATOM     14  H   UNL     1       9.674   2.277  20.993  0.00  0.00    +0.145 HD
ATOM     15  C   UNL     1       8.885  -1.048  23.978  0.00  0.00    +0.062 A 
ATOM     16  C   UNL     1       8.380  -2.230  24.628  0.00  0.00    -0.032 A 
ATOM     17  C   UNL     1       8.150  -2.257  26.118  0.00  0.00    +0.045 C 
ENDROOT
BRANCH   1  18
ATOM     18  C   UNL     1       7.853  -4.736  24.406  0.00  0.00    +0.075 C 
BRANCH  18  23
ATOM     19  C   UNL     1       4.225  -5.732  23.732  0.00  0.00    +0.121 A 
ATOM     20  C   UNL     1       3.903  -6.406  24.905  0.00  0.00    +0.049 A 
ATOM     21  C   UNL     1       4.835  -6.486  25.938  0.00  0.00    +0.049 A 
ATOM     22  C   UNL     1       6.102  -5.914  25.793  0.00  0.00    +0.124 A 
ATOM     23  C   UNL     1       6.436  -5.232  24.598  0.00  0.00    +0.002 A 
ATOM     24  C   UNL     1       5.458  -5.100  23.601  0.00  0.00    +0.053 A 
BRANCH  19  26
ATOM     25  C   UNL     1       2.039  -6.005  22.985  0.00  0.00    +0.277 C 
ATOM     26  O   UNL     1       3.383  -5.656  22.657  0.00  0.00    -0.495 OA
ENDBRANCH  19  26
BRANCH  22  27
ATOM     27  O   UNL     1       7.085  -5.973  26.749  0.00  0.00    -0.495 OA
ATOM     28  C   UNL     1       6.712  -5.642  28.084  0.00  0.00    +0.277 C 
ENDBRANCH  22  27
ENDBRANCH  18  23
ENDBRANCH   1  18
TORSDOF 4
ENDMDL
MODEL 3
REMARK VINA RESULT:      -7.2      3.856      7.726
REMARK  Name = 
REMARK  7 active torsions:
REMARK  status: ('A' for Active; 'I' for Inactive)
REMARK    1  A    between atoms: C_1  and  O_2
REMARK    2  A    between atoms: O_2  and  C_3
REMARK    3  A    between atoms: C_5  and  C_6
REMARK    4  A    between atoms: C_6  and  C_7
REMARK    5  A    between atoms: C_8  and  C_9
REMARK    6  A    between atoms: C_20  and  O_21
REMARK    7  A    between atoms: O_21  and  C_22
REMARK                            x       y       z     vdW  Elec       q    Type
REMARK                         _______ _______ _______ _____ _____    ______ ____
ROOT
ATOM      1  C   UNL     1       9.396  -1.559  24.323  0.00  0.00    -0.021 A 
ATOM      2  C   UNL     1       9.054  -1.035  25.559  0.00  0.00    +0.117 A 
ATOM      3  N   UNL     1       8.718   0.255  25.778  0.00  0.00    -0.235 NA
ATOM      4  C   UNL     1       8.619   1.090  24.744  0.00  0.00    +0.167 A 
ATOM      5  N   UNL     1       8.174   2.308  25.021  0.00  0.00    -0.195 NA
ATOM      6  C   UNL     1       7.978   3.147  24.013  0.00  0.00    +0.216 A 
ATOM      7  N   UNL     1       8.215   2.871  22.739  0.00  0.00    -0.199 NA
ATOM      8  C   UNL     1       8.670   1.643  22.469  0.00  0.00    +0.131 A 
ATOM      9  N   UNL     1       8.773   1.375  21.096  0.00  0.00    -0.342 N 
ATOM     10  H   UNL     1       8.183   0.590  20.845  0.00  0.00    +0.144 HD
ATOM     11  H   UNL     1       8.461   2.220  20.619  0.00  0.00    +0.144 HD
ATOM     12  N   UNL     1       7.495   4.408  24.303  0.00  0.00    -0.327 N 
ATOM     13  H   UNL     1       7.735   5.049  23.563  0.00  0.00    +0.145 HD
ATOM     14  H   UNL     1       7.745   4.665  25.251  0.00  0.00    +0.145 HD
ATOM     15  C   UNL     1       8.947   0.677  23.451  0.00  0.00    +0.062 A 
ATOM     16  C   UNL     1       9.469  -0.652  23.261  0.00  0.00    -0.032 A 
ATOM     17  C   UNL     1      10.116  -1.053  21.959  0.00  0.00    +0.045 C 
ENDROOT
BRANCH   1  18
ATOM     18  C   UNL     1       9.594  -3.053  24.171  0.00  0.00    +0.075 C 
BRANCH  18  23
ATOM     19  C   UNL     1       7.424  -5.295  26.378  0.00  0.00    +0.121 A 
ATOM     20  C   UNL     1       6.316  -5.495  25.561  0.00  0.00    +0.049 A 
ATOM     21  C   UNL     1       6.295  -4.958  24.276  0.00  0.00    +0.049 A 
ATOM     22  C   UNL     1       7.372  -4.198  23.810  0.00  0.00    +0.124 A 
ATOM     23  C   UNL     1       8.499  -3.987  24.640  0.00  0.00    +0.002 A 
ATOM     24  C   UNL     1       8.530  -4.598  25.903  0.00  0.00    +0.053 A 
BRANCH  19  26
ATOM     25  C   UNL     1       6.233  -5.711  28.333  0.00  0.00    +0.277 C 
ATOM     26  O   UNL     1       7.494  -5.747  27.668  0.00  0.00    -0.495 OA
ENDBRANCH  19  26
BRANCH  22  27
ATOM     27  O   UNL     1       7.418  -3.611  22.569  0.00  0.00    -0.495 OA
ATOM     28  C   UNL     1       6.186  -3.146  22.026  0.00  0.00    +0.277 C 
ENDBRANCH  22  27
ENDBRANCH  18  23
ENDBRANCH   1  18
TORSDOF 4
ENDMDL
MODEL 4
REMARK VINA RESULT:      -7.2      4.266      8.058
REMARK  Name = 
REMARK  7 active torsions:
REMARK  status: ('A' for Active; 'I' for Inactive)
REMARK    1  A    between atoms: C_1  and  O_2
REMARK    2  A    between atoms: O_2  and  C_3
REMARK    3  A    between atoms: C_5  and  C_6
REMARK    4  A    between atoms: C_6  and  C_7
REMARK    5  A    between atoms: C_8  and  C_9
REMARK    6  A    between atoms: C_20  and  O_21
REMARK    7  A    between atoms: O_21  and  C_22
REMARK                            x       y       z     vdW  Elec       q    Type
REMARK                         _______ _______ _______ _____ _____    ______ ____
ROOT
ATOM      1  C   UNL     1       8.263  -3.134  23.777  0.00  0.00    -0.021 A 
ATOM      2  C   UNL     1       8.168  -2.932  22.410  0.00  0.00    +0.117 A 
ATOM      3  N   UNL     1       8.475  -1.775  21.783  0.00  0.00    -0.235 NA
ATOM      4  C   UNL     1       8.983  -0.765  22.488  0.00  0.00    +0.167 A 
ATOM      5  N   UNL     1       9.367   0.295  21.789  0.00  0.00    -0.195 NA
ATOM      6  C   UNL     1       9.957   1.291  22.437  0.00  0.00    +0.216 A 
ATOM      7  N   UNL     1      10.176   1.322  23.742  0.00  0.00    -0.199 NA
ATOM      8  C   UNL     1       9.780   0.252  24.441  0.00  0.00    +0.131 A 
ATOM      9  N   UNL     1      10.161   0.294  25.790  0.00  0.00    -0.342 N 
ATOM     10  H   UNL     1      10.757  -0.495  26.012  0.00  0.00    +0.144 HD
ATOM     11  H   UNL     1      10.669   1.169  25.913  0.00  0.00    +0.144 HD
ATOM     12  N   UNL     1      10.372   2.385  21.703  0.00  0.00    -0.327 N 
ATOM     13  H   UNL     1      10.449   3.193  22.301  0.00  0.00    +0.145 HD
ATOM     14  H   UNL     1       9.815   2.470  20.861  0.00  0.00    +0.145 HD
ATOM     15  C   UNL     1       9.117  -0.849  23.875  0.00  0.00    +0.062 A 
ATOM     16  C   UNL     1       8.625  -2.025  24.547  0.00  0.00    -0.032 A 
ATOM     17  C   UNL     1       8.466  -2.052  26.046  0.00  0.00    +0.045 C 
ENDROOT
BRANCH   1  18
ATOM     18  C   UNL     1       8.050  -4.522  24.346  0.00  0.00    +0.075 C 
BRANCH  18  23
ATOM     19  C   UNL     1       4.565  -5.012  25.837  0.00  0.00    +0.121 A 
ATOM     20  C   UNL     1       3.928  -5.716  24.820  0.00  0.00    +0.049 A 
ATOM     21  C   UNL     1       4.639  -6.086  23.681  0.00  0.00    +0.049 A 
ATOM     22  C   UNL     1       5.984  -5.733  23.541  0.00  0.00    +0.124 A 
ATOM     23  C   UNL     1       6.635  -5.011  24.571  0.00  0.00    +0.002 A 
ATOM     24  C   UNL     1       5.920  -4.713  25.741  0.00  0.00    +0.053 A 
BRANCH  19  26
ATOM     25  C   UNL     1       4.597  -4.930  28.162  0.00  0.00    +0.277 C 
ATOM     26  O   UNL     1       3.919  -4.570  26.959  0.00  0.00    -0.495 OA
ENDBRANCH  19  26
BRANCH  22  27
ATOM     27  O   UNL     1       6.748  -6.034  22.440  0.00  0.00    -0.495 OA
ATOM     28  C   UNL     1       6.169  -5.782  21.163  0.00  0.00    +0.277 C 
ENDBRANCH  22  27
ENDBRANCH  18  23
ENDBRANCH   1  18
TORSDOF 4
ENDMDL
MODEL 5
REMARK VINA RESULT:      -7.2      4.080      7.905
REMARK  Name = 
REMARK  7 active torsions:
REMARK  status: ('A' for Active; 'I' for Inactive)
REMARK    1  A    between atoms: C_1  and  O_2
REMARK    2  A    between atoms: O_2  and  C_3
REMARK    3  A    between atoms: C_5  and  C_6
REMARK    4  A    between atoms: C_6  and  C_7
REMARK    5  A    between atoms: C_8  and  C_9
REMARK    6  A    between atoms: C_20  and  O_21
REMARK    7  A    between atoms: O_21  and  C_22
REMARK                            x       y       z     vdW  Elec       q    Type
REMARK                         _______ _______ _______ _____ _____    ______ ____
ROOT
ATOM      1  C   UNL     1       8.808  -2.590  24.746  0.00  0.00    -0.021 A 
ATOM      2  C   UNL     1       9.743  -2.554  23.725  0.00  0.00    +0.117 A 
ATOM      3  N   UNL     1      10.208  -1.423  23.151  0.00  0.00    -0.235 NA
ATOM      4  C   UNL     1       9.824  -0.240  23.631  0.00  0.00    +0.167 A 
ATOM      5  N   UNL     1      10.410   0.822  23.095  0.00  0.00    -0.195 NA
ATOM      6  C   UNL     1      10.123   2.015  23.599  0.00  0.00    +0.216 A 
ATOM      7  N   UNL     1       9.274   2.235  24.590  0.00  0.00    -0.199 NA
ATOM      8  C   UNL     1       8.682   1.160  25.121  0.00  0.00    +0.131 A 
ATOM      9  N   UNL     1       7.900   1.451  26.248  0.00  0.00    -0.342 N 
ATOM     10  H   UNL     1       8.248   0.950  27.057  0.00  0.00    +0.144 HD
ATOM     11  H   UNL     1       7.977   2.457  26.393  0.00  0.00    +0.144 HD
ATOM     12  N   UNL     1      10.750   3.117  23.051  0.00  0.00    -0.327 N 
ATOM     13  H   UNL     1      10.208   3.948  23.231  0.00  0.00    +0.145 HD
ATOM     14  H   UNL     1      11.015   2.925  22.092  0.00  0.00    +0.145 HD
ATOM     15  C   UNL     1       8.879  -0.151  24.655  0.00  0.00    +0.062 A 
ATOM     16  C   UNL     1       8.265  -1.362  25.136  0.00  0.00    -0.032 A 
ATOM     17  C   UNL     1       7.039  -1.314  26.014  0.00  0.00    +0.045 C 
ENDROOT
BRANCH   1  18
ATOM     18  C   UNL     1       8.485  -3.907  25.421  0.00  0.00    +0.075 C 
BRANCH  18  23
ATOM     19  C   UNL     1       5.590  -5.392  23.416  0.00  0.00    +0.121 A 
ATOM     20  C   UNL     1       4.958  -6.169  24.381  0.00  0.00    +0.049 A 
ATOM     21  C   UNL     1       5.428  -6.166  25.693  0.00  0.00    +0.049 A 
ATOM     22  C   UNL     1       6.548  -5.405  26.040  0.00  0.00    +0.124 A 
ATOM     23  C   UNL     1       7.198  -4.618  25.059  0.00  0.00    +0.002 A 
ATOM     24  C   UNL     1       6.664  -4.578  23.763  0.00  0.00    +0.053 A 
BRANCH  19  26
ATOM     25  C   UNL     1       6.271  -5.789  21.226  0.00  0.00    +0.277 C 
ATOM     26  O   UNL     1       5.217  -5.384  22.099  0.00  0.00    -0.495 OA
ENDBRANCH  19  26
BRANCH  22  27
ATOM     27  O   UNL     1       7.092  -5.369  27.300  0.00  0.00    -0.495 OA
ATOM     28  C   UNL     1       6.303  -5.899  28.362  0.00  0.00    +0.277 C 
ENDBRANCH  22  27
ENDBRANCH  18  23
ENDBRANCH   1  18
TORSDOF 4
ENDMDL
MODEL 6
REMARK VINA RESULT:      -7.1      3.645      5.202
REMARK  Name = 
REMARK  7 active torsions:
REMARK  status: ('A' for Active; 'I' for Inactive)
REMARK    1  A    between atoms: C_1  and  O_2
REMARK    2  A    between atoms: O_2  and  C_3
REMARK    3  A    between atoms: C_5  and  C_6
REMARK    4  A    between atoms: C_6  and  C_7
REMARK    5  A    between atoms: C_8  and  C_9
REMARK    6  A    between atoms: C_20  and  O_21
REMARK    7  A    between atoms: O_21  and  C_22
REMARK                            x       y       z     vdW  Elec       q    Type
REMARK                         _______ _______ _______ _____ _____    ______ ____
ROOT
ATOM      1  C   UNL     1       8.312  -3.830  23.792  0.00  0.00    -0.021 A 
ATOM      2  C   UNL     1       7.695  -3.489  22.599  0.00  0.00    +0.117 A 
ATOM      3  N   UNL     1       6.506  -3.979  22.184  0.00  0.00    -0.235 NA
ATOM      4  C   UNL     1       5.814  -4.784  22.990  0.00  0.00    +0.167 A 
ATOM      5  N   UNL     1       4.606  -5.132  22.565  0.00  0.00    -0.195 NA
ATOM      6  C   UNL     1       3.847  -5.861  23.371  0.00  0.00    +0.216 A 
ATOM      7  N   UNL     1       4.208  -6.294  24.569  0.00  0.00    -0.199 NA
ATOM      8  C   UNL     1       5.429  -5.945  24.987  0.00  0.00    +0.131 A 
ATOM      9  N   UNL     1       5.696  -6.323  26.311  0.00  0.00    -0.342 N 
ATOM     10  H   UNL     1       5.892  -5.506  26.878  0.00  0.00    +0.144 HD
ATOM     11  H   UNL     1       4.855  -6.792  26.646  0.00  0.00    +0.144 HD
ATOM     12  N   UNL     1       2.582  -6.205  22.933  0.00  0.00    -0.327 N 
ATOM     13  H   UNL     1       2.259  -7.027  23.420  0.00  0.00    +0.145 HD
ATOM     14  H   UNL     1       2.556  -6.215  21.920  0.00  0.00    +0.145 HD
ATOM     15  C   UNL     1       6.338  -5.203  24.215  0.00  0.00    +0.062 A 
ATOM     16  C   UNL     1       7.679  -4.809  24.563  0.00  0.00    -0.032 A 
ATOM     17  C   UNL     1       8.406  -5.463  25.712  0.00  0.00    +0.045 C 
ENDROOT
BRANCH   1  18
ATOM     18  C   UNL     1       9.563  -3.093  24.225  0.00  0.00    +0.075 C 
BRANCH  18  23
ATOM     19  C   UNL     1       9.769   0.637  23.416  0.00  0.00    +0.121 A 
ATOM     20  C   UNL     1       9.159   1.195  24.535  0.00  0.00    +0.049 A 
ATOM     21  C   UNL     1       8.737   0.373  25.578  0.00  0.00    +0.049 A 
ATOM     22  C   UNL     1       8.901  -1.013  25.497  0.00  0.00    +0.124 A 
ATOM     23  C   UNL     1       9.515  -1.586  24.356  0.00  0.00    +0.002 A 
ATOM     24  C   UNL     1       9.998  -0.734  23.352  0.00  0.00    +0.053 A 
BRANCH  19  26
ATOM     25  C   UNL     1       9.067   1.761  21.504  0.00  0.00    +0.277 C 
ATOM     26  O   UNL     1      10.162   1.374  22.332  0.00  0.00    -0.495 OA
ENDBRANCH  19  26
BRANCH  22  27
ATOM     27  O   UNL     1       8.487  -1.894  26.466  0.00  0.00    -0.495 OA
ATOM     28  C   UNL     1       7.095  -1.923  26.763  0.00  0.00    +0.277 C 
ENDBRANCH  22  27
ENDBRANCH  18  23
ENDBRANCH   1  18
TORSDOF 4
ENDMDL
MODEL 7
REMARK VINA RESULT:      -7.0      4.060      8.089
REMARK  Name = 
REMARK  7 active torsions:
REMARK  status: ('A' for Active; 'I' for Inactive)
REMARK    1  A    between atoms: C_1  and  O_2
REMARK    2  A    between atoms: O_2  and  C_3
REMARK    3  A    between atoms: C_5  and  C_6
REMARK    4  A    between atoms: C_6  and  C_7
REMARK    5  A    between atoms: C_8  and  C_9
REMARK    6  A    between atoms: C_20  and  O_21
REMARK    7  A    between atoms: O_21  and  C_22
REMARK                            x       y       z     vdW  Elec       q    Type
REMARK                         _______ _______ _______ _____ _____    ______ ____
ROOT
ATOM      1  C   UNL     1       8.475  -1.942  25.517  0.00  0.00    -0.021 A 
ATOM      2  C   UNL     1       7.869  -0.860  26.135  0.00  0.00    +0.117 A 
ATOM      3  N   UNL     1       7.838   0.393  25.629  0.00  0.00    -0.235 NA
ATOM      4  C   UNL     1       8.343   0.621  24.417  0.00  0.00    +0.167 A 
ATOM      5  N   UNL     1       8.173   1.847  23.940  0.00  0.00    -0.195 NA
ATOM      6  C   UNL     1       8.584   2.098  22.704  0.00  0.00    +0.216 A 
ATOM      7  N   UNL     1       9.175   1.221  21.908  0.00  0.00    -0.199 NA
ATOM      8  C   UNL     1       9.349  -0.010  22.399  0.00  0.00    +0.131 A 
ATOM      9  N   UNL     1       9.859  -0.919  21.461  0.00  0.00    -0.342 N 
ATOM     10  H   UNL     1       9.209  -1.685  21.324  0.00  0.00    +0.144 HD
ATOM     11  H   UNL     1       9.977  -0.396  20.595  0.00  0.00    +0.144 HD
ATOM     12  N   UNL     1       8.387   3.371  22.203  0.00  0.00    -0.327 N 
ATOM     13  H   UNL     1       9.039   3.552  21.454  0.00  0.00    +0.145 HD
ATOM     14  H   UNL     1       8.342   4.040  22.962  0.00  0.00    +0.145 HD
ATOM     15  C   UNL     1       8.987  -0.390  23.702  0.00  0.00    +0.062 A 
ATOM     16  C   UNL     1       9.163  -1.675  24.330  0.00  0.00    -0.032 A 
ATOM     17  C   UNL     1      10.099  -2.702  23.742  0.00  0.00    +0.045 C 
ENDROOT
BRANCH   1  18
ATOM     18  C   UNL     1       8.304  -3.329  26.099  0.00  0.00    +0.075 C 
BRANCH  18  23
ATOM     19  C   UNL     1       5.898  -5.143  23.748  0.00  0.00    +0.121 A 
ATOM     20  C   UNL     1       5.293  -6.046  24.618  0.00  0.00    +0.049 A 
ATOM     21  C   UNL     1       5.617  -6.028  25.973  0.00  0.00    +0.049 A 
ATOM     22  C   UNL     1       6.564  -5.124  26.461  0.00  0.00    +0.124 A 
ATOM     23  C   UNL     1       7.187  -4.208  25.579  0.00  0.00    +0.002 A 
ATOM     24  C   UNL     1       6.793  -4.194  24.233  0.00  0.00    +0.053 A 
BRANCH  19  26
ATOM     25  C   UNL     1       6.580  -5.968  21.682  0.00  0.00    +0.277 C 
ATOM     26  O   UNL     1       5.670  -5.135  22.399  0.00  0.00    -0.495 OA
ENDBRANCH  19  26
BRANCH  22  27
ATOM     27  O   UNL     1       6.960  -5.060  27.775  0.00  0.00    -0.495 OA
ATOM     28  C   UNL     1       6.284  -5.910  28.697  0.00  0.00    +0.277 C 
ENDBRANCH  22  27
ENDBRANCH  18  23
ENDBRANCH   1  18
TORSDOF 4
ENDMDL
MODEL 8
REMARK VINA RESULT:      -6.8      3.770      5.595
REMARK  Name = 
REMARK  7 active torsions:
REMARK  status: ('A' for Active; 'I' for Inactive)
REMARK    1  A    between atoms: C_1  and  O_2
REMARK    2  A    between atoms: O_2  and  C_3
REMARK    3  A    between atoms: C_5  and  C_6
REMARK    4  A    between atoms: C_6  and  C_7
REMARK    5  A    between atoms: C_8  and  C_9
REMARK    6  A    between atoms: C_20  and  O_21
REMARK    7  A    between atoms: O_21  and  C_22
REMARK                            x       y       z     vdW  Elec       q    Type
REMARK                         _______ _______ _______ _____ _____    ______ ____
ROOT
ATOM      1  C   UNL     1       8.109  -3.831  23.676  0.00  0.00    -0.021 A 
ATOM      2  C   UNL     1       7.500  -3.648  22.444  0.00  0.00    +0.117 A 
ATOM      3  N   UNL     1       6.378  -4.284  22.042  0.00  0.00    -0.235 NA
ATOM      4  C   UNL     1       5.741  -5.087  22.894  0.00  0.00    +0.167 A 
ATOM      5  N   UNL     1       4.587  -5.585  22.469  0.00  0.00    -0.195 NA
ATOM      6  C   UNL     1       3.876  -6.321  23.313  0.00  0.00    +0.216 A 
ATOM      7  N   UNL     1       4.238  -6.620  24.551  0.00  0.00    -0.199 NA
ATOM      8  C   UNL     1       5.406  -6.120  24.969  0.00  0.00    +0.131 A 
ATOM      9  N   UNL     1       5.665  -6.364  26.325  0.00  0.00    -0.342 N 
ATOM     10  H   UNL     1       5.764  -5.490  26.828  0.00  0.00    +0.144 HD
ATOM     11  H   UNL     1       4.863  -6.886  26.677  0.00  0.00    +0.144 HD
ATOM     12  N   UNL     1       2.665  -6.821  22.874  0.00  0.00    -0.327 N 
ATOM     13  H   UNL     1       2.408  -7.630  23.419  0.00  0.00    +0.145 HD
ATOM     14  H   UNL     1       2.673  -6.913  21.865  0.00  0.00    +0.145 HD
ATOM     15  C   UNL     1       6.264  -5.355  24.161  0.00  0.00    +0.062 A 
ATOM     16  C   UNL     1       7.549  -4.804  24.508  0.00  0.00    -0.032 A 
ATOM     17  C   UNL     1       8.297  -5.291  25.724  0.00  0.00    +0.045 C 
ENDROOT
BRANCH   1  18
ATOM     18  C   UNL     1       9.267  -2.942  24.078  0.00  0.00    +0.075 C 
BRANCH  18  23
ATOM     19  C   UNL     1       8.216   0.012  26.263  0.00  0.00    +0.121 A 
ATOM     20  C   UNL     1       8.704   1.087  25.525  0.00  0.00    +0.049 A 
ATOM     21  C   UNL     1       9.317   0.862  24.295  0.00  0.00    +0.049 A 
ATOM     22  C   UNL     1       9.467  -0.439  23.806  0.00  0.00    +0.124 A 
ATOM     23  C   UNL     1       8.978  -1.535  24.557  0.00  0.00    +0.002 A 
ATOM     24  C   UNL     1       8.299  -1.281  25.758  0.00  0.00    +0.053 A 
BRANCH  19  26
ATOM     25  C   UNL     1       6.385   0.810  27.457  0.00  0.00    +0.277 C 
ATOM     26  O   UNL     1       7.650   0.150  27.501  0.00  0.00    -0.495 OA
ENDBRANCH  19  26
BRANCH  22  27
ATOM     27  O   UNL     1      10.084  -0.747  22.619  0.00  0.00    -0.495 OA
ATOM     28  C   UNL     1       9.470  -0.268  21.426  0.00  0.00    +0.277 C 
ENDBRANCH  22  27
ENDBRANCH  18  23
ENDBRANCH   1  18
TORSDOF 4
ENDMDL
MODEL 9
REMARK VINA RESULT:      -6.8      4.264      8.169
REMARK  Name = 
REMARK  7 active torsions:
REMARK  status: ('A' for Active; 'I' for Inactive)
REMARK    1  A    between atoms: C_1  and  O_2
REMARK    2  A    between atoms: O_2  and  C_3
REMARK    3  A    between atoms: C_5  and  C_6
REMARK    4  A    between atoms: C_6  and  C_7
REMARK    5  A    between atoms: C_8  and  C_9
REMARK    6  A    between atoms: C_20  and  O_21
REMARK    7  A    between atoms: O_21  and  C_22
REMARK                            x       y       z     vdW  Elec       q    Type
REMARK                         _______ _______ _______ _____ _____    ______ ____
ROOT
ATOM      1  C   UNL     1       7.918  -1.231  23.134  0.00  0.00    -0.021 A 
ATOM      2  C   UNL     1       7.219  -0.959  24.299  0.00  0.00    +0.117 A 
ATOM      3  N   UNL     1       7.303   0.199  24.990  0.00  0.00    -0.235 NA
ATOM      4  C   UNL     1       8.036   1.199  24.502  0.00  0.00    +0.167 A 
ATOM      5  N   UNL     1       7.978   2.342  25.174  0.00  0.00    -0.195 NA
ATOM      6  C   UNL     1       8.623   3.390  24.681  0.00  0.00    +0.216 A 
ATOM      7  N   UNL     1       9.345   3.384  23.571  0.00  0.00    -0.199 NA
ATOM      8  C   UNL     1       9.403   2.226  22.903  0.00  0.00    +0.131 A 
ATOM      9  N   UNL     1      10.072   2.324  21.674  0.00  0.00    -0.342 N 
ATOM     10  H   UNL     1       9.450   2.072  20.914  0.00  0.00    +0.144 HD
ATOM     11  H   UNL     1      10.362   3.297  21.586  0.00  0.00    +0.144 HD
ATOM     12  N   UNL     1       8.544   4.583  25.373  0.00  0.00    -0.327 N 
ATOM     13  H   UNL     1       9.331   5.171  25.139  0.00  0.00    +0.145 HD
ATOM     14  H   UNL     1       8.362   4.405  26.353  0.00  0.00    +0.145 HD
ATOM     15  C   UNL     1       8.791   1.040  23.339  0.00  0.00    +0.062 A 
ATOM     16  C   UNL     1       8.826  -0.256  22.711  0.00  0.00    -0.032 A 
ATOM     17  C   UNL     1       9.842  -0.572  21.642  0.00  0.00    +0.045 C 
ENDROOT
BRANCH   1  18
ATOM     18  C   UNL     1       7.618  -2.498  22.359  0.00  0.00    +0.075 C 
BRANCH  18  23
ATOM     19  C   UNL     1       4.662  -4.754  23.240  0.00  0.00    +0.121 A 
ATOM     20  C   UNL     1       5.281  -5.725  24.022  0.00  0.00    +0.049 A 
ATOM     21  C   UNL     1       6.639  -5.619  24.314  0.00  0.00    +0.049 A 
ATOM     22  C   UNL     1       7.390  -4.554  23.808  0.00  0.00    +0.124 A 
ATOM     23  C   UNL     1       6.766  -3.567  23.008  0.00  0.00    +0.002 A 
ATOM     24  C   UNL     1       5.383  -3.654  22.786  0.00  0.00    +0.053 A 
BRANCH  19  26
ATOM     25  C   UNL     1       2.562  -5.611  23.759  0.00  0.00    +0.277 C 
ATOM     26  O   UNL     1       3.347  -4.819  22.869  0.00  0.00    -0.495 OA
ENDBRANCH  19  26
BRANCH  22  27
ATOM     27  O   UNL     1       8.736  -4.391  24.026  0.00  0.00    -0.495 OA
ATOM     28  C   UNL     1       9.294  -5.050  25.159  0.00  0.00    +0.277 C 
ENDBRANCH  22  27
ENDBRANCH  18  23
ENDBRANCH   1  18
TORSDOF 4
ENDMDL
