MODEL 1
REMARK VINA RESULT:      -5.8      0.000      0.000
REMARK  Name = 
REMARK  4 active torsions:
REMARK  status: ('A' for Active; 'I' for Inactive)
REMARK    1  A    between atoms: C_2  and  C_4
REMARK    2  A    between atoms: C_6  and  N_7
REMARK    3  A    between atoms: C_10  and  N_16
REMARK    4  A    between atoms: C_12  and  N_13
REMARK                            x       y       z     vdW  Elec       q    Type
REMARK                         _______ _______ _______ _____ _____    ______ ____
ROOT
ATOM      1  C   UNL     1       6.865  -4.836  25.277  0.00  0.00    +0.116 A 
ATOM      2  C   UNL     1       7.850  -4.510  24.341  0.00  0.00    +0.292 A 
ATOM      3  C   UNL     1       7.590  -4.525  22.965  0.00  0.00    +0.171 A 
ATOM      4  C   UNL     1       6.289  -4.828  22.542  0.00  0.00    +0.300 A 
ATOM      5  C   UNL     1       5.240  -5.070  23.448  0.00  0.00    +0.109 A 
ATOM      6  C   UNL     1       5.573  -5.136  24.814  0.00  0.00    +0.049 A 
ENDROOT
BRANCH   1  10
ATOM      7  N   UNL     1       7.953  -6.009  27.116  0.00  0.00    -0.325 N 
ATOM      8  H   UNL     1       8.223  -6.783  26.526  0.00  0.00    +0.145 HD
ATOM      9  H   UNL     1       8.122  -6.100  28.111  0.00  0.00    +0.145 HD
ATOM     10  C   UNL     1       7.174  -4.959  26.720  0.00  0.00    +0.248 C 
ATOM     11  O   UNL     1       6.765  -4.134  27.522  0.00  0.00    -0.270 OA
ENDBRANCH   1  10
BRANCH   2  12
ATOM     12  N   UNL     1       9.152  -4.036  24.767  0.00  0.00    +0.081 N 
ATOM     13  O   UNL     1      10.047  -4.883  24.877  0.00  0.00    +0.041 OA
ATOM     14  O   UNL     1       9.288  -2.809  24.857  0.00  0.00    -0.576 OA
ENDBRANCH   2  12
BRANCH   4  15
ATOM     15  N   UNL     1       6.043  -4.865  21.113  0.00  0.00    +0.082 N 
ATOM     16  O   UNL     1       6.140  -5.972  20.569  0.00  0.00    +0.042 OA
ATOM     17  O   UNL     1       5.690  -3.814  20.566  0.00  0.00    -0.576 OA
ENDBRANCH   4  15
BRANCH   5  18
ATOM     18  N   UNL     1       3.907  -5.290  23.030  0.00  0.00    -0.322 N 
ATOM     19  C   UNL     1       2.817  -4.952  23.942  0.00  0.00    +0.124 C 
ATOM     20  C   UNL     1       3.122  -6.386  23.594  0.00  0.00    +0.124 C 
ENDBRANCH   5  18
TORSDOF 4
ENDMDL
MODEL 2
REMARK VINA RESULT:      -5.6      2.254      3.704
REMARK  Name = 
REMARK  4 active torsions:
REMARK  status: ('A' for Active; 'I' for Inactive)
REMARK    1  A    between atoms: C_2  and  C_4
REMARK    2  A    between atoms: C_6  and  N_7
REMARK    3  A    between atoms: C_10  and  N_16
REMARK    4  A    between atoms: C_12  and  N_13
REMARK                            x       y       z     vdW  Elec       q    Type
REMARK                         _______ _______ _______ _____ _____    ______ ____
ROOT
ATOM      1  C   UNL     1       7.260  -4.958  25.826  0.00  0.00    +0.116 A 
ATOM      2  C   UNL     1       6.283  -5.509  26.661  0.00  0.00    +0.292 A 
ATOM      3  C   UNL     1       5.119  -6.089  26.146  0.00  0.00    +0.171 A 
ATOM      4  C   UNL     1       4.973  -6.155  24.755  0.00  0.00    +0.300 A 
ATOM      5  C   UNL     1       5.970  -5.701  23.871  0.00  0.00    +0.109 A 
ATOM      6  C   UNL     1       7.077  -5.042  24.436  0.00  0.00    +0.049 A 
ENDROOT
BRANCH   1  10
ATOM      7  N   UNL     1       9.516  -4.945  26.749  0.00  0.00    -0.325 N 
ATOM      8  H   UNL     1       9.547  -5.952  26.814  0.00  0.00    +0.145 HD
ATOM      9  H   UNL     1      10.286  -4.426  27.156  0.00  0.00    +0.145 HD
ATOM     10  C   UNL     1       8.422  -4.219  26.371  0.00  0.00    +0.248 C 
ATOM     11  O   UNL     1       8.408  -3.001  26.455  0.00  0.00    -0.270 OA
ENDBRANCH   1  10
BRANCH   2  12
ATOM     12  N   UNL     1       6.494  -5.597  28.094  0.00  0.00    +0.081 N 
ATOM     13  O   UNL     1       5.881  -4.786  28.800  0.00  0.00    +0.041 OA
ATOM     14  O   UNL     1       7.166  -6.556  28.493  0.00  0.00    -0.576 OA
ENDBRANCH   2  12
BRANCH   4  15
ATOM     15  N   UNL     1       3.748  -6.735  24.237  0.00  0.00    +0.082 N 
ATOM     16  O   UNL     1       3.585  -7.944  24.443  0.00  0.00    +0.042 OA
ATOM     17  O   UNL     1       2.937  -5.973  23.698  0.00  0.00    -0.576 OA
ENDBRANCH   4  15
BRANCH   5  18
ATOM     18  N   UNL     1       5.867  -5.843  22.468  0.00  0.00    -0.322 N 
ATOM     19  C   UNL     1       7.092  -5.908  21.675  0.00  0.00    +0.124 C 
ATOM     20  C   UNL     1       6.169  -4.721  21.583  0.00  0.00    +0.124 C 
ENDBRANCH   5  18
TORSDOF 4
ENDMDL
MODEL 3
REMARK VINA RESULT:      -5.5      1.771      4.463
REMARK  Name = 
REMARK  4 active torsions:
REMARK  status: ('A' for Active; 'I' for Inactive)
REMARK    1  A    between atoms: C_2  and  C_4
REMARK    2  A    between atoms: C_6  and  N_7
REMARK    3  A    between atoms: C_10  and  N_16
REMARK    4  A    between atoms: C_12  and  N_13
REMARK                            x       y       z     vdW  Elec       q    Type
REMARK                         _______ _______ _______ _____ _____    ______ ____
ROOT
ATOM      1  C   UNL     1       7.020  -5.005  24.248  0.00  0.00    +0.116 A 
ATOM      2  C   UNL     1       7.968  -4.606  25.196  0.00  0.00    +0.292 A 
ATOM      3  C   UNL     1       7.781  -4.837  26.564  0.00  0.00    +0.171 A 
ATOM      4  C   UNL     1       6.633  -5.532  26.966  0.00  0.00    +0.300 A 
ATOM      5  C   UNL     1       5.698  -6.037  26.044  0.00  0.00    +0.109 A 
ATOM      6  C   UNL     1       5.881  -5.699  24.691  0.00  0.00    +0.049 A 
ENDROOT
BRANCH   1  10
ATOM      7  N   UNL     1       6.944  -3.330  22.479  0.00  0.00    -0.325 N 
ATOM      8  H   UNL     1       6.582  -2.621  23.100  0.00  0.00    +0.145 HD
ATOM      9  H   UNL     1       6.996  -3.105  21.492  0.00  0.00    +0.145 HD
ATOM     10  C   UNL     1       7.147  -4.638  22.819  0.00  0.00    +0.248 C 
ATOM     11  O   UNL     1       7.447  -5.473  21.981  0.00  0.00    -0.270 OA
ENDBRANCH   1  10
BRANCH   2  12
ATOM     12  N   UNL     1       9.235  -4.034  24.784  0.00  0.00    +0.081 N 
ATOM     13  O   UNL     1       9.264  -2.810  24.606  0.00  0.00    +0.041 OA
ATOM     14  O   UNL     1      10.206  -4.801  24.772  0.00  0.00    -0.576 OA
ENDBRANCH   2  12
BRANCH   4  15
ATOM     15  N   UNL     1       6.441  -5.739  28.389  0.00  0.00    +0.082 N 
ATOM     16  O   UNL     1       6.987  -6.737  28.876  0.00  0.00    +0.042 OA
ATOM     17  O   UNL     1       5.813  -4.876  29.013  0.00  0.00    -0.576 OA
ENDBRANCH   4  15
BRANCH   5  18
ATOM     18  N   UNL     1       4.583  -6.814  26.438  0.00  0.00    -0.322 N 
ATOM     19  C   UNL     1       3.662  -7.295  25.411  0.00  0.00    +0.124 C 
ATOM     20  C   UNL     1       3.235  -6.249  26.408  0.00  0.00    +0.124 C 
ENDBRANCH   5  18
TORSDOF 4
ENDMDL
MODEL 4
REMARK VINA RESULT:      -5.4      3.605      5.496
REMARK  Name = 
REMARK  4 active torsions:
REMARK  status: ('A' for Active; 'I' for Inactive)
REMARK    1  A    between atoms: C_2  and  C_4
REMARK    2  A    between atoms: C_6  and  N_7
REMARK    3  A    between atoms: C_10  and  N_16
REMARK    4  A    between atoms: C_12  and  N_13
REMARK                            x       y       z     vdW  Elec       q    Type
REMARK                         _______ _______ _______ _____ _____    ______ ____
ROOT
ATOM      1  C   UNL     1       8.409  -0.445  22.888  0.00  0.00    +0.116 A 
ATOM      2  C   UNL     1       9.240  -0.425  24.012  0.00  0.00    +0.292 A 
ATOM      3  C   UNL     1       9.476  -1.576  24.772  0.00  0.00    +0.171 A 
ATOM      4  C   UNL     1       8.895  -2.778  24.347  0.00  0.00    +0.300 A 
ATOM      5  C   UNL     1       8.130  -2.870  23.170  0.00  0.00    +0.109 A 
ATOM      6  C   UNL     1       7.844  -1.669  22.494  0.00  0.00    +0.049 A 
ENDROOT
BRANCH   1  10
ATOM      7  N   UNL     1       8.887   1.229  21.181  0.00  0.00    -0.325 N 
ATOM      8  H   UNL     1       9.803   0.847  20.995  0.00  0.00    +0.145 HD
ATOM      9  H   UNL     1       8.643   2.101  20.727  0.00  0.00    +0.145 HD
ATOM     10  C   UNL     1       8.046   0.797  22.168  0.00  0.00    +0.248 C 
ATOM     11  O   UNL     1       7.017   1.399  22.433  0.00  0.00    -0.270 OA
ENDBRANCH   1  10
BRANCH   2  12
ATOM     12  N   UNL     1       9.978   0.771  24.369  0.00  0.00    +0.081 N 
ATOM     13  O   UNL     1       9.350   1.662  24.955  0.00  0.00    +0.041 OA
ATOM     14  O   UNL     1      11.200   0.743  24.173  0.00  0.00    -0.576 OA
ENDBRANCH   2  12
BRANCH   4  15
ATOM     15  N   UNL     1       9.128  -3.957  25.160  0.00  0.00    +0.082 N 
ATOM     16  O   UNL     1      10.086  -4.668  24.834  0.00  0.00    +0.042 OA
ATOM     17  O   UNL     1       8.402  -4.123  26.148  0.00  0.00    -0.576 OA
ENDBRANCH   4  15
BRANCH   5  18
ATOM     18  N   UNL     1       7.613  -4.096  22.689  0.00  0.00    -0.322 N 
ATOM     19  C   UNL     1       6.450  -4.072  21.806  0.00  0.00    +0.124 C 
ATOM     20  C   UNL     1       6.352  -4.624  23.204  0.00  0.00    +0.124 C 
ENDBRANCH   5  18
TORSDOF 4
ENDMDL
MODEL 5
REMARK VINA RESULT:      -5.4      3.076      5.292
REMARK  Name = 
REMARK  4 active torsions:
REMARK  status: ('A' for Active; 'I' for Inactive)
REMARK    1  A    between atoms: C_2  and  C_4
REMARK    2  A    between atoms: C_6  and  N_7
REMARK    3  A    between atoms: C_10  and  N_16
REMARK    4  A    between atoms: C_12  and  N_13
REMARK                            x       y       z     vdW  Elec       q    Type
REMARK                         _______ _______ _______ _____ _____    ______ ____
ROOT
ATOM      1  C   UNL     1       8.731  -1.379  23.293  0.00  0.00    +0.116 A 
ATOM      2  C   UNL     1       8.971  -0.974  24.609  0.00  0.00    +0.292 A 
ATOM      3  C   UNL     1       8.726  -1.822  25.695  0.00  0.00    +0.171 A 
ATOM      4  C   UNL     1       8.278  -3.122  25.430  0.00  0.00    +0.300 A 
ATOM      5  C   UNL     1       8.112  -3.609  24.120  0.00  0.00    +0.109 A 
ATOM      6  C   UNL     1       8.280  -2.691  23.067  0.00  0.00    +0.049 A 
ENDROOT
BRANCH   1  10
ATOM      7  N   UNL     1       9.785  -0.721  21.196  0.00  0.00    -0.325 N 
ATOM      8  H   UNL     1      10.487  -1.442  21.267  0.00  0.00    +0.145 HD
ATOM      9  H   UNL     1       9.882  -0.046  20.446  0.00  0.00    +0.145 HD
ATOM     10  C   UNL     1       8.854  -0.439  22.155  0.00  0.00    +0.248 C 
ATOM     11  O   UNL     1       8.129   0.540  22.069  0.00  0.00    -0.270 OA
ENDBRANCH   1  10
BRANCH   2  12
ATOM     12  N   UNL     1       9.589   0.308  24.891  0.00  0.00    +0.081 N 
ATOM     13  O   UNL     1       8.835   1.231  25.223  0.00  0.00    +0.041 OA
ATOM     14  O   UNL     1      10.826   0.331  24.901  0.00  0.00    -0.576 OA
ENDBRANCH   2  12
BRANCH   4  15
ATOM     15  N   UNL     1       8.003  -3.980  26.568  0.00  0.00    +0.082 N 
ATOM     16  O   UNL     1       8.957  -4.637  27.002  0.00  0.00    +0.042 OA
ATOM     17  O   UNL     1       6.868  -3.937  27.055  0.00  0.00    -0.576 OA
ENDBRANCH   4  15
BRANCH   5  18
ATOM     18  N   UNL     1       7.743  -4.946  23.845  0.00  0.00    -0.322 N 
ATOM     19  C   UNL     1       7.287  -5.288  22.500  0.00  0.00    +0.124 C 
ATOM     20  C   UNL     1       6.339  -5.309  23.670  0.00  0.00    +0.124 C 
ENDBRANCH   5  18
TORSDOF 4
ENDMDL
MODEL 6
REMARK VINA RESULT:      -5.3      3.185      4.829
REMARK  Name = 
REMARK  4 active torsions:
REMARK  status: ('A' for Active; 'I' for Inactive)
REMARK    1  A    between atoms: C_2  and  C_4
REMARK    2  A    between atoms: C_6  and  N_7
REMARK    3  A    between atoms: C_10  and  N_16
REMARK    4  A    between atoms: C_12  and  N_13
REMARK                            x       y       z     vdW  Elec       q    Type
REMARK                         _______ _______ _______ _____ _____    ______ ____
ROOT
ATOM      1  C   UNL     1       9.106  -1.348  23.968  0.00  0.00    +0.116 A 
ATOM      2  C   UNL     1       8.073  -1.124  23.054  0.00  0.00    +0.292 A 
ATOM      3  C   UNL     1       7.292  -2.174  22.557  0.00  0.00    +0.171 A 
ATOM      4  C   UNL     1       7.536  -3.466  23.040  0.00  0.00    +0.300 A 
ATOM      5  C   UNL     1       8.500  -3.728  24.031  0.00  0.00    +0.109 A 
ATOM      6  C   UNL     1       9.321  -2.657  24.429  0.00  0.00    +0.049 A 
ENDROOT
BRANCH   1  10
ATOM      7  N   UNL     1       9.819   0.305  25.612  0.00  0.00    -0.325 N 
ATOM      8  H   UNL     1       9.014   0.139  26.198  0.00  0.00    +0.145 HD
ATOM      9  H   UNL     1      10.431   1.073  25.864  0.00  0.00    +0.145 HD
ATOM     10  C   UNL     1      10.023  -0.262  24.386  0.00  0.00    +0.248 C 
ATOM     11  O   UNL     1      10.943   0.094  23.667  0.00  0.00    -0.270 OA
ENDBRANCH   1  10
BRANCH   2  12
ATOM     12  N   UNL     1       7.700   0.223  22.668  0.00  0.00    +0.081 N 
ATOM     13  O   UNL     1       8.289   0.709  21.694  0.00  0.00    +0.041 OA
ATOM     14  O   UNL     1       6.736   0.719  23.265  0.00  0.00    -0.576 OA
ENDBRANCH   2  12
BRANCH   4  15
ATOM     15  N   UNL     1       6.736  -4.546  22.495  0.00  0.00    +0.082 N 
ATOM     16  O   UNL     1       5.623  -4.717  23.007  0.00  0.00    +0.042 OA
ATOM     17  O   UNL     1       7.193  -5.164  21.526  0.00  0.00    -0.576 OA
ENDBRANCH   4  15
BRANCH   5  18
ATOM     18  N   UNL     1       8.692  -5.015  24.586  0.00  0.00    -0.322 N 
ATOM     19  C   UNL     1       8.244  -5.267  25.954  0.00  0.00    +0.124 C 
ATOM     20  C   UNL     1       9.710  -5.239  25.610  0.00  0.00    +0.124 C 
ENDBRANCH   5  18
TORSDOF 4
ENDMDL
MODEL 7
REMARK VINA RESULT:      -5.3      2.177      5.603
REMARK  Name = 
REMARK  4 active torsions:
REMARK  status: ('A' for Active; 'I' for Inactive)
REMARK    1  A    between atoms: C_2  and  C_4
REMARK    2  A    between atoms: C_6  and  N_7
REMARK    3  A    between atoms: C_10  and  N_16
REMARK    4  A    between atoms: C_12  and  N_13
REMARK                            x       y       z     vdW  Elec       q    Type
REMARK                         _______ _______ _______ _____ _____    ______ ____
ROOT
ATOM      1  C   UNL     1       6.675  -4.473  22.717  0.00  0.00    +0.116 A 
ATOM      2  C   UNL     1       6.070  -4.814  23.930  0.00  0.00    +0.292 A 
ATOM      3  C   UNL     1       6.671  -4.519  25.160  0.00  0.00    +0.171 A 
ATOM      4  C   UNL     1       7.885  -3.820  25.151  0.00  0.00    +0.300 A 
ATOM      5  C   UNL     1       8.487  -3.372  23.960  0.00  0.00    +0.109 A 
ATOM      6  C   UNL     1       7.893  -3.774  22.749  0.00  0.00    +0.049 A 
ENDROOT
BRANCH   1  10
ATOM      7  N   UNL     1       6.027  -6.251  21.181  0.00  0.00    -0.325 N 
ATOM      8  H   UNL     1       6.440  -6.967  21.760  0.00  0.00    +0.145 HD
ATOM      9  H   UNL     1       5.676  -6.529  20.271  0.00  0.00    +0.145 HD
ATOM     10  C   UNL     1       6.112  -4.908  21.418  0.00  0.00    +0.248 C 
ATOM     11  O   UNL     1       5.717  -4.092  20.601  0.00  0.00    -0.270 OA
ENDBRANCH   1  10
BRANCH   2  12
ATOM     12  N   UNL     1       4.739  -5.389  23.961  0.00  0.00    +0.081 N 
ATOM     13  O   UNL     1       4.665  -6.623  24.036  0.00  0.00    +0.041 OA
ATOM     14  O   UNL     1       3.797  -4.592  24.040  0.00  0.00    -0.576 OA
ENDBRANCH   2  12
BRANCH   4  15
ATOM     15  N   UNL     1       8.508  -3.547  26.432  0.00  0.00    +0.082 N 
ATOM     16  O   UNL     1       9.209  -4.450  26.905  0.00  0.00    +0.042 OA
ATOM     17  O   UNL     1       8.350  -2.419  26.916  0.00  0.00    -0.576 OA
ENDBRANCH   4  15
BRANCH   5  18
ATOM     18  N   UNL     1       9.666  -2.591  23.949  0.00  0.00    -0.322 N 
ATOM     19  C   UNL     1       9.548  -1.136  23.966  0.00  0.00    +0.124 C 
ATOM     20  C   UNL     1      10.062  -1.859  22.749  0.00  0.00    +0.124 C 
ENDBRANCH   5  18
TORSDOF 4
ENDMDL
MODEL 8
REMARK VINA RESULT:      -5.3      2.479      4.272
REMARK  Name = 
REMARK  4 active torsions:
REMARK  status: ('A' for Active; 'I' for Inactive)
REMARK    1  A    between atoms: C_2  and  C_4
REMARK    2  A    between atoms: C_6  and  N_7
REMARK    3  A    between atoms: C_10  and  N_16
REMARK    4  A    between atoms: C_12  and  N_13
REMARK                            x       y       z     vdW  Elec       q    Type
REMARK                         _______ _______ _______ _____ _____    ______ ____
ROOT
ATOM      1  C   UNL     1       5.183  -5.857  25.525  0.00  0.00    +0.116 A 
ATOM      2  C   UNL     1       4.300  -6.239  24.512  0.00  0.00    +0.292 A 
ATOM      3  C   UNL     1       4.559  -5.956  23.165  0.00  0.00    +0.171 A 
ATOM      4  C   UNL     1       5.764  -5.318  22.845  0.00  0.00    +0.300 A 
ATOM      5  C   UNL     1       6.729  -4.999  23.818  0.00  0.00    +0.109 A 
ATOM      6  C   UNL     1       6.381  -5.218  25.164  0.00  0.00    +0.049 A 
ENDROOT
BRANCH   1  10
ATOM      7  N   UNL     1       5.318  -7.142  27.592  0.00  0.00    -0.325 N 
ATOM      8  H   UNL     1       5.763  -7.923  27.133  0.00  0.00    +0.145 HD
ATOM      9  H   UNL     1       5.043  -7.263  28.560  0.00  0.00    +0.145 HD
ATOM     10  C   UNL     1       4.845  -6.028  26.957  0.00  0.00    +0.248 C 
ATOM     11  O   UNL     1       4.187  -5.189  27.551  0.00  0.00    -0.270 OA
ENDBRANCH   1  10
BRANCH   2  12
ATOM     12  N   UNL     1       3.130  -7.043  24.809  0.00  0.00    +0.081 N 
ATOM     13  O   UNL     1       2.044  -6.452  24.865  0.00  0.00    +0.041 OA
ATOM     14  O   UNL     1       3.302  -8.268  24.853  0.00  0.00    -0.576 OA
ENDBRANCH   2  12
BRANCH   4  15
ATOM     15  N   UNL     1       6.005  -5.008  21.448  0.00  0.00    +0.082 N 
ATOM     16  O   UNL     1       6.444  -5.930  20.749  0.00  0.00    +0.042 OA
ATOM     17  O   UNL     1       5.693  -3.879  21.051  0.00  0.00    -0.576 OA
ENDBRANCH   4  15
BRANCH   5  18
ATOM     18  N   UNL     1       7.984  -4.434  23.491  0.00  0.00    -0.322 N 
ATOM     19  C   UNL     1       8.883  -4.040  24.574  0.00  0.00    +0.124 C 
ATOM     20  C   UNL     1       8.232  -3.008  23.691  0.00  0.00    +0.124 C 
ENDBRANCH   5  18
TORSDOF 4
ENDMDL
MODEL 9
REMARK VINA RESULT:      -5.2      2.558      4.799
REMARK  Name = 
REMARK  4 active torsions:
REMARK  status: ('A' for Active; 'I' for Inactive)
REMARK    1  A    between atoms: C_2  and  C_4
REMARK    2  A    between atoms: C_6  and  N_7
REMARK    3  A    between atoms: C_10  and  N_16
REMARK    4  A    between atoms: C_12  and  N_13
REMARK                            x       y       z     vdW  Elec       q    Type
REMARK                         _______ _______ _______ _____ _____    ______ ____
ROOT
ATOM      1  C   UNL     1       6.755  -4.172  24.439  0.00  0.00    +0.116 A 
ATOM      2  C   UNL     1       6.954  -4.277  23.059  0.00  0.00    +0.292 A 
ATOM      3  C   UNL     1       7.781  -3.385  22.366  0.00  0.00    +0.171 A 
ATOM      4  C   UNL     1       8.455  -2.402  23.102  0.00  0.00    +0.300 A 
ATOM      5  C   UNL     1       8.361  -2.314  24.504  0.00  0.00    +0.109 A 
ATOM      6  C   UNL     1       7.447  -3.173  25.142  0.00  0.00    +0.049 A 
ENDROOT
BRANCH   1  10
ATOM      7  N   UNL     1       4.447  -4.753  24.965  0.00  0.00    -0.325 N 
ATOM      8  H   UNL     1       4.084  -3.938  24.494  0.00  0.00    +0.145 HD
ATOM      9  H   UNL     1       3.791  -5.321  25.490  0.00  0.00    +0.145 HD
ATOM     10  C   UNL     1       5.773  -5.024  25.149  0.00  0.00    +0.248 C 
ATOM     11  O   UNL     1       6.140  -5.951  25.854  0.00  0.00    -0.270 OA
ENDBRANCH   1  10
BRANCH   2  12
ATOM     12  N   UNL     1       6.396  -5.386  22.309  0.00  0.00    +0.081 N 
ATOM     13  O   UNL     1       5.243  -5.248  21.882  0.00  0.00    +0.041 OA
ATOM     14  O   UNL     1       7.167  -6.319  22.051  0.00  0.00    -0.576 OA
ENDBRANCH   2  12
BRANCH   4  15
ATOM     15  N   UNL     1       9.286  -1.468  22.366  0.00  0.00    +0.082 N 
ATOM     16  O   UNL     1       8.741  -0.421  21.998  0.00  0.00    +0.042 OA
ATOM     17  O   UNL     1      10.481  -1.754  22.226  0.00  0.00    -0.576 OA
ENDBRANCH   4  15
BRANCH   5  18
ATOM     18  N   UNL     1       9.106  -1.380  25.261  0.00  0.00    -0.322 N 
ATOM     19  C   UNL     1       8.700  -1.105  26.637  0.00  0.00    +0.124 C 
ATOM     20  C   UNL     1       8.556  -0.060  25.562  0.00  0.00    +0.124 C 
ENDBRANCH   5  18
TORSDOF 4
ENDMDL
