MODEL 1
REMARK VINA RESULT:      -7.5      0.000      0.000
REMARK  Name = 
REMARK  13 active torsions:
REMARK  status: ('A' for Active; 'I' for Inactive)
REMARK    1  A    between atoms: C_1  and  O_2
REMARK    2  A    between atoms: O_2  and  C_3
REMARK    3  A    between atoms: C_6  and  C_8
REMARK    4  A    between atoms: C_11  and  O_12
REMARK    5  A    between atoms: O_12  and  C_13
REMARK    6  A    between atoms: C_21  and  C_22
REMARK    7  A    between atoms: C_26  and  O_28
REMARK    8  A    between atoms: O_28  and  C_29
REMARK    9  A    between atoms: C_30  and  O_32
REMARK   10  A    between atoms: O_32  and  C_33
REMARK   11  A    between atoms: C_36  and  C_37
REMARK   12  A    between atoms: C_39  and  C_41
REMARK   13  A    between atoms: C_42  and  O_44
REMARK                            x       y       z     vdW  Elec       q    Type
REMARK                         _______ _______ _______ _____ _____    ______ ____
ROOT
ATOM      1  C   UNL     1       4.144   2.566  26.107  0.00  0.00    +0.147 C 
ATOM      2  C   UNL     1       4.456   0.728  26.707  0.00  0.00    +0.150 C 
ATOM      3  C   UNL     1       3.979  -1.171  27.032  0.00  0.00    +0.040 C 
ATOM      4  C   UNL     1       5.235  -1.979  27.592  0.00  0.00    +0.014 C 
ATOM      5  C   UNL     1       3.041  -2.771  26.659  0.00  0.00    -0.019 C 
ATOM      6  C   UNL     1       3.187  -4.259  26.573  0.00  0.00    -0.033 C 
ATOM      7  C   UNL     1       1.943  -5.383  26.642  0.00  0.00    +0.042 C 
ATOM      8  C   UNL     1       4.384  -5.424  26.615  0.00  0.00    +0.236 C 
ATOM      9  C   UNL     1       5.579  -5.763  25.645  0.00  0.00    +0.186 C 
ATOM     10  C   UNL     1       5.674  -4.552  24.801  0.00  0.00    +0.008 C 
ATOM     11  C   UNL     1       6.729  -3.763  24.748  0.00  0.00    -0.001 C 
ATOM     12  C   UNL     1       6.555  -2.354  24.546  0.00  0.00    +0.008 C 
ATOM     13  C   UNL     1       7.631  -1.557  24.433  0.00  0.00    +0.012 C 
ATOM     14  C   UNL     1       9.028  -2.071  24.448  0.00  0.00    +0.049 C 
ATOM     15  C   UNL     1       7.480  -0.059  24.280  0.00  0.00    +0.244 C 
ATOM     16  O   UNL     1       6.419   0.538  24.172  0.00  0.00    -0.270 OA
ATOM     17  N   UNL     1       8.761   0.490  24.203  0.00  0.00    -0.279 N 
ATOM     18  H   UNL     1       9.514  -0.086  23.908  0.00  0.00    +0.155 HD
ATOM     19  C   UNL     1       9.134   1.771  24.342  0.00  0.00    +0.085 C 
ATOM     20  C   UNL     1       8.254   2.711  24.965  0.00  0.00    +0.207 C 
ATOM     21  O   UNL     1       7.723   2.508  26.045  0.00  0.00    -0.286 OA
ATOM     22  C   UNL     1       8.072   3.884  24.099  0.00  0.00    +0.047 C 
ATOM     23  C   UNL     1       9.168   4.478  23.578  0.00  0.00    +0.173 C 
ATOM     24  C   UNL     1      10.444   3.679  23.704  0.00  0.00    +0.222 C 
ATOM     25  O   UNL     1      11.585   4.139  23.533  0.00  0.00    -0.284 OA
ATOM     26  C   UNL     1       6.672   4.304  24.067  0.00  0.00    +0.046 C 
ATOM     27  C   UNL     1       6.336   4.969  25.398  0.00  0.00    -0.007 C 
ATOM     28  C   UNL     1       7.507   5.750  26.142  0.00  0.00    +0.008 C 
ATOM     29  C   UNL     1      10.282   2.223  23.848  0.00  0.00    +0.081 C 
ATOM     30  C   UNL     1       5.364   3.907  26.258  0.00  0.00    +0.037 C 
ENDROOT
BRANCH   1  32
ATOM     31  C   UNL     1       1.469   3.080  26.158  0.00  0.00    +0.194 C 
ATOM     32  O   UNL     1       2.903   3.417  26.604  0.00  0.00    -0.377 OA
ENDBRANCH   1  32
BRANCH   2  33
ATOM     33  O   UNL     1       5.200   1.028  27.937  0.00  0.00    -0.389 OA
ATOM     34  H   UNL     1       5.517   0.164  28.266  0.00  0.00    +0.210 HD
ENDBRANCH   2  33
BRANCH   9  35
ATOM     35  O   UNL     1       6.652  -6.171  26.494  0.00  0.00    -0.372 OA
ATOM     36  C   UNL     1       7.645  -5.259  26.898  0.00  0.00    +0.195 C 
ENDBRANCH   9  35
BRANCH  23  37
ATOM     37  O   UNL     1       9.063   5.739  23.020  0.00  0.00    -0.491 OA
ATOM     38  C   UNL     1       9.485   6.817  23.848  0.00  0.00    +0.277 C 
ENDBRANCH  23  37
BRANCH   8  39
ATOM     39  O   UNL     1       4.625  -5.614  27.983  0.00  0.00    -0.440 OA
BRANCH  39  40
ATOM     40  C   UNL     1       4.378  -6.879  28.571  0.00  0.00    +0.398 C 
ATOM     41  O   UNL     1       3.289  -7.285  28.994  0.00  0.00    -0.227 OA
ATOM     42  N   UNL     1       5.532  -7.536  28.677  0.00  0.00    -0.295 N 
ATOM     43  H   UNL     1       5.610  -8.400  29.211  0.00  0.00    +0.148 HD
ATOM     44  H   UNL     1       6.392  -7.054  28.451  0.00  0.00    +0.148 HD
ENDBRANCH  39  40
ENDBRANCH   8  39
TORSDOF 6
ENDMDL
MODEL 2
REMARK VINA RESULT:      -7.1      1.771      1.930
REMARK  Name = 
REMARK  13 active torsions:
REMARK  status: ('A' for Active; 'I' for Inactive)
REMARK    1  A    between atoms: C_1  and  O_2
REMARK    2  A    between atoms: O_2  and  C_3
REMARK    3  A    between atoms: C_6  and  C_8
REMARK    4  A    between atoms: C_11  and  O_12
REMARK    5  A    between atoms: O_12  and  C_13
REMARK    6  A    between atoms: C_21  and  C_22
REMARK    7  A    between atoms: C_26  and  O_28
REMARK    8  A    between atoms: O_28  and  C_29
REMARK    9  A    between atoms: C_30  and  O_32
REMARK   10  A    between atoms: O_32  and  C_33
REMARK   11  A    between atoms: C_36  and  C_37
REMARK   12  A    between atoms: C_39  and  C_41
REMARK   13  A    between atoms: C_42  and  O_44
REMARK                            x       y       z     vdW  Elec       q    Type
REMARK                         _______ _______ _______ _____ _____    ______ ____
ROOT
ATOM      1  C   UNL     1       4.247   2.318  26.694  0.00  0.00    +0.147 C 
ATOM      2  C   UNL     1       4.587   0.399  26.493  0.00  0.00    +0.150 C 
ATOM      3  C   UNL     1       4.101  -1.494  26.150  0.00  0.00    +0.040 C 
ATOM      4  C   UNL     1       5.402  -2.417  26.147  0.00  0.00    +0.014 C 
ATOM      5  C   UNL     1       3.058  -2.860  25.361  0.00  0.00    -0.019 C 
ATOM      6  C   UNL     1       3.134  -4.199  24.695  0.00  0.00    -0.033 C 
ATOM      7  C   UNL     1       1.878  -5.302  24.538  0.00  0.00    +0.042 C 
ATOM      8  C   UNL     1       4.279  -5.258  24.095  0.00  0.00    +0.236 C 
ATOM      9  C   UNL     1       5.286  -5.169  22.886  0.00  0.00    +0.186 C 
ATOM     10  C   UNL     1       5.285  -3.727  22.559  0.00  0.00    +0.008 C 
ATOM     11  C   UNL     1       6.345  -2.946  22.635  0.00  0.00    -0.001 C 
ATOM     12  C   UNL     1       6.191  -1.571  23.013  0.00  0.00    +0.008 C 
ATOM     13  C   UNL     1       7.262  -0.759  23.034  0.00  0.00    +0.012 C 
ATOM     14  C   UNL     1       8.623  -1.200  22.622  0.00  0.00    +0.049 C 
ATOM     15  C   UNL     1       7.142   0.680  23.486  0.00  0.00    +0.244 C 
ATOM     16  O   UNL     1       6.100   1.241  23.789  0.00  0.00    -0.270 OA
ATOM     17  N   UNL     1       8.412   1.254  23.411  0.00  0.00    -0.279 N 
ATOM     18  H   UNL     1       9.085   0.855  22.800  0.00  0.00    +0.155 HD
ATOM     19  C   UNL     1       8.849   2.397  23.961  0.00  0.00    +0.085 C 
ATOM     20  C   UNL     1       8.117   3.005  25.030  0.00  0.00    +0.207 C 
ATOM     21  O   UNL     1       7.763   2.392  26.024  0.00  0.00    -0.286 OA
ATOM     22  C   UNL     1       7.838   4.413  24.715  0.00  0.00    +0.047 C 
ATOM     23  C   UNL     1       8.854   5.192  24.284  0.00  0.00    +0.173 C 
ATOM     24  C   UNL     1      10.104   4.442  23.886  0.00  0.00    +0.222 C 
ATOM     25  O   UNL     1      11.217   4.965  23.716  0.00  0.00    -0.284 OA
ATOM     26  C   UNL     1       6.467   4.772  25.076  0.00  0.00    +0.046 C 
ATOM     27  C   UNL     1       6.378   4.874  26.595  0.00  0.00    -0.007 C 
ATOM     28  C   UNL     1       7.682   5.348  27.375  0.00  0.00    +0.008 C 
ATOM     29  C   UNL     1       9.916   3.036  23.493  0.00  0.00    +0.081 C 
ATOM     30  C   UNL     1       5.523   3.537  27.137  0.00  0.00    +0.037 C 
ENDROOT
BRANCH   1  32
ATOM     31  C   UNL     1       2.141   1.942  28.382  0.00  0.00    +0.194 C 
ATOM     32  O   UNL     1       3.136   2.881  27.674  0.00  0.00    -0.377 OA
ENDBRANCH   1  32
BRANCH   2  33
ATOM     33  O   UNL     1       5.532   0.233  27.605  0.00  0.00    -0.389 OA
ATOM     34  H   UNL     1       4.998  -0.105  28.351  0.00  0.00    +0.210 HD
ENDBRANCH   2  33
BRANCH   9  35
ATOM     35  O   UNL     1       6.469  -5.837  23.327  0.00  0.00    -0.372 OA
ATOM     36  C   UNL     1       7.369  -6.402  22.406  0.00  0.00    +0.195 C 
ENDBRANCH   9  35
BRANCH  23  37
ATOM     37  O   UNL     1       8.705   6.566  24.270  0.00  0.00    -0.491 OA
ATOM     38  C   UNL     1       8.027   7.102  23.138  0.00  0.00    +0.277 C 
ENDBRANCH  23  37
BRANCH   8  39
ATOM     39  O   UNL     1       4.735  -5.945  25.228  0.00  0.00    -0.440 OA
BRANCH  39  40
ATOM     40  C   UNL     1       4.193  -7.215  25.546  0.00  0.00    +0.398 C 
ATOM     41  O   UNL     1       3.590  -7.964  24.767  0.00  0.00    -0.227 OA
ATOM     42  N   UNL     1       4.360  -7.440  26.848  0.00  0.00    -0.295 N 
ATOM     43  H   UNL     1       3.910  -8.223  27.318  0.00  0.00    +0.148 HD
ATOM     44  H   UNL     1       4.720  -6.695  27.430  0.00  0.00    +0.148 HD
ENDBRANCH  39  40
ENDBRANCH   8  39
TORSDOF 6
ENDMDL
MODEL 3
REMARK VINA RESULT:      -7.0      2.611      5.217
REMARK  Name = 
REMARK  13 active torsions:
REMARK  status: ('A' for Active; 'I' for Inactive)
REMARK    1  A    between atoms: C_1  and  O_2
REMARK    2  A    between atoms: O_2  and  C_3
REMARK    3  A    between atoms: C_6  and  C_8
REMARK    4  A    between atoms: C_11  and  O_12
REMARK    5  A    between atoms: O_12  and  C_13
REMARK    6  A    between atoms: C_21  and  C_22
REMARK    7  A    between atoms: C_26  and  O_28
REMARK    8  A    between atoms: O_28  and  C_29
REMARK    9  A    between atoms: C_30  and  O_32
REMARK   10  A    between atoms: O_32  and  C_33
REMARK   11  A    between atoms: C_36  and  C_37
REMARK   12  A    between atoms: C_39  and  C_41
REMARK   13  A    between atoms: C_42  and  O_44
REMARK                            x       y       z     vdW  Elec       q    Type
REMARK                         _______ _______ _______ _____ _____    ______ ____
ROOT
ATOM      1  C   UNL     1       8.991  -2.308  24.780  0.00  0.00    +0.147 C 
ATOM      2  C   UNL     1       7.206  -2.573  25.542  0.00  0.00    +0.150 C 
ATOM      3  C   UNL     1       5.861  -3.404  26.741  0.00  0.00    +0.040 C 
ATOM      4  C   UNL     1       4.445  -2.687  26.579  0.00  0.00    +0.014 C 
ATOM      5  C   UNL     1       5.311  -4.262  28.334  0.00  0.00    -0.019 C 
ATOM      6  C   UNL     1       4.229  -4.299  29.369  0.00  0.00    -0.033 C 
ATOM      7  C   UNL     1       3.902  -5.569  30.417  0.00  0.00    +0.042 C 
ATOM      8  C   UNL     1       2.870  -3.438  29.819  0.00  0.00    +0.236 C 
ATOM      9  C   UNL     1       2.668  -1.986  30.397  0.00  0.00    +0.186 C 
ATOM     10  C   UNL     1       3.968  -1.337  30.122  0.00  0.00    +0.008 C 
ATOM     11  C   UNL     1       4.124  -0.285  29.342  0.00  0.00    -0.001 C 
ATOM     12  C   UNL     1       5.322  -0.147  28.564  0.00  0.00    +0.008 C 
ATOM     13  C   UNL     1       5.509   0.952  27.813  0.00  0.00    +0.012 C 
ATOM     14  C   UNL     1       4.548   2.089  27.785  0.00  0.00    +0.049 C 
ATOM     15  C   UNL     1       6.732   1.099  26.936  0.00  0.00    +0.244 C 
ATOM     16  O   UNL     1       7.663   0.309  26.882  0.00  0.00    -0.270 OA
ATOM     17  N   UNL     1       6.635   2.325  26.277  0.00  0.00    -0.279 N 
ATOM     18  H   UNL     1       6.071   3.041  26.672  0.00  0.00    +0.155 HD
ATOM     19  C   UNL     1       7.322   2.760  25.209  0.00  0.00    +0.085 C 
ATOM     20  C   UNL     1       8.018   1.828  24.375  0.00  0.00    +0.207 C 
ATOM     21  O   UNL     1       7.491   0.827  23.917  0.00  0.00    -0.286 OA
ATOM     22  C   UNL     1       9.418   2.242  24.214  0.00  0.00    +0.047 C 
ATOM     23  C   UNL     1       9.678   3.523  23.875  0.00  0.00    +0.173 C 
ATOM     24  C   UNL     1       8.501   4.464  23.997  0.00  0.00    +0.222 C 
ATOM     25  O   UNL     1       8.451   5.600  23.499  0.00  0.00    -0.284 OA
ATOM     26  C   UNL     1      10.322   1.097  24.319  0.00  0.00    +0.046 C 
ATOM     27  C   UNL     1      10.198   0.266  23.046  0.00  0.00    -0.007 C 
ATOM     28  C   UNL     1       9.856   1.039  21.697  0.00  0.00    +0.008 C 
ATOM     29  C   UNL     1       7.443   4.055  24.935  0.00  0.00    +0.081 C 
ATOM     30  C   UNL     1       9.361  -1.133  23.440  0.00  0.00    +0.037 C 
ENDROOT
BRANCH   1  32
ATOM     31  C   UNL     1       9.908  -4.871  24.896  0.00  0.00    +0.194 C 
ATOM     32  O   UNL     1       9.843  -3.505  24.187  0.00  0.00    -0.377 OA
ENDBRANCH   1  32
BRANCH   2  33
ATOM     33  O   UNL     1       6.428  -2.468  24.302  0.00  0.00    -0.389 OA
ATOM     34  H   UNL     1       6.284  -3.389  24.007  0.00  0.00    +0.210 HD
ENDBRANCH   2  33
BRANCH   9  35
ATOM     35  O   UNL     1       1.455  -1.510  29.813  0.00  0.00    -0.372 OA
ATOM     36  C   UNL     1       0.668  -0.540  30.462  0.00  0.00    +0.195 C 
ENDBRANCH   9  35
BRANCH  23  37
ATOM     37  O   UNL     1      10.938   3.870  23.423  0.00  0.00    -0.491 OA
ATOM     38  C   UNL     1      11.430   5.129  23.873  0.00  0.00    +0.277 C 
ENDBRANCH  23  37
BRANCH   8  39
ATOM     39  O   UNL     1       1.871  -3.902  28.953  0.00  0.00    -0.440 OA
BRANCH  39  40
ATOM     40  C   UNL     1       1.054  -4.993  29.341  0.00  0.00    +0.398 C 
ATOM     41  O   UNL     1       0.868  -6.030  28.692  0.00  0.00    -0.227 OA
ATOM     42  N   UNL     1       0.443  -4.687  30.485  0.00  0.00    -0.295 N 
ATOM     43  H   UNL     1      -0.306  -5.263  30.863  0.00  0.00    +0.148 HD
ATOM     44  H   UNL     1       0.536  -3.749  30.852  0.00  0.00    +0.148 HD
ENDBRANCH  39  40
ENDBRANCH   8  39
TORSDOF 6
ENDMDL
MODEL 4
REMARK VINA RESULT:      -6.9      2.381     10.004
REMARK  Name = 
REMARK  13 active torsions:
REMARK  status: ('A' for Active; 'I' for Inactive)
REMARK    1  A    between atoms: C_1  and  O_2
REMARK    2  A    between atoms: O_2  and  C_3
REMARK    3  A    between atoms: C_6  and  C_8
REMARK    4  A    between atoms: C_11  and  O_12
REMARK    5  A    between atoms: O_12  and  C_13
REMARK    6  A    between atoms: C_21  and  C_22
REMARK    7  A    between atoms: C_26  and  O_28
REMARK    8  A    between atoms: O_28  and  C_29
REMARK    9  A    between atoms: C_30  and  O_32
REMARK   10  A    between atoms: O_32  and  C_33
REMARK   11  A    between atoms: C_36  and  C_37
REMARK   12  A    between atoms: C_39  and  C_41
REMARK   13  A    between atoms: C_42  and  O_44
REMARK                            x       y       z     vdW  Elec       q    Type
REMARK                         _______ _______ _______ _____ _____    ______ ____
ROOT
ATOM      1  C   UNL     1       5.402  -3.170  23.075  0.00  0.00    +0.147 C 
ATOM      2  C   UNL     1       6.400  -1.555  23.555  0.00  0.00    +0.150 C 
ATOM      3  C   UNL     1       7.083   0.290  23.292  0.00  0.00    +0.040 C 
ATOM      4  C   UNL     1       7.895   0.777  24.576  0.00  0.00    +0.014 C 
ATOM      5  C   UNL     1       6.987   2.052  22.610  0.00  0.00    -0.019 C 
ATOM      6  C   UNL     1       7.229   3.489  22.953  0.00  0.00    -0.033 C 
ATOM      7  C   UNL     1       7.441   4.747  21.862  0.00  0.00    +0.042 C 
ATOM      8  C   UNL     1       7.609   4.434  24.278  0.00  0.00    +0.236 C 
ATOM      9  C   UNL     1       6.827   4.781  25.601  0.00  0.00    +0.186 C 
ATOM     10  C   UNL     1       5.755   3.763  25.629  0.00  0.00    +0.008 C 
ATOM     11  C   UNL     1       5.616   2.854  26.574  0.00  0.00    -0.001 C 
ATOM     12  C   UNL     1       5.107   1.554  26.244  0.00  0.00    +0.008 C 
ATOM     13  C   UNL     1       4.910   0.647  27.216  0.00  0.00    +0.012 C 
ATOM     14  C   UNL     1       5.141   0.938  28.657  0.00  0.00    +0.049 C 
ATOM     15  C   UNL     1       4.432  -0.752  26.892  0.00  0.00    +0.244 C 
ATOM     16  O   UNL     1       4.120  -1.153  25.780  0.00  0.00    -0.270 OA
ATOM     17  N   UNL     1       4.338  -1.456  28.093  0.00  0.00    -0.279 N 
ATOM     18  H   UNL     1       4.230  -0.949  28.941  0.00  0.00    +0.155 HD
ATOM     19  C   UNL     1       4.230  -2.779  28.284  0.00  0.00    +0.085 C 
ATOM     20  C   UNL     1       4.571  -3.685  27.230  0.00  0.00    +0.207 C 
ATOM     21  O   UNL     1       5.626  -3.626  26.619  0.00  0.00    -0.286 OA
ATOM     22  C   UNL     1       3.465  -4.623  26.992  0.00  0.00    +0.047 C 
ATOM     23  C   UNL     1       2.914  -5.255  28.051  0.00  0.00    +0.173 C 
ATOM     24  C   UNL     1       3.304  -4.693  29.399  0.00  0.00    +0.222 C 
ATOM     25  O   UNL     1       3.127  -5.272  30.483  0.00  0.00    -0.284 OA
ATOM     26  C   UNL     1       3.238  -4.818  25.561  0.00  0.00    +0.046 C 
ATOM     27  C   UNL     1       4.368  -5.679  25.005  0.00  0.00    -0.007 C 
ATOM     28  C   UNL     1       5.016  -6.755  25.982  0.00  0.00    +0.008 C 
ATOM     29  C   UNL     1       3.740  -3.287  29.410  0.00  0.00    +0.081 C 
ATOM     30  C   UNL     1       5.357  -4.679  24.092  0.00  0.00    +0.037 C 
ENDROOT
BRANCH   1  32
ATOM     31  C   UNL     1       6.795  -4.873  21.468  0.00  0.00    +0.194 C 
ATOM     32  O   UNL     1       5.611  -3.913  21.691  0.00  0.00    -0.377 OA
ENDBRANCH   1  32
BRANCH   2  33
ATOM     33  O   UNL     1       7.591  -2.200  24.121  0.00  0.00    -0.389 OA
ATOM     34  H   UNL     1       8.049  -2.611  23.361  0.00  0.00    +0.210 HD
ENDBRANCH   2  33
BRANCH   9  35
ATOM     35  O   UNL     1       7.822   4.850  26.623  0.00  0.00    -0.372 OA
ATOM     36  C   UNL     1       7.988   6.013  27.397  0.00  0.00    +0.195 C 
ENDBRANCH   9  35
BRANCH  23  37
ATOM     37  O   UNL     1       2.095  -6.350  27.846  0.00  0.00    -0.491 OA
ATOM     38  C   UNL     1       0.714  -6.148  28.125  0.00  0.00    +0.277 C 
ENDBRANCH  23  37
BRANCH   8  39
ATOM     39  O   UNL     1       9.000   4.311  24.397  0.00  0.00    -0.440 OA
BRANCH  39  40
ATOM     40  C   UNL     1       9.839   5.373  23.979  0.00  0.00    +0.398 C 
ATOM     41  O   UNL     1       9.572   6.580  24.042  0.00  0.00    -0.227 OA
ATOM     42  N   UNL     1      10.935   4.861  23.421  0.00  0.00    -0.295 N 
ATOM     43  H   UNL     1      11.600   5.442  22.915  0.00  0.00    +0.148 HD
ATOM     44  H   UNL     1      10.986   3.862  23.271  0.00  0.00    +0.148 HD
ENDBRANCH  39  40
ENDBRANCH   8  39
TORSDOF 6
ENDMDL
MODEL 5
REMARK VINA RESULT:      -6.8      2.214      9.299
REMARK  Name = 
REMARK  13 active torsions:
REMARK  status: ('A' for Active; 'I' for Inactive)
REMARK    1  A    between atoms: C_1  and  O_2
REMARK    2  A    between atoms: O_2  and  C_3
REMARK    3  A    between atoms: C_6  and  C_8
REMARK    4  A    between atoms: C_11  and  O_12
REMARK    5  A    between atoms: O_12  and  C_13
REMARK    6  A    between atoms: C_21  and  C_22
REMARK    7  A    between atoms: C_26  and  O_28
REMARK    8  A    between atoms: O_28  and  C_29
REMARK    9  A    between atoms: C_30  and  O_32
REMARK   10  A    between atoms: O_32  and  C_33
REMARK   11  A    between atoms: C_36  and  C_37
REMARK   12  A    between atoms: C_39  and  C_41
REMARK   13  A    between atoms: C_42  and  O_44
REMARK                            x       y       z     vdW  Elec       q    Type
REMARK                         _______ _______ _______ _____ _____    ______ ____
ROOT
ATOM      1  C   UNL     1       3.246  -0.347  28.750  0.00  0.00    +0.147 C 
ATOM      2  C   UNL     1       4.096   0.737  27.358  0.00  0.00    +0.150 C 
ATOM      3  C   UNL     1       5.167   2.252  26.651  0.00  0.00    +0.040 C 
ATOM      4  C   UNL     1       5.355   2.118  25.073  0.00  0.00    +0.014 C 
ATOM      5  C   UNL     1       6.521   3.567  26.761  0.00  0.00    -0.019 C 
ATOM      6  C   UNL     1       7.619   4.231  25.989  0.00  0.00    -0.033 C 
ATOM      7  C   UNL     1       8.318   5.717  26.338  0.00  0.00    +0.042 C 
ATOM      8  C   UNL     1       8.426   4.074  24.535  0.00  0.00    +0.236 C 
ATOM      9  C   UNL     1       9.389   2.966  23.962  0.00  0.00    +0.186 C 
ATOM     10  C   UNL     1       9.160   1.825  24.874  0.00  0.00    +0.008 C 
ATOM     11  C   UNL     1       8.678   0.657  24.498  0.00  0.00    -0.001 C 
ATOM     12  C   UNL     1       7.841  -0.090  25.393  0.00  0.00    +0.008 C 
ATOM     13  C   UNL     1       7.397  -1.307  25.034  0.00  0.00    +0.012 C 
ATOM     14  C   UNL     1       7.777  -1.965  23.754  0.00  0.00    +0.049 C 
ATOM     15  C   UNL     1       6.464  -2.092  25.930  0.00  0.00    +0.244 C 
ATOM     16  O   UNL     1       6.102  -1.751  27.046  0.00  0.00    -0.270 OA
ATOM     17  N   UNL     1       6.171  -3.295  25.285  0.00  0.00    -0.279 N 
ATOM     18  H   UNL     1       6.802  -3.639  24.599  0.00  0.00    +0.155 HD
ATOM     19  C   UNL     1       5.192  -4.172  25.552  0.00  0.00    +0.085 C 
ATOM     20  C   UNL     1       4.069  -3.776  26.345  0.00  0.00    +0.207 C 
ATOM     21  O   UNL     1       3.420  -2.768  26.118  0.00  0.00    -0.286 OA
ATOM     22  C   UNL     1       3.875  -4.720  27.454  0.00  0.00    +0.047 C 
ATOM     23  C   UNL     1       3.865  -6.043  27.181  0.00  0.00    +0.173 C 
ATOM     24  C   UNL     1       4.360  -6.410  25.801  0.00  0.00    +0.222 C 
ATOM     25  O   UNL     1       4.193  -7.517  25.262  0.00  0.00    -0.284 OA
ATOM     26  C   UNL     1       3.572  -4.016  28.699  0.00  0.00    +0.046 C 
ATOM     27  C   UNL     1       2.144  -3.486  28.620  0.00  0.00    -0.007 C 
ATOM     28  C   UNL     1       1.096  -4.330  27.770  0.00  0.00    +0.008 C 
ATOM     29  C   UNL     1       5.262  -5.440  25.160  0.00  0.00    +0.081 C 
ATOM     30  C   UNL     1       2.238  -1.824  28.416  0.00  0.00    +0.037 C 
ENDROOT
BRANCH   1  32
ATOM     31  C   UNL     1       2.544   1.656  30.459  0.00  0.00    +0.194 C 
ATOM     32  O   UNL     1       2.266   0.279  29.827  0.00  0.00    -0.377 OA
ENDBRANCH   1  32
BRANCH   2  33
ATOM     33  O   UNL     1       3.021   0.685  26.360  0.00  0.00    -0.389 OA
ATOM     34  H   UNL     1       2.820   1.617  26.146  0.00  0.00    +0.210 HD
ENDBRANCH   2  33
BRANCH   9  35
ATOM     35  O   UNL     1       9.088   2.884  22.569  0.00  0.00    -0.372 OA
ATOM     36  C   UNL     1       9.674   1.896  21.757  0.00  0.00    +0.195 C 
ENDBRANCH   9  35
BRANCH  23  37
ATOM     37  O   UNL     1       3.390  -6.934  28.126  0.00  0.00    -0.491 OA
ATOM     38  C   UNL     1       4.232  -7.142  29.255  0.00  0.00    +0.277 C 
ENDBRANCH  23  37
BRANCH   8  39
ATOM     39  O   UNL     1       7.580   4.696  23.607  0.00  0.00    -0.440 OA
BRANCH  39  40
ATOM     40  C   UNL     1       8.069   5.762  22.812  0.00  0.00    +0.398 C 
ATOM     41  O   UNL     1       8.781   6.694  23.204  0.00  0.00    -0.227 OA
ATOM     42  N   UNL     1       7.565   5.649  21.584  0.00  0.00    -0.295 N 
ATOM     43  H   UNL     1       7.662   6.392  20.895  0.00  0.00    +0.148 HD
ATOM     44  H   UNL     1       6.863   4.942  21.407  0.00  0.00    +0.148 HD
ENDBRANCH  39  40
ENDBRANCH   8  39
TORSDOF 6
ENDMDL
MODEL 6
REMARK VINA RESULT:      -6.5      2.195      4.793
REMARK  Name = 
REMARK  13 active torsions:
REMARK  status: ('A' for Active; 'I' for Inactive)
REMARK    1  A    between atoms: C_1  and  O_2
REMARK    2  A    between atoms: O_2  and  C_3
REMARK    3  A    between atoms: C_6  and  C_8
REMARK    4  A    between atoms: C_11  and  O_12
REMARK    5  A    between atoms: O_12  and  C_13
REMARK    6  A    between atoms: C_21  and  C_22
REMARK    7  A    between atoms: C_26  and  O_28
REMARK    8  A    between atoms: O_28  and  C_29
REMARK    9  A    between atoms: C_30  and  O_32
REMARK   10  A    between atoms: O_32  and  C_33
REMARK   11  A    between atoms: C_36  and  C_37
REMARK   12  A    between atoms: C_39  and  C_41
REMARK   13  A    between atoms: C_42  and  O_44
REMARK                            x       y       z     vdW  Elec       q    Type
REMARK                         _______ _______ _______ _____ _____    ______ ____
ROOT
ATOM      1  C   UNL     1       8.665   0.184  23.954  0.00  0.00    +0.147 C 
ATOM      2  C   UNL     1       7.219  -1.107  24.239  0.00  0.00    +0.150 C 
ATOM      3  C   UNL     1       6.423  -2.824  24.838  0.00  0.00    +0.040 C 
ATOM      4  C   UNL     1       4.841  -2.809  24.639  0.00  0.00    +0.014 C 
ATOM      5  C   UNL     1       6.330  -4.353  25.947  0.00  0.00    -0.019 C 
ATOM      6  C   UNL     1       5.384  -5.243  26.692  0.00  0.00    -0.033 C 
ATOM      7  C   UNL     1       5.694  -6.809  27.208  0.00  0.00    +0.042 C 
ATOM      8  C   UNL     1       3.770  -5.309  27.118  0.00  0.00    +0.236 C 
ATOM      9  C   UNL     1       2.879  -4.423  28.070  0.00  0.00    +0.186 C 
ATOM     10  C   UNL     1       3.706  -3.213  28.266  0.00  0.00    +0.008 C 
ATOM     11  C   UNL     1       3.348  -1.999  27.898  0.00  0.00    -0.001 C 
ATOM     12  C   UNL     1       4.342  -1.068  27.446  0.00  0.00    +0.008 C 
ATOM     13  C   UNL     1       3.986   0.187  27.127  0.00  0.00    +0.012 C 
ATOM     14  C   UNL     1       2.595   0.699  27.270  0.00  0.00    +0.049 C 
ATOM     15  C   UNL     1       5.001   1.174  26.590  0.00  0.00    +0.244 C 
ATOM     16  O   UNL     1       6.198   0.962  26.473  0.00  0.00    -0.270 OA
ATOM     17  N   UNL     1       4.333   2.373  26.340  0.00  0.00    -0.279 N 
ATOM     18  H   UNL     1       3.486   2.563  26.823  0.00  0.00    +0.155 HD
ATOM     19  C   UNL     1       4.742   3.425  25.615  0.00  0.00    +0.085 C 
ATOM     20  C   UNL     1       5.817   3.278  24.681  0.00  0.00    +0.207 C 
ATOM     21  O   UNL     1       5.850   2.393  23.842  0.00  0.00    -0.286 OA
ATOM     22  C   UNL     1       6.844   4.299  24.928  0.00  0.00    +0.047 C 
ATOM     23  C   UNL     1       6.456   5.586  25.062  0.00  0.00    +0.173 C 
ATOM     24  C   UNL     1       4.969   5.786  25.243  0.00  0.00    +0.222 C 
ATOM     25  O   UNL     1       4.384   6.875  25.125  0.00  0.00    -0.284 OA
ATOM     26  C   UNL     1       8.187   3.727  24.842  0.00  0.00    +0.046 C 
ATOM     27  C   UNL     1       8.504   3.458  23.375  0.00  0.00    -0.007 C 
ATOM     28  C   UNL     1       7.855   4.431  22.295  0.00  0.00    +0.008 C 
ATOM     29  C   UNL     1       4.226   4.638  25.786  0.00  0.00    +0.081 C 
ATOM     30  C   UNL     1       8.444   1.798  23.145  0.00  0.00    +0.037 C 
ENDROOT
BRANCH   1  32
ATOM     31  C   UNL     1      10.072  -1.428  22.267  0.00  0.00    +0.194 C 
ATOM     32  O   UNL     1      10.001  -0.199  23.193  0.00  0.00    -0.377 OA
ENDBRANCH   1  32
BRANCH   2  33
ATOM     33  O   UNL     1       6.509  -0.915  22.968  0.00  0.00    -0.389 OA
ATOM     34  H   UNL     1       6.598  -1.763  22.491  0.00  0.00    +0.210 HD
ENDBRANCH   2  33
BRANCH   9  35
ATOM     35  O   UNL     1       1.598  -4.362  27.442  0.00  0.00    -0.372 OA
ATOM     36  C   UNL     1       0.443  -4.817  28.105  0.00  0.00    +0.195 C 
ENDBRANCH   9  35
BRANCH  23  37
ATOM     37  O   UNL     1       7.398   6.596  24.992  0.00  0.00    -0.491 OA
ATOM     38  C   UNL     1       7.874   7.084  26.242  0.00  0.00    +0.277 C 
ENDBRANCH  23  37
BRANCH   8  39
ATOM     39  O   UNL     1       3.136  -5.817  25.976  0.00  0.00    -0.440 OA
BRANCH  39  40
ATOM     40  C   UNL     1       2.947  -7.214  25.839  0.00  0.00    +0.398 C 
ATOM     41  O   UNL     1       3.352  -7.915  24.903  0.00  0.00    -0.227 OA
ATOM     42  N   UNL     1       2.184  -7.645  26.842  0.00  0.00    -0.295 N 
ATOM     43  H   UNL     1       1.797  -8.587  26.854  0.00  0.00    +0.148 HD
ATOM     44  H   UNL     1       1.770  -6.966  27.467  0.00  0.00    +0.148 HD
ENDBRANCH  39  40
ENDBRANCH   8  39
TORSDOF 6
ENDMDL
MODEL 7
REMARK VINA RESULT:      -6.1      2.391     10.064
REMARK  Name = 
REMARK  13 active torsions:
REMARK  status: ('A' for Active; 'I' for Inactive)
REMARK    1  A    between atoms: C_1  and  O_2
REMARK    2  A    between atoms: O_2  and  C_3
REMARK    3  A    between atoms: C_6  and  C_8
REMARK    4  A    between atoms: C_11  and  O_12
REMARK    5  A    between atoms: O_12  and  C_13
REMARK    6  A    between atoms: C_21  and  C_22
REMARK    7  A    between atoms: C_26  and  O_28
REMARK    8  A    between atoms: O_28  and  C_29
REMARK    9  A    between atoms: C_30  and  O_32
REMARK   10  A    between atoms: O_32  and  C_33
REMARK   11  A    between atoms: C_36  and  C_37
REMARK   12  A    between atoms: C_39  and  C_41
REMARK   13  A    between atoms: C_42  and  O_44
REMARK                            x       y       z     vdW  Elec       q    Type
REMARK                         _______ _______ _______ _____ _____    ______ ____
ROOT
ATOM      1  C   UNL     1       7.633  -4.489  25.612  0.00  0.00    +0.147 C 
ATOM      2  C   UNL     1       8.121  -2.592  25.564  0.00  0.00    +0.150 C 
ATOM      3  C   UNL     1       8.851  -0.936  24.750  0.00  0.00    +0.040 C 
ATOM      4  C   UNL     1       8.656   0.306  25.732  0.00  0.00    +0.014 C 
ATOM      5  C   UNL     1       9.254   0.202  23.294  0.00  0.00    -0.019 C 
ATOM      6  C   UNL     1       9.248   1.631  22.847  0.00  0.00    -0.033 C 
ATOM      7  C   UNL     1      10.138   2.277  21.579  0.00  0.00    +0.042 C 
ATOM      8  C   UNL     1       8.705   3.124  23.366  0.00  0.00    +0.236 C 
ATOM      9  C   UNL     1       7.262   3.720  23.581  0.00  0.00    +0.186 C 
ATOM     10  C   UNL     1       6.403   2.516  23.578  0.00  0.00    +0.008 C 
ATOM     11  C   UNL     1       5.669   2.123  24.600  0.00  0.00    -0.001 C 
ATOM     12  C   UNL     1       5.466   0.722  24.834  0.00  0.00    +0.008 C 
ATOM     13  C   UNL     1       4.671   0.321  25.840  0.00  0.00    +0.012 C 
ATOM     14  C   UNL     1       3.925   1.268  26.713  0.00  0.00    +0.049 C 
ATOM     15  C   UNL     1       4.485  -1.149  26.150  0.00  0.00    +0.244 C 
ATOM     16  O   UNL     1       4.953  -2.073  25.501  0.00  0.00    -0.270 OA
ATOM     17  N   UNL     1       3.625  -1.245  27.244  0.00  0.00    -0.279 N 
ATOM     18  H   UNL     1       3.007  -0.492  27.439  0.00  0.00    +0.155 HD
ATOM     19  C   UNL     1       3.392  -2.302  28.038  0.00  0.00    +0.085 C 
ATOM     20  C   UNL     1       4.312  -3.397  28.061  0.00  0.00    +0.207 C 
ATOM     21  O   UNL     1       5.514  -3.251  28.219  0.00  0.00    -0.286 OA
ATOM     22  C   UNL     1       3.600  -4.661  27.827  0.00  0.00    +0.047 C 
ATOM     23  C   UNL     1       2.484  -4.916  28.544  0.00  0.00    +0.173 C 
ATOM     24  C   UNL     1       1.927  -3.728  29.294  0.00  0.00    +0.222 C 
ATOM     25  O   UNL     1       1.081  -3.800  30.201  0.00  0.00    -0.284 OA
ATOM     26  C   UNL     1       4.344  -5.523  26.909  0.00  0.00    +0.046 C 
ATOM     27  C   UNL     1       5.548  -6.094  27.652  0.00  0.00    -0.007 C 
ATOM     28  C   UNL     1       5.393  -6.343  29.216  0.00  0.00    +0.008 C 
ATOM     29  C   UNL     1       2.282  -2.403  28.762  0.00  0.00    +0.081 C 
ATOM     30  C   UNL     1       6.913  -5.318  27.062  0.00  0.00    +0.037 C 
ENDROOT
BRANCH   1  32
ATOM     31  C   UNL     1      10.187  -5.409  25.386  0.00  0.00    +0.194 C 
ATOM     32  O   UNL     1       8.669  -5.637  25.265  0.00  0.00    -0.377 OA
ENDBRANCH   1  32
BRANCH   2  33
ATOM     33  O   UNL     1       8.655  -2.475  26.927  0.00  0.00    -0.389 OA
ATOM     34  H   UNL     1       7.922  -2.109  27.462  0.00  0.00    +0.210 HD
ENDBRANCH   2  33
BRANCH   9  35
ATOM     35  O   UNL     1       7.367   4.562  24.729  0.00  0.00    -0.372 OA
ATOM     36  C   UNL     1       6.612   5.745  24.832  0.00  0.00    +0.195 C 
ENDBRANCH   9  35
BRANCH  23  37
ATOM     37  O   UNL     1       1.967  -6.198  28.574  0.00  0.00    -0.491 OA
ATOM     38  C   UNL     1       0.811  -6.416  27.771  0.00  0.00    +0.277 C 
ENDBRANCH  23  37
BRANCH   8  39
ATOM     39  O   UNL     1       9.690   3.550  24.267  0.00  0.00    -0.440 OA
BRANCH  39  40
ATOM     40  C   UNL     1      10.651   4.508  23.858  0.00  0.00    +0.398 C 
ATOM     41  O   UNL     1      11.814   4.270  23.513  0.00  0.00    -0.227 OA
ATOM     42  N   UNL     1      10.126   5.725  23.989  0.00  0.00    -0.295 N 
ATOM     43  H   UNL     1      10.693   6.566  23.898  0.00  0.00    +0.148 HD
ATOM     44  H   UNL     1       9.222   5.823  24.433  0.00  0.00    +0.148 HD
ENDBRANCH  39  40
ENDBRANCH   8  39
TORSDOF 6
ENDMDL
MODEL 8
REMARK VINA RESULT:      -6.1      2.404      9.722
REMARK  Name = 
REMARK  13 active torsions:
REMARK  status: ('A' for Active; 'I' for Inactive)
REMARK    1  A    between atoms: C_1  and  O_2
REMARK    2  A    between atoms: O_2  and  C_3
REMARK    3  A    between atoms: C_6  and  C_8
REMARK    4  A    between atoms: C_11  and  O_12
REMARK    5  A    between atoms: O_12  and  C_13
REMARK    6  A    between atoms: C_21  and  C_22
REMARK    7  A    between atoms: C_26  and  O_28
REMARK    8  A    between atoms: O_28  and  C_29
REMARK    9  A    between atoms: C_30  and  O_32
REMARK   10  A    between atoms: O_32  and  C_33
REMARK   11  A    between atoms: C_36  and  C_37
REMARK   12  A    between atoms: C_39  and  C_41
REMARK   13  A    between atoms: C_42  and  O_44
REMARK                            x       y       z     vdW  Elec       q    Type
REMARK                         _______ _______ _______ _____ _____    ______ ____
ROOT
ATOM      1  C   UNL     1       8.440  -1.732  23.367  0.00  0.00    +0.147 C 
ATOM      2  C   UNL     1       8.317   0.129  23.965  0.00  0.00    +0.150 C 
ATOM      3  C   UNL     1       8.182   2.095  23.731  0.00  0.00    +0.040 C 
ATOM      4  C   UNL     1       8.037   2.821  25.144  0.00  0.00    +0.014 C 
ATOM      5  C   UNL     1       7.658   3.660  22.807  0.00  0.00    -0.019 C 
ATOM      6  C   UNL     1       7.080   5.029  22.991  0.00  0.00    -0.033 C 
ATOM      7  C   UNL     1       7.195   6.308  21.910  0.00  0.00    +0.042 C 
ATOM      8  C   UNL     1       6.381   5.964  24.187  0.00  0.00    +0.236 C 
ATOM      9  C   UNL     1       5.026   5.843  24.983  0.00  0.00    +0.186 C 
ATOM     10  C   UNL     1       4.608   4.450  24.713  0.00  0.00    +0.008 C 
ATOM     11  C   UNL     1       4.464   3.524  25.640  0.00  0.00    -0.001 C 
ATOM     12  C   UNL     1       4.769   2.156  25.333  0.00  0.00    +0.008 C 
ATOM     13  C   UNL     1       4.568   1.202  26.258  0.00  0.00    +0.012 C 
ATOM     14  C   UNL     1       3.979   1.481  27.597  0.00  0.00    +0.049 C 
ATOM     15  C   UNL     1       4.936  -0.240  25.985  0.00  0.00    +0.244 C 
ATOM     16  O   UNL     1       5.359  -0.673  24.924  0.00  0.00    -0.270 OA
ATOM     17  N   UNL     1       4.625  -0.979  27.127  0.00  0.00    -0.279 N 
ATOM     18  H   UNL     1       3.945  -0.627  27.759  0.00  0.00    +0.155 HD
ATOM     19  C   UNL     1       5.022  -2.217  27.458  0.00  0.00    +0.085 C 
ATOM     20  C   UNL     1       6.149  -2.809  26.803  0.00  0.00    +0.207 C 
ATOM     21  O   UNL     1       7.225  -2.244  26.696  0.00  0.00    -0.286 OA
ATOM     22  C   UNL     1       5.788  -4.129  26.269  0.00  0.00    +0.047 C 
ATOM     23  C   UNL     1       5.152  -5.002  27.080  0.00  0.00    +0.173 C 
ATOM     24  C   UNL     1       4.615  -4.404  28.360  0.00  0.00    +0.222 C 
ATOM     25  O   UNL     1       4.238  -5.063  29.344  0.00  0.00    -0.284 OA
ATOM     26  C   UNL     1       6.333  -4.322  24.926  0.00  0.00    +0.046 C 
ATOM     27  C   UNL     1       7.837  -4.545  25.043  0.00  0.00    -0.007 C 
ATOM     28  C   UNL     1       8.370  -5.267  26.358  0.00  0.00    +0.008 C 
ATOM     29  C   UNL     1       4.351  -2.957  28.335  0.00  0.00    +0.081 C 
ATOM     30  C   UNL     1       8.595  -3.154  24.491  0.00  0.00    +0.037 C 
ENDROOT
BRANCH   1  32
ATOM     31  C   UNL     1      10.909  -1.516  22.235  0.00  0.00    +0.194 C 
ATOM     32  O   UNL     1       9.541  -2.217  22.336  0.00  0.00    -0.377 OA
ENDBRANCH   1  32
BRANCH   2  33
ATOM     33  O   UNL     1       9.276   0.059  25.075  0.00  0.00    -0.389 OA
ATOM     34  H   UNL     1       9.023  -0.735  25.586  0.00  0.00    +0.210 HD
ENDBRANCH   2  33
BRANCH   9  35
ATOM     35  O   UNL     1       5.321   6.294  26.305  0.00  0.00    -0.372 OA
ATOM     36  C   UNL     1       4.395   7.063  27.033  0.00  0.00    +0.195 C 
ENDBRANCH   9  35
BRANCH  23  37
ATOM     37  O   UNL     1       5.069  -6.335  26.721  0.00  0.00    -0.491 OA
ATOM     38  C   UNL     1       3.807  -6.762  26.220  0.00  0.00    +0.277 C 
ENDBRANCH  23  37
BRANCH   8  39
ATOM     39  O   UNL     1       7.473   6.476  24.901  0.00  0.00    -0.440 OA
BRANCH  39  40
ATOM     40  C   UNL     1       8.277   5.604  25.676  0.00  0.00    +0.398 C 
ATOM     41  O   UNL     1       7.914   4.980  26.681  0.00  0.00    -0.227 OA
ATOM     42  N   UNL     1       9.521   5.631  25.200  0.00  0.00    -0.295 N 
ATOM     43  H   UNL     1      10.295   5.198  25.700  0.00  0.00    +0.148 HD
ATOM     44  H   UNL     1       9.753   6.298  24.476  0.00  0.00    +0.148 HD
ENDBRANCH  39  40
ENDBRANCH   8  39
TORSDOF 6
ENDMDL
MODEL 9
REMARK VINA RESULT:      -5.5      2.447      9.583
REMARK  Name = 
REMARK  13 active torsions:
REMARK  status: ('A' for Active; 'I' for Inactive)
REMARK    1  A    between atoms: C_1  and  O_2
REMARK    2  A    between atoms: O_2  and  C_3
REMARK    3  A    between atoms: C_6  and  C_8
REMARK    4  A    between atoms: C_11  and  O_12
REMARK    5  A    between atoms: O_12  and  C_13
REMARK    6  A    between atoms: C_21  and  C_22
REMARK    7  A    between atoms: C_26  and  O_28
REMARK    8  A    between atoms: O_28  and  C_29
REMARK    9  A    between atoms: C_30  and  O_32
REMARK   10  A    between atoms: O_32  and  C_33
REMARK   11  A    between atoms: C_36  and  C_37
REMARK   12  A    between atoms: C_39  and  C_41
REMARK   13  A    between atoms: C_42  and  O_44
REMARK                            x       y       z     vdW  Elec       q    Type
REMARK                         _______ _______ _______ _____ _____    ______ ____
ROOT
ATOM      1  C   UNL     1       8.652  -0.772  23.826  0.00  0.00    +0.147 C 
ATOM      2  C   UNL     1       8.182   0.946  24.643  0.00  0.00    +0.150 C 
ATOM      3  C   UNL     1       7.742   2.881  24.650  0.00  0.00    +0.040 C 
ATOM      4  C   UNL     1       7.378   3.369  26.124  0.00  0.00    +0.014 C 
ATOM      5  C   UNL     1       7.035   4.461  23.888  0.00  0.00    -0.019 C 
ATOM      6  C   UNL     1       6.227   5.685  24.190  0.00  0.00    -0.033 C 
ATOM      7  C   UNL     1       6.208   7.106  23.297  0.00  0.00    +0.042 C 
ATOM      8  C   UNL     1       5.300   6.324  25.425  0.00  0.00    +0.236 C 
ATOM      9  C   UNL     1       3.930   5.885  26.068  0.00  0.00    +0.186 C 
ATOM     10  C   UNL     1       3.767   4.497  25.585  0.00  0.00    +0.008 C 
ATOM     11  C   UNL     1       3.712   3.438  26.368  0.00  0.00    -0.001 C 
ATOM     12  C   UNL     1       4.260   2.190  25.919  0.00  0.00    +0.008 C 
ATOM     13  C   UNL     1       4.152   1.096  26.692  0.00  0.00    +0.012 C 
ATOM     14  C   UNL     1       3.431   1.090  27.995  0.00  0.00    +0.049 C 
ATOM     15  C   UNL     1       4.772  -0.219  26.273  0.00  0.00    +0.244 C 
ATOM     16  O   UNL     1       5.336  -0.428  25.210  0.00  0.00    -0.270 OA
ATOM     17  N   UNL     1       4.506  -1.151  27.278  0.00  0.00    -0.279 N 
ATOM     18  H   UNL     1       3.733  -0.999  27.883  0.00  0.00    +0.155 HD
ATOM     19  C   UNL     1       5.076  -2.347  27.484  0.00  0.00    +0.085 C 
ATOM     20  C   UNL     1       6.329  -2.661  26.867  0.00  0.00    +0.207 C 
ATOM     21  O   UNL     1       7.302  -1.927  26.934  0.00  0.00    -0.286 OA
ATOM     22  C   UNL     1       6.230  -3.932  26.138  0.00  0.00    +0.047 C 
ATOM     23  C   UNL     1       5.690  -4.998  26.768  0.00  0.00    +0.173 C 
ATOM     24  C   UNL     1       4.971  -4.676  28.058  0.00  0.00    +0.222 C 
ATOM     25  O   UNL     1       4.638  -5.517  28.909  0.00  0.00    -0.284 OA
ATOM     26  C   UNL     1       6.895  -3.847  24.838  0.00  0.00    +0.046 C 
ATOM     27  C   UNL     1       8.403  -3.851  25.066  0.00  0.00    -0.007 C 
ATOM     28  C   UNL     1       8.951  -4.661  26.322  0.00  0.00    +0.008 C 
ATOM     29  C   UNL     1       4.475  -3.297  28.193  0.00  0.00    +0.081 C 
ATOM     30  C   UNL     1       8.959  -2.297  24.769  0.00  0.00    +0.037 C 
ENDROOT
BRANCH   1  32
ATOM     31  C   UNL     1       9.706  -0.968  21.321  0.00  0.00    +0.194 C 
ATOM     32  O   UNL     1       9.890  -0.932  22.849  0.00  0.00    -0.377 OA
ENDBRANCH   1  32
BRANCH   2  33
ATOM     33  O   UNL     1       9.057   0.868  25.819  0.00  0.00    -0.389 OA
ATOM     34  H   UNL     1       9.854   0.388  25.519  0.00  0.00    +0.210 HD
ENDBRANCH   2  33
BRANCH   9  35
ATOM     35  O   UNL     1       4.051   6.185  27.459  0.00  0.00    -0.372 OA
ATOM     36  C   UNL     1       3.013   6.833  28.154  0.00  0.00    +0.195 C 
ENDBRANCH   9  35
BRANCH  23  37
ATOM     37  O   UNL     1       5.854  -6.264  26.236  0.00  0.00    -0.491 OA
ATOM     38  C   UNL     1       4.724  -6.798  25.555  0.00  0.00    +0.277 C 
ENDBRANCH  23  37
BRANCH   8  39
ATOM     39  O   UNL     1       6.238   6.892  26.297  0.00  0.00    -0.440 OA
BRANCH  39  40
ATOM     40  C   UNL     1       7.065   6.052  27.084  0.00  0.00    +0.398 C 
ATOM     41  O   UNL     1       6.677   5.191  27.883  0.00  0.00    -0.227 OA
ATOM     42  N   UNL     1       8.337   6.398  26.891  0.00  0.00    -0.295 N 
ATOM     43  H   UNL     1       9.087   6.029  27.472  0.00  0.00    +0.148 HD
ATOM     44  H   UNL     1       8.540   7.222  26.341  0.00  0.00    +0.148 HD
ENDBRANCH  39  40
ENDBRANCH   8  39
TORSDOF 6
ENDMDL
