MODEL 1
REMARK VINA RESULT:      -6.3      0.000      0.000
REMARK  Name = 
REMARK  2 active torsions:
REMARK  status: ('A' for Active; 'I' for Inactive)
REMARK    1  A    between atoms: O_1  and  C_2
REMARK    2  A    between atoms: C_9  and  C_11
REMARK                            x       y       z     vdW  Elec       q    Type
REMARK                         _______ _______ _______ _____ _____    ______ ____
ROOT
ATOM      1  C   UNL     1       9.922   1.269  22.465  0.00  0.00    +0.118 A 
ATOM      2  C   UNL     1      10.478   1.398  23.730  0.00  0.00    +0.047 A 
ATOM      3  C   UNL     1      10.195   0.453  24.723  0.00  0.00    +0.032 A 
ATOM      4  C   UNL     1       9.343  -0.632  24.431  0.00  0.00    +0.079 A 
ATOM      5  N   UNL     1       8.983  -1.648  25.304  0.00  0.00    -0.237 NA
ATOM      6  C   UNL     1       8.183  -2.502  24.697  0.00  0.00    +0.132 A 
ATOM      7  S   UNL     1       7.802  -2.125  23.066  0.00  0.00    -0.065 S 
ATOM      8  C   UNL     1       8.798  -0.728  23.149  0.00  0.00    +0.043 A 
ATOM      9  C   UNL     1       9.074   0.212  22.142  0.00  0.00    +0.062 A 
ENDROOT
BRANCH   6  10
ATOM     10  C   UNL     1       7.653  -3.706  25.300  0.00  0.00    +0.122 C 
ATOM     11  S   UNL     1       6.572  -4.706  24.357  0.00  0.00    -0.096 S 
ATOM     12  C   UNL     1       6.216  -5.699  25.822  0.00  0.00    +0.173 C 
ATOM     13  C   UNL     1       7.236  -5.247  26.842  0.00  0.00    +0.247 C 
ATOM     14  O   UNL     1       7.409  -5.845  27.896  0.00  0.00    -0.273 OA
ATOM     15  N   UNL     1       7.900  -4.091  26.510  0.00  0.00    -0.171 NA
ENDBRANCH   6  10
BRANCH   1  16
ATOM     16  O   UNL     1      10.236   2.221  21.539  0.00  0.00    -0.507 OA
ATOM     17  H   UNL     1      11.076   1.983  21.111  0.00  0.00    +0.292 HD
ENDBRANCH   1  16
TORSDOF 2
ENDMDL
MODEL 2
REMARK VINA RESULT:      -6.0      1.215      1.679
REMARK  Name = 
REMARK  2 active torsions:
REMARK  status: ('A' for Active; 'I' for Inactive)
REMARK    1  A    between atoms: O_1  and  C_2
REMARK    2  A    between atoms: C_9  and  C_11
REMARK                            x       y       z     vdW  Elec       q    Type
REMARK                         _______ _______ _______ _____ _____    ______ ____
ROOT
ATOM      1  C   UNL     1      10.190   2.115  23.090  0.00  0.00    +0.118 A 
ATOM      2  C   UNL     1      10.015   1.435  21.893  0.00  0.00    +0.047 A 
ATOM      3  C   UNL     1       9.541   0.118  21.894  0.00  0.00    +0.032 A 
ATOM      4  C   UNL     1       9.241  -0.514  23.118  0.00  0.00    +0.079 A 
ATOM      5  N   UNL     1       8.754  -1.804  23.275  0.00  0.00    -0.237 NA
ATOM      6  C   UNL     1       8.577  -2.066  24.555  0.00  0.00    +0.132 A 
ATOM      7  S   UNL     1       9.001  -0.800  25.634  0.00  0.00    -0.065 S 
ATOM      8  C   UNL     1       9.433   0.198  24.303  0.00  0.00    +0.043 A 
ATOM      9  C   UNL     1       9.905   1.521  24.318  0.00  0.00    +0.062 A 
ENDROOT
BRANCH   6  10
ATOM     10  C   UNL     1       8.038  -3.305  25.075  0.00  0.00    +0.122 C 
ATOM     11  S   UNL     1       7.003  -4.263  24.042  0.00  0.00    -0.096 S 
ATOM     12  C   UNL     1       6.603  -5.334  25.440  0.00  0.00    +0.173 C 
ATOM     13  C   UNL     1       7.581  -4.927  26.519  0.00  0.00    +0.247 C 
ATOM     14  O   UNL     1       7.722  -5.577  27.546  0.00  0.00    -0.273 OA
ATOM     15  N   UNL     1       8.245  -3.750  26.271  0.00  0.00    -0.171 NA
ENDBRANCH   6  10
BRANCH   1  16
ATOM     16  O   UNL     1      10.652   3.397  23.025  0.00  0.00    -0.507 OA
ATOM     17  H   UNL     1      11.603   3.402  23.225  0.00  0.00    +0.292 HD
ENDBRANCH   1  16
TORSDOF 2
ENDMDL
MODEL 3
REMARK VINA RESULT:      -5.8      2.834      3.034
REMARK  Name = 
REMARK  2 active torsions:
REMARK  status: ('A' for Active; 'I' for Inactive)
REMARK    1  A    between atoms: O_1  and  C_2
REMARK    2  A    between atoms: C_9  and  C_11
REMARK                            x       y       z     vdW  Elec       q    Type
REMARK                         _______ _______ _______ _____ _____    ______ ____
ROOT
ATOM      1  C   UNL     1       9.617   1.714  22.016  0.00  0.00    +0.118 A 
ATOM      2  C   UNL     1       8.399   2.262  22.395  0.00  0.00    +0.047 A 
ATOM      3  C   UNL     1       7.320   1.429  22.713  0.00  0.00    +0.032 A 
ATOM      4  C   UNL     1       7.476   0.030  22.647  0.00  0.00    +0.079 A 
ATOM      5  N   UNL     1       6.506  -0.917  22.943  0.00  0.00    -0.237 NA
ATOM      6  C   UNL     1       6.997  -2.130  22.786  0.00  0.00    +0.132 A 
ATOM      7  S   UNL     1       8.629  -2.204  22.256  0.00  0.00    -0.065 S 
ATOM      8  C   UNL     1       8.713  -0.487  22.258  0.00  0.00    +0.043 A 
ATOM      9  C   UNL     1       9.806   0.336  21.939  0.00  0.00    +0.062 A 
ENDROOT
BRANCH   6  10
ATOM     10  C   UNL     1       6.271  -3.353  23.052  0.00  0.00    +0.122 C 
ATOM     11  S   UNL     1       7.080  -4.628  23.935  0.00  0.00    -0.096 S 
ATOM     12  C   UNL     1       5.703  -5.742  23.583  0.00  0.00    +0.173 C 
ATOM     13  C   UNL     1       4.629  -4.846  23.010  0.00  0.00    +0.247 C 
ATOM     14  O   UNL     1       3.483  -5.237  22.833  0.00  0.00    -0.273 OA
ATOM     15  N   UNL     1       5.063  -3.591  22.658  0.00  0.00    -0.171 NA
ENDBRANCH   6  10
BRANCH   1  16
ATOM     16  O   UNL     1      10.632   2.577  21.721  0.00  0.00    -0.507 OA
ATOM     17  H   UNL     1      10.896   3.045  22.530  0.00  0.00    +0.292 HD
ENDBRANCH   1  16
TORSDOF 2
ENDMDL
MODEL 4
REMARK VINA RESULT:      -5.8      2.686      6.734
REMARK  Name = 
REMARK  2 active torsions:
REMARK  status: ('A' for Active; 'I' for Inactive)
REMARK    1  A    between atoms: O_1  and  C_2
REMARK    2  A    between atoms: C_9  and  C_11
REMARK                            x       y       z     vdW  Elec       q    Type
REMARK                         _______ _______ _______ _____ _____    ______ ____
ROOT
ATOM      1  C   UNL     1       5.540  -6.164  23.375  0.00  0.00    +0.118 A 
ATOM      2  C   UNL     1       6.056  -6.155  22.087  0.00  0.00    +0.047 A 
ATOM      3  C   UNL     1       6.868  -5.097  21.661  0.00  0.00    +0.032 A 
ATOM      4  C   UNL     1       7.159  -4.041  22.547  0.00  0.00    +0.079 A 
ATOM      5  N   UNL     1       7.954  -2.937  22.273  0.00  0.00    -0.237 NA
ATOM      6  C   UNL     1       8.020  -2.154  23.331  0.00  0.00    +0.132 A 
ATOM      7  S   UNL     1       7.121  -2.681  24.697  0.00  0.00    -0.065 S 
ATOM      8  C   UNL     1       6.619  -4.080  23.834  0.00  0.00    +0.043 A 
ATOM      9  C   UNL     1       5.805  -5.136  24.277  0.00  0.00    +0.062 A 
ENDROOT
BRANCH   6  10
ATOM     10  C   UNL     1       8.800  -0.938  23.409  0.00  0.00    +0.122 C 
ATOM     11  S   UNL     1       9.425  -0.446  24.966  0.00  0.00    -0.096 S 
ATOM     12  C   UNL     1       9.946   1.131  24.257  0.00  0.00    +0.173 C 
ATOM     13  C   UNL     1       9.779   0.947  22.765  0.00  0.00    +0.247 C 
ATOM     14  O   UNL     1      10.219   1.755  21.958  0.00  0.00    -0.273 OA
ATOM     15  N   UNL     1       9.053  -0.162  22.406  0.00  0.00    -0.171 NA
ENDBRANCH   6  10
BRANCH   1  16
ATOM     16  O   UNL     1       4.757  -7.223  23.733  0.00  0.00    -0.507 OA
ATOM     17  H   UNL     1       4.464  -7.104  24.652  0.00  0.00    +0.292 HD
ENDBRANCH   1  16
TORSDOF 2
ENDMDL
MODEL 5
REMARK VINA RESULT:      -5.8      2.440      2.818
REMARK  Name = 
REMARK  2 active torsions:
REMARK  status: ('A' for Active; 'I' for Inactive)
REMARK    1  A    between atoms: O_1  and  C_2
REMARK    2  A    between atoms: C_9  and  C_11
REMARK                            x       y       z     vdW  Elec       q    Type
REMARK                         _______ _______ _______ _____ _____    ______ ____
ROOT
ATOM      1  C   UNL     1      10.559   1.901  23.346  0.00  0.00    +0.118 A 
ATOM      2  C   UNL     1      10.131   1.829  22.028  0.00  0.00    +0.047 A 
ATOM      3  C   UNL     1       9.393   0.725  21.587  0.00  0.00    +0.032 A 
ATOM      4  C   UNL     1       9.084  -0.313  22.489  0.00  0.00    +0.079 A 
ATOM      5  N   UNL     1       8.353  -1.457  22.201  0.00  0.00    -0.237 NA
ATOM      6  C   UNL     1       8.247  -2.208  23.280  0.00  0.00    +0.132 A 
ATOM      7  S   UNL     1       9.030  -1.600  24.682  0.00  0.00    -0.065 S 
ATOM      8  C   UNL     1       9.534  -0.210  23.806  0.00  0.00    +0.043 A 
ATOM      9  C   UNL     1      10.274   0.892  24.264  0.00  0.00    +0.062 A 
ENDROOT
BRANCH   6  10
ATOM     10  C   UNL     1       7.512  -3.452  23.349  0.00  0.00    +0.122 C 
ATOM     11  S   UNL     1       6.569  -3.786  24.783  0.00  0.00    -0.096 S 
ATOM     12  C   UNL     1       6.277  -5.469  24.197  0.00  0.00    +0.173 C 
ATOM     13  C   UNL     1       6.769  -5.461  22.767  0.00  0.00    +0.247 C 
ATOM     14  O   UNL     1       6.551  -6.390  22.000  0.00  0.00    -0.273 OA
ATOM     15  N   UNL     1       7.519  -4.361  22.429  0.00  0.00    -0.171 NA
ENDBRANCH   6  10
BRANCH   1  16
ATOM     16  O   UNL     1      11.273   3.003  23.718  0.00  0.00    -0.507 OA
ATOM     17  H   UNL     1      11.390   2.995  24.682  0.00  0.00    +0.292 HD
ENDBRANCH   1  16
TORSDOF 2
ENDMDL
MODEL 6
REMARK VINA RESULT:      -5.8      2.278      6.583
REMARK  Name = 
REMARK  2 active torsions:
REMARK  status: ('A' for Active; 'I' for Inactive)
REMARK    1  A    between atoms: O_1  and  C_2
REMARK    2  A    between atoms: C_9  and  C_11
REMARK                            x       y       z     vdW  Elec       q    Type
REMARK                         _______ _______ _______ _____ _____    ______ ____
ROOT
ATOM      1  C   UNL     1       4.757  -6.709  24.344  0.00  0.00    +0.118 A 
ATOM      2  C   UNL     1       5.058  -6.444  25.673  0.00  0.00    +0.047 A 
ATOM      3  C   UNL     1       5.965  -5.429  26.000  0.00  0.00    +0.032 A 
ATOM      4  C   UNL     1       6.571  -4.677  24.974  0.00  0.00    +0.079 A 
ATOM      5  N   UNL     1       7.474  -3.638  25.146  0.00  0.00    -0.237 NA
ATOM      6  C   UNL     1       7.830  -3.152  23.973  0.00  0.00    +0.132 A 
ATOM      7  S   UNL     1       7.125  -3.922  22.609  0.00  0.00    -0.065 S 
ATOM      8  C   UNL     1       6.249  -4.974  23.649  0.00  0.00    +0.043 A 
ATOM      9  C   UNL     1       5.339  -5.987  23.304  0.00  0.00    +0.062 A 
ENDROOT
BRANCH   6  10
ATOM     10  C   UNL     1       8.725  -2.031  23.783  0.00  0.00    +0.122 C 
ATOM     11  S   UNL     1       9.042  -1.482  22.153  0.00  0.00    -0.096 S 
ATOM     12  C   UNL     1      10.334  -0.386  22.775  0.00  0.00    +0.173 C 
ATOM     13  C   UNL     1      10.161  -0.412  24.277  0.00  0.00    +0.247 C 
ATOM     14  O   UNL     1      10.751   0.368  25.012  0.00  0.00    -0.273 OA
ATOM     15  N   UNL     1       9.339  -1.412  24.738  0.00  0.00    -0.171 NA
ENDBRANCH   6  10
BRANCH   1  16
ATOM     16  O   UNL     1       3.865  -7.708  24.087  0.00  0.00    -0.507 OA
ATOM     17  H   UNL     1       3.666  -7.720  23.135  0.00  0.00    +0.292 HD
ENDBRANCH   1  16
TORSDOF 2
ENDMDL
MODEL 7
REMARK VINA RESULT:      -5.7      1.947      2.588
REMARK  Name = 
REMARK  2 active torsions:
REMARK  status: ('A' for Active; 'I' for Inactive)
REMARK    1  A    between atoms: O_1  and  C_2
REMARK    2  A    between atoms: C_9  and  C_11
REMARK                            x       y       z     vdW  Elec       q    Type
REMARK                         _______ _______ _______ _____ _____    ______ ____
ROOT
ATOM      1  C   UNL     1       9.341  -1.564  22.472  0.00  0.00    +0.118 A 
ATOM      2  C   UNL     1       9.865  -0.888  23.564  0.00  0.00    +0.047 A 
ATOM      3  C   UNL     1       9.500  -1.259  24.863  0.00  0.00    +0.032 A 
ATOM      4  C   UNL     1       8.597  -2.324  25.057  0.00  0.00    +0.079 A 
ATOM      5  N   UNL     1       8.155  -2.809  26.279  0.00  0.00    -0.237 NA
ATOM      6  C   UNL     1       7.325  -3.817  26.091  0.00  0.00    +0.132 A 
ATOM      7  S   UNL     1       7.014  -4.220  24.451  0.00  0.00    -0.065 S 
ATOM      8  C   UNL     1       8.085  -2.979  23.936  0.00  0.00    +0.043 A 
ATOM      9  C   UNL     1       8.444  -2.620  22.626  0.00  0.00    +0.062 A 
ENDROOT
BRANCH   6  10
ATOM     10  C   UNL     1       6.710  -4.587  27.150  0.00  0.00    +0.122 C 
ATOM     11  S   UNL     1       5.220  -4.001  27.852  0.00  0.00    -0.096 S 
ATOM     12  C   UNL     1       5.328  -5.267  29.135  0.00  0.00    +0.173 C 
ATOM     13  C   UNL     1       6.437  -6.183  28.669  0.00  0.00    +0.247 C 
ATOM     14  O   UNL     1       6.656  -7.262  29.204  0.00  0.00    -0.273 OA
ATOM     15  N   UNL     1       7.200  -5.678  27.644  0.00  0.00    -0.171 NA
ENDBRANCH   6  10
BRANCH   1  16
ATOM     16  O   UNL     1       9.736  -1.159  21.230  0.00  0.00    -0.507 OA
ATOM     17  H   UNL     1      10.205  -0.312  21.307  0.00  0.00    +0.292 HD
ENDBRANCH   1  16
TORSDOF 2
ENDMDL
MODEL 8
REMARK VINA RESULT:      -5.6      3.751      7.350
REMARK  Name = 
REMARK  2 active torsions:
REMARK  status: ('A' for Active; 'I' for Inactive)
REMARK    1  A    between atoms: O_1  and  C_2
REMARK    2  A    between atoms: C_9  and  C_11
REMARK                            x       y       z     vdW  Elec       q    Type
REMARK                         _______ _______ _______ _____ _____    ______ ____
ROOT
ATOM      1  C   UNL     1       8.486  -2.331  22.981  0.00  0.00    +0.118 A 
ATOM      2  C   UNL     1       8.923  -2.330  24.298  0.00  0.00    +0.047 A 
ATOM      3  C   UNL     1       9.482  -1.172  24.853  0.00  0.00    +0.032 A 
ATOM      4  C   UNL     1       9.598  -0.008  24.068  0.00  0.00    +0.079 A 
ATOM      5  N   UNL     1      10.116   1.211  24.483  0.00  0.00    -0.237 NA
ATOM      6  C   UNL     1      10.063   2.083  23.495  0.00  0.00    +0.132 A 
ATOM      7  S   UNL     1       9.415   1.489  22.020  0.00  0.00    -0.065 S 
ATOM      8  C   UNL     1       9.152  -0.046  22.745  0.00  0.00    +0.043 A 
ATOM      9  C   UNL     1       8.587  -1.199  22.175  0.00  0.00    +0.062 A 
ENDROOT
BRANCH   6  10
ATOM     10  C   UNL     1      10.478   3.465  23.594  0.00  0.00    +0.122 C 
ATOM     11  S   UNL     1       9.295   4.661  24.072  0.00  0.00    -0.096 S 
ATOM     12  C   UNL     1      10.470   5.976  23.683  0.00  0.00    +0.173 C 
ATOM     13  C   UNL     1      11.781   5.258  23.461  0.00  0.00    +0.247 C 
ATOM     14  O   UNL     1      12.843   5.859  23.362  0.00  0.00    -0.273 OA
ATOM     15  N   UNL     1      11.669   3.895  23.326  0.00  0.00    -0.171 NA
ENDBRANCH   6  10
BRANCH   1  16
ATOM     16  O   UNL     1       7.948  -3.487  22.496  0.00  0.00    -0.507 OA
ATOM     17  H   UNL     1       7.520  -3.968  23.224  0.00  0.00    +0.292 HD
ENDBRANCH   1  16
TORSDOF 2
ENDMDL
MODEL 9
REMARK VINA RESULT:      -5.6      2.300      2.448
REMARK  Name = 
REMARK  2 active torsions:
REMARK  status: ('A' for Active; 'I' for Inactive)
REMARK    1  A    between atoms: O_1  and  C_2
REMARK    2  A    between atoms: C_9  and  C_11
REMARK                            x       y       z     vdW  Elec       q    Type
REMARK                         _______ _______ _______ _____ _____    ______ ____
ROOT
ATOM      1  C   UNL     1       8.875   0.951  21.892  0.00  0.00    +0.118 A 
ATOM      2  C   UNL     1       9.773  -0.026  21.485  0.00  0.00    +0.047 A 
ATOM      3  C   UNL     1       9.584  -1.359  21.869  0.00  0.00    +0.032 A 
ATOM      4  C   UNL     1       8.477  -1.705  22.669  0.00  0.00    +0.079 A 
ATOM      5  N   UNL     1       8.155  -2.979  23.115  0.00  0.00    -0.237 NA
ATOM      6  C   UNL     1       7.049  -2.940  23.832  0.00  0.00    +0.132 A 
ATOM      7  S   UNL     1       6.352  -1.383  24.030  0.00  0.00    -0.065 S 
ATOM      8  C   UNL     1       7.597  -0.696  23.064  0.00  0.00    +0.043 A 
ATOM      9  C   UNL     1       7.771   0.646  22.686  0.00  0.00    +0.062 A 
ENDROOT
BRANCH   6  10
ATOM     10  C   UNL     1       6.403  -4.096  24.413  0.00  0.00    +0.122 C 
ATOM     11  S   UNL     1       6.447  -4.292  26.150  0.00  0.00    -0.096 S 
ATOM     12  C   UNL     1       5.749  -5.949  25.979  0.00  0.00    +0.173 C 
ATOM     13  C   UNL     1       5.318  -6.030  24.532  0.00  0.00    +0.247 C 
ATOM     14  O   UNL     1       4.629  -6.949  24.110  0.00  0.00    -0.273 OA
ATOM     15  N   UNL     1       5.809  -5.024  23.735  0.00  0.00    -0.171 NA
ENDBRANCH   6  10
BRANCH   1  16
ATOM     16  O   UNL     1       9.110   2.232  21.485  0.00  0.00    -0.507 OA
ATOM     17  H   UNL     1       9.773   2.223  20.775  0.00  0.00    +0.292 HD
ENDBRANCH   1  16
TORSDOF 2
ENDMDL
