MODEL 1
REMARK VINA RESULT:      -5.4      0.000      0.000
REMARK  Name = 
REMARK  13 active torsions:
REMARK  status: ('A' for Active; 'I' for Inactive)
REMARK    1  A    between atoms: C_1  and  C_2
REMARK    2  A    between atoms: C_2  and  C_3
REMARK    3  A    between atoms: C_3  and  N_4
REMARK    4  A    between atoms: N_4  and  C_5
REMARK    5  A    between atoms: N_4  and  C_7
REMARK    6  A    between atoms: C_5  and  C_6
REMARK    7  A    between atoms: C_7  and  C_8
REMARK    8  A    between atoms: C_7  and  C_10
REMARK    9  A    between atoms: C_8  and  C_9
REMARK   10  A    between atoms: C_10  and  O_11
REMARK   11  A    between atoms: N_12  and  C_13
REMARK   12  A    between atoms: C_14  and  C_15
REMARK   13  A    between atoms: C_19  and  C_20
REMARK                            x       y       z     vdW  Elec       q    Type
REMARK                         _______ _______ _______ _____ _____    ______ ____
ROOT
ATOM      1  C   UNL     1       6.992  -2.290  23.199  0.00  0.00    +0.205 C 
ATOM      2  N   UNL     1       8.251  -2.162  23.468  0.00  0.00    -0.216 NA
ENDROOT
BRANCH   2   3
ATOM      3  C   UNL     1       8.921  -0.927  23.623  0.00  0.00    +0.073 A 
ATOM      4  C   UNL     1       9.477  -0.159  22.571  0.00  0.00    -0.025 A 
ATOM      5  C   UNL     1       9.342  -0.487  21.110  0.00  0.00    +0.046 C 
ATOM      6  C   UNL     1      10.193   1.024  22.860  0.00  0.00    +0.005 A 
ATOM      7  C   UNL     1      10.424   1.429  24.164  0.00  0.00    +0.001 A 
ATOM      8  C   UNL     1       9.916   0.667  25.213  0.00  0.00    +0.005 A 
ATOM      9  C   UNL     1       9.170  -0.499  24.956  0.00  0.00    -0.025 A 
ATOM     10  C   UNL     1       8.693  -1.259  26.167  0.00  0.00    +0.046 C 
ENDBRANCH   2   3
BRANCH   1  11
ATOM     11  O   UNL     1       6.144  -1.262  22.972  0.00  0.00    -0.494 OA
ATOM     12  H   UNL     1       6.461  -0.480  23.472  0.00  0.00    +0.293 HD
ENDBRANCH   1  11
BRANCH   1  13
ATOM     13  C   UNL     1       6.306  -3.663  23.078  0.00  0.00    +0.142 C 
BRANCH  13  14
ATOM     14  C   UNL     1       5.026  -3.623  23.955  0.00  0.00    +0.025 C 
ATOM     15  C   UNL     1       3.854  -4.459  23.453  0.00  0.00    +0.006 C 
ENDBRANCH  13  14
BRANCH  13  16
ATOM     16  N   UNL     1       7.293  -4.772  23.400  0.00  0.00    -0.292 NA
BRANCH  16  17
ATOM     17  C   UNL     1       7.239  -5.871  22.391  0.00  0.00    +0.082 C 
ATOM     18  C   UNL     1       6.443  -5.618  21.117  0.00  0.00    +0.020 C 
ENDBRANCH  16  17
BRANCH  16  19
ATOM     19  C   UNL     1       7.066  -5.298  24.772  0.00  0.00    +0.085 C 
BRANCH  19  21
ATOM     20  C   UNL     1       9.529  -5.006  25.236  0.00  0.00    +0.005 C 
ATOM     21  C   UNL     1       8.127  -4.932  25.826  0.00  0.00    +0.012 C 
ENDBRANCH  19  21
ENDBRANCH  16  19
ENDBRANCH  13  16
ENDBRANCH   1  13
TORSDOF 8
ENDMDL
MODEL 2
REMARK VINA RESULT:      -5.3      1.446      3.442
REMARK  Name = 
REMARK  13 active torsions:
REMARK  status: ('A' for Active; 'I' for Inactive)
REMARK    1  A    between atoms: C_1  and  C_2
REMARK    2  A    between atoms: C_2  and  C_3
REMARK    3  A    between atoms: C_3  and  N_4
REMARK    4  A    between atoms: N_4  and  C_5
REMARK    5  A    between atoms: N_4  and  C_7
REMARK    6  A    between atoms: C_5  and  C_6
REMARK    7  A    between atoms: C_7  and  C_8
REMARK    8  A    between atoms: C_7  and  C_10
REMARK    9  A    between atoms: C_8  and  C_9
REMARK   10  A    between atoms: C_10  and  O_11
REMARK   11  A    between atoms: N_12  and  C_13
REMARK   12  A    between atoms: C_14  and  C_15
REMARK   13  A    between atoms: C_19  and  C_20
REMARK                            x       y       z     vdW  Elec       q    Type
REMARK                         _______ _______ _______ _____ _____    ______ ____
ROOT
ATOM      1  C   UNL     1       8.656  -3.056  23.797  0.00  0.00    +0.205 C 
ATOM      2  N   UNL     1       8.243  -1.842  23.630  0.00  0.00    -0.216 NA
ENDROOT
BRANCH   2   3
ATOM      3  C   UNL     1       9.069  -0.696  23.686  0.00  0.00    +0.073 A 
ATOM      4  C   UNL     1       9.425   0.002  24.865  0.00  0.00    -0.025 A 
ATOM      5  C   UNL     1       9.068  -0.438  26.258  0.00  0.00    +0.046 C 
ATOM      6  C   UNL     1      10.194   1.184  24.785  0.00  0.00    +0.005 A 
ATOM      7  C   UNL     1      10.565   1.723  23.564  0.00  0.00    +0.001 A 
ATOM      8  C   UNL     1      10.193   1.072  22.392  0.00  0.00    +0.005 A 
ATOM      9  C   UNL     1       9.455  -0.126  22.440  0.00  0.00    -0.025 A 
ATOM     10  C   UNL     1       9.085  -0.730  21.110  0.00  0.00    +0.046 C 
ENDBRANCH   2   3
BRANCH   1  11
ATOM     11  O   UNL     1       9.927  -3.404  24.104  0.00  0.00    -0.494 OA
ATOM     12  H   UNL     1      10.018  -3.419  25.080  0.00  0.00    +0.293 HD
ENDBRANCH   1  11
BRANCH   1  13
ATOM     13  C   UNL     1       7.718  -4.272  23.689  0.00  0.00    +0.142 C 
BRANCH  13  14
ATOM     14  C   UNL     1       7.193  -4.328  22.229  0.00  0.00    +0.025 C 
ATOM     15  C   UNL     1       7.193  -5.706  21.578  0.00  0.00    +0.006 C 
ENDBRANCH  13  14
BRANCH  13  16
ATOM     16  N   UNL     1       6.654  -4.211  24.772  0.00  0.00    -0.292 NA
BRANCH  16  17
ATOM     17  C   UNL     1       6.790  -5.334  25.746  0.00  0.00    +0.082 C 
ATOM     18  C   UNL     1       7.944  -5.268  26.740  0.00  0.00    +0.020 C 
ENDBRANCH  16  17
BRANCH  16  19
ATOM     19  C   UNL     1       5.293  -4.188  24.173  0.00  0.00    +0.085 C 
BRANCH  19  21
ATOM     20  C   UNL     1       3.615  -5.792  23.182  0.00  0.00    +0.005 C 
ATOM     21  C   UNL     1       4.419  -5.430  24.425  0.00  0.00    +0.012 C 
ENDBRANCH  19  21
ENDBRANCH  16  19
ENDBRANCH  13  16
ENDBRANCH   1  13
TORSDOF 8
ENDMDL
MODEL 3
REMARK VINA RESULT:      -5.3      0.850      2.166
REMARK  Name = 
REMARK  13 active torsions:
REMARK  status: ('A' for Active; 'I' for Inactive)
REMARK    1  A    between atoms: C_1  and  C_2
REMARK    2  A    between atoms: C_2  and  C_3
REMARK    3  A    between atoms: C_3  and  N_4
REMARK    4  A    between atoms: N_4  and  C_5
REMARK    5  A    between atoms: N_4  and  C_7
REMARK    6  A    between atoms: C_5  and  C_6
REMARK    7  A    between atoms: C_7  and  C_8
REMARK    8  A    between atoms: C_7  and  C_10
REMARK    9  A    between atoms: C_8  and  C_9
REMARK   10  A    between atoms: C_10  and  O_11
REMARK   11  A    between atoms: N_12  and  C_13
REMARK   12  A    between atoms: C_14  and  C_15
REMARK   13  A    between atoms: C_19  and  C_20
REMARK                            x       y       z     vdW  Elec       q    Type
REMARK                         _______ _______ _______ _____ _____    ______ ____
ROOT
ATOM      1  C   UNL     1       7.142  -1.664  23.256  0.00  0.00    +0.205 C 
ATOM      2  N   UNL     1       8.429  -1.548  23.190  0.00  0.00    -0.216 NA
ENDROOT
BRANCH   2   3
ATOM      3  C   UNL     1       9.135  -0.331  23.329  0.00  0.00    +0.073 A 
ATOM      4  C   UNL     1       9.468   0.288  24.558  0.00  0.00    -0.025 A 
ATOM      5  C   UNL     1       9.215  -0.315  25.913  0.00  0.00    +0.046 C 
ATOM      6  C   UNL     1      10.109   1.546  24.568  0.00  0.00    +0.005 A 
ATOM      7  C   UNL     1      10.372   2.232  23.393  0.00  0.00    +0.001 A 
ATOM      8  C   UNL     1      10.020   1.656  22.176  0.00  0.00    +0.005 A 
ATOM      9  C   UNL     1       9.409   0.388  22.132  0.00  0.00    -0.025 A 
ATOM     10  C   UNL     1       9.047  -0.125  20.762  0.00  0.00    +0.046 C 
ENDBRANCH   2   3
BRANCH   1  11
ATOM     11  O   UNL     1       6.281  -0.633  23.411  0.00  0.00    -0.494 OA
ATOM     12  H   UNL     1       6.021  -0.309  22.523  0.00  0.00    +0.293 HD
ENDBRANCH   1  11
BRANCH   1  13
ATOM     13  C   UNL     1       6.426  -3.022  23.134  0.00  0.00    +0.142 C 
BRANCH  13  14
ATOM     14  C   UNL     1       5.519  -3.184  24.384  0.00  0.00    +0.025 C 
ATOM     15  C   UNL     1       4.167  -3.843  24.139  0.00  0.00    +0.006 C 
ENDBRANCH  13  14
BRANCH  13  16
ATOM     16  N   UNL     1       7.440  -4.130  22.905  0.00  0.00    -0.292 NA
BRANCH  16  17
ATOM     17  C   UNL     1       7.045  -5.015  21.769  0.00  0.00    +0.082 C 
ATOM     18  C   UNL     1       6.382  -6.343  22.110  0.00  0.00    +0.020 C 
ENDBRANCH  16  17
BRANCH  16  19
ATOM     19  C   UNL     1       7.647  -4.920  24.148  0.00  0.00    +0.085 C 
BRANCH  19  21
ATOM     20  C   UNL     1       8.713  -4.063  26.268  0.00  0.00    +0.005 C 
ATOM     21  C   UNL     1       8.969  -4.675  24.897  0.00  0.00    +0.012 C 
ENDBRANCH  19  21
ENDBRANCH  16  19
ENDBRANCH  13  16
ENDBRANCH   1  13
TORSDOF 8
ENDMDL
MODEL 4
REMARK VINA RESULT:      -5.3      1.567      2.631
REMARK  Name = 
REMARK  13 active torsions:
REMARK  status: ('A' for Active; 'I' for Inactive)
REMARK    1  A    between atoms: C_1  and  C_2
REMARK    2  A    between atoms: C_2  and  C_3
REMARK    3  A    between atoms: C_3  and  N_4
REMARK    4  A    between atoms: N_4  and  C_5
REMARK    5  A    between atoms: N_4  and  C_7
REMARK    6  A    between atoms: C_5  and  C_6
REMARK    7  A    between atoms: C_7  and  C_8
REMARK    8  A    between atoms: C_7  and  C_10
REMARK    9  A    between atoms: C_8  and  C_9
REMARK   10  A    between atoms: C_10  and  O_11
REMARK   11  A    between atoms: N_12  and  C_13
REMARK   12  A    between atoms: C_14  and  C_15
REMARK   13  A    between atoms: C_19  and  C_20
REMARK                            x       y       z     vdW  Elec       q    Type
REMARK                         _______ _______ _______ _____ _____    ______ ____
ROOT
ATOM      1  C   UNL     1       8.833  -2.636  23.615  0.00  0.00    +0.205 C 
ATOM      2  N   UNL     1       8.217  -1.500  23.555  0.00  0.00    -0.216 NA
ENDROOT
BRANCH   2   3
ATOM      3  C   UNL     1       8.851  -0.247  23.397  0.00  0.00    +0.073 A 
ATOM      4  C   UNL     1       9.334   0.279  22.174  0.00  0.00    -0.025 A 
ATOM      5  C   UNL     1       9.145  -0.371  20.831  0.00  0.00    +0.046 C 
ATOM      6  C   UNL     1      10.022   1.512  22.155  0.00  0.00    +0.005 A 
ATOM      7  C   UNL     1      10.297   2.204  23.323  0.00  0.00    +0.001 A 
ATOM      8  C   UNL     1       9.863   1.685  24.539  0.00  0.00    +0.005 A 
ATOM      9  C   UNL     1       9.145   0.474  24.587  0.00  0.00    -0.025 A 
ATOM     10  C   UNL     1       8.747  -0.006  25.959  0.00  0.00    +0.046 C 
ENDBRANCH   2   3
BRANCH   1  11
ATOM     11  O   UNL     1      10.177  -2.786  23.593  0.00  0.00    -0.494 OA
ATOM     12  H   UNL     1      10.385  -3.679  23.244  0.00  0.00    +0.293 HD
ENDBRANCH   1  11
BRANCH   1  13
ATOM     13  C   UNL     1       8.089  -3.977  23.750  0.00  0.00    +0.142 C 
BRANCH  13  14
ATOM     14  C   UNL     1       7.171  -4.128  22.507  0.00  0.00    +0.025 C 
ATOM     15  C   UNL     1       7.225  -5.481  21.806  0.00  0.00    +0.006 C 
ENDBRANCH  13  14
BRANCH  13  16
ATOM     16  N   UNL     1       7.392  -4.055  25.098  0.00  0.00    -0.292 NA
BRANCH  16  17
ATOM     17  C   UNL     1       8.085  -4.997  26.025  0.00  0.00    +0.082 C 
ATOM     18  C   UNL     1       9.405  -5.601  25.559  0.00  0.00    +0.020 C 
ENDBRANCH  16  17
BRANCH  16  19
ATOM     19  C   UNL     1       5.962  -4.428  24.932  0.00  0.00    +0.085 C 
BRANCH  19  21
ATOM     20  C   UNL     1       4.739  -6.577  24.427  0.00  0.00    +0.005 C 
ATOM     21  C   UNL     1       5.555  -5.815  25.463  0.00  0.00    +0.012 C 
ENDBRANCH  19  21
ENDBRANCH  16  19
ENDBRANCH  13  16
ENDBRANCH   1  13
TORSDOF 8
ENDMDL
MODEL 5
REMARK VINA RESULT:      -5.2      1.587      3.307
REMARK  Name = 
REMARK  13 active torsions:
REMARK  status: ('A' for Active; 'I' for Inactive)
REMARK    1  A    between atoms: C_1  and  C_2
REMARK    2  A    between atoms: C_2  and  C_3
REMARK    3  A    between atoms: C_3  and  N_4
REMARK    4  A    between atoms: N_4  and  C_5
REMARK    5  A    between atoms: N_4  and  C_7
REMARK    6  A    between atoms: C_5  and  C_6
REMARK    7  A    between atoms: C_7  and  C_8
REMARK    8  A    between atoms: C_7  and  C_10
REMARK    9  A    between atoms: C_8  and  C_9
REMARK   10  A    between atoms: C_10  and  O_11
REMARK   11  A    between atoms: N_12  and  C_13
REMARK   12  A    between atoms: C_14  and  C_15
REMARK   13  A    between atoms: C_19  and  C_20
REMARK                            x       y       z     vdW  Elec       q    Type
REMARK                         _______ _______ _______ _____ _____    ______ ____
ROOT
ATOM      1  C   UNL     1       8.771  -3.020  23.813  0.00  0.00    +0.205 C 
ATOM      2  N   UNL     1       8.303  -1.826  23.644  0.00  0.00    -0.216 NA
ENDROOT
BRANCH   2   3
ATOM      3  C   UNL     1       9.081  -0.646  23.662  0.00  0.00    +0.073 A 
ATOM      4  C   UNL     1       9.406   0.104  24.819  0.00  0.00    -0.025 A 
ATOM      5  C   UNL     1       9.065  -0.306  26.225  0.00  0.00    +0.046 C 
ATOM      6  C   UNL     1      10.126   1.313  24.701  0.00  0.00    +0.005 A 
ATOM      7  C   UNL     1      10.477   1.828  23.463  0.00  0.00    +0.001 A 
ATOM      8  C   UNL     1      10.134   1.124  22.313  0.00  0.00    +0.005 A 
ATOM      9  C   UNL     1       9.445  -0.101  22.400  0.00  0.00    -0.025 A 
ATOM     10  C   UNL     1       9.103  -0.762  21.089  0.00  0.00    +0.046 C 
ENDBRANCH   2   3
BRANCH   1  11
ATOM     11  O   UNL     1      10.063  -3.310  24.090  0.00  0.00    -0.494 OA
ATOM     12  H   UNL     1      10.624  -2.947  23.373  0.00  0.00    +0.293 HD
ENDBRANCH   1  11
BRANCH   1  13
ATOM     13  C   UNL     1       7.883  -4.275  23.746  0.00  0.00    +0.142 C 
BRANCH  13  14
ATOM     14  C   UNL     1       7.286  -4.348  22.315  0.00  0.00    +0.025 C 
ATOM     15  C   UNL     1       7.210  -5.741  21.700  0.00  0.00    +0.006 C 
ENDBRANCH  13  14
BRANCH  13  16
ATOM     16  N   UNL     1       6.874  -4.264  24.882  0.00  0.00    -0.292 NA
BRANCH  16  17
ATOM     17  C   UNL     1       6.973  -5.494  25.723  0.00  0.00    +0.082 C 
ATOM     18  C   UNL     1       5.702  -5.985  26.405  0.00  0.00    +0.020 C 
ENDBRANCH  16  17
BRANCH  16  19
ATOM     19  C   UNL     1       5.493  -4.088  24.359  0.00  0.00    +0.085 C 
BRANCH  19  21
ATOM     20  C   UNL     1       5.498  -2.096  25.909  0.00  0.00    +0.005 C 
ATOM     21  C   UNL     1       4.775  -2.786  24.759  0.00  0.00    +0.012 C 
ENDBRANCH  19  21
ENDBRANCH  16  19
ENDBRANCH  13  16
ENDBRANCH   1  13
TORSDOF 8
ENDMDL
MODEL 6
REMARK VINA RESULT:      -5.2      1.351      3.221
REMARK  Name = 
REMARK  13 active torsions:
REMARK  status: ('A' for Active; 'I' for Inactive)
REMARK    1  A    between atoms: C_1  and  C_2
REMARK    2  A    between atoms: C_2  and  C_3
REMARK    3  A    between atoms: C_3  and  N_4
REMARK    4  A    between atoms: N_4  and  C_5
REMARK    5  A    between atoms: N_4  and  C_7
REMARK    6  A    between atoms: C_5  and  C_6
REMARK    7  A    between atoms: C_7  and  C_8
REMARK    8  A    between atoms: C_7  and  C_10
REMARK    9  A    between atoms: C_8  and  C_9
REMARK   10  A    between atoms: C_10  and  O_11
REMARK   11  A    between atoms: N_12  and  C_13
REMARK   12  A    between atoms: C_14  and  C_15
REMARK   13  A    between atoms: C_19  and  C_20
REMARK                            x       y       z     vdW  Elec       q    Type
REMARK                         _______ _______ _______ _____ _____    ______ ____
ROOT
ATOM      1  C   UNL     1       7.047  -1.369  23.737  0.00  0.00    +0.205 C 
ATOM      2  N   UNL     1       8.274  -1.059  24.005  0.00  0.00    -0.216 NA
ENDROOT
BRANCH   2   3
ATOM      3  C   UNL     1       8.847   0.215  23.790  0.00  0.00    +0.073 A 
ATOM      4  C   UNL     1       8.669   1.346  24.625  0.00  0.00    -0.025 A 
ATOM      5  C   UNL     1       7.929   1.332  25.934  0.00  0.00    +0.046 C 
ATOM      6  C   UNL     1       9.231   2.590  24.263  0.00  0.00    +0.005 A 
ATOM      7  C   UNL     1       9.910   2.755  23.067  0.00  0.00    +0.001 A 
ATOM      8  C   UNL     1      10.064   1.665  22.216  0.00  0.00    +0.005 A 
ATOM      9  C   UNL     1       9.544   0.404  22.565  0.00  0.00    -0.025 A 
ATOM     10  C   UNL     1       9.747  -0.698  21.556  0.00  0.00    +0.046 C 
ENDBRANCH   2   3
BRANCH   1  11
ATOM     11  O   UNL     1       6.149  -0.539  23.161  0.00  0.00    -0.494 OA
ATOM     12  H   UNL     1       5.570  -1.067  22.572  0.00  0.00    +0.293 HD
ENDBRANCH   1  11
BRANCH   1  13
ATOM     13  C   UNL     1       6.464  -2.765  24.027  0.00  0.00    +0.142 C 
BRANCH  13  14
ATOM     14  C   UNL     1       7.652  -3.704  24.370  0.00  0.00    +0.025 C 
ATOM     15  C   UNL     1       7.396  -4.715  25.482  0.00  0.00    +0.006 C 
ENDBRANCH  13  14
BRANCH  13  16
ATOM     16  N   UNL     1       5.580  -3.211  22.875  0.00  0.00    -0.292 NA
BRANCH  16  17
ATOM     17  C   UNL     1       4.454  -4.072  23.343  0.00  0.00    +0.082 C 
ATOM     18  C   UNL     1       3.816  -3.729  24.684  0.00  0.00    +0.020 C 
ENDBRANCH  16  17
BRANCH  16  19
ATOM     19  C   UNL     1       6.382  -3.906  21.833  0.00  0.00    +0.085 C 
BRANCH  19  21
ATOM     20  C   UNL     1       7.093  -6.326  21.912  0.00  0.00    +0.005 C 
ATOM     21  C   UNL     1       5.981  -5.360  21.523  0.00  0.00    +0.012 C 
ENDBRANCH  19  21
ENDBRANCH  16  19
ENDBRANCH  13  16
ENDBRANCH   1  13
TORSDOF 8
ENDMDL
MODEL 7
REMARK VINA RESULT:      -5.2      1.609      3.436
REMARK  Name = 
REMARK  13 active torsions:
REMARK  status: ('A' for Active; 'I' for Inactive)
REMARK    1  A    between atoms: C_1  and  C_2
REMARK    2  A    between atoms: C_2  and  C_3
REMARK    3  A    between atoms: C_3  and  N_4
REMARK    4  A    between atoms: N_4  and  C_5
REMARK    5  A    between atoms: N_4  and  C_7
REMARK    6  A    between atoms: C_5  and  C_6
REMARK    7  A    between atoms: C_7  and  C_8
REMARK    8  A    between atoms: C_7  and  C_10
REMARK    9  A    between atoms: C_8  and  C_9
REMARK   10  A    between atoms: C_10  and  O_11
REMARK   11  A    between atoms: N_12  and  C_13
REMARK   12  A    between atoms: C_14  and  C_15
REMARK   13  A    between atoms: C_19  and  C_20
REMARK                            x       y       z     vdW  Elec       q    Type
REMARK                         _______ _______ _______ _____ _____    ______ ____
ROOT
ATOM      1  C   UNL     1       8.159  -1.686  24.268  0.00  0.00    +0.205 C 
ATOM      2  N   UNL     1       7.789  -0.577  23.715  0.00  0.00    -0.216 NA
ENDROOT
BRANCH   2   3
ATOM      3  C   UNL     1       8.589   0.585  23.626  0.00  0.00    +0.073 A 
ATOM      4  C   UNL     1       8.555   1.675  24.530  0.00  0.00    -0.025 A 
ATOM      5  C   UNL     1       7.737   1.712  25.791  0.00  0.00    +0.046 C 
ATOM      6  C   UNL     1       9.349   2.818  24.292  0.00  0.00    +0.005 A 
ATOM      7  C   UNL     1      10.127   2.933  23.152  0.00  0.00    +0.001 A 
ATOM      8  C   UNL     1      10.145   1.888  22.233  0.00  0.00    +0.005 A 
ATOM      9  C   UNL     1       9.390   0.721  22.459  0.00  0.00    -0.025 A 
ATOM     10  C   UNL     1       9.465  -0.334  21.385  0.00  0.00    +0.046 C 
ENDBRANCH   2   3
BRANCH   1  11
ATOM     11  O   UNL     1       9.342  -1.880  24.892  0.00  0.00    -0.494 OA
ATOM     12  H   UNL     1       9.784  -1.012  24.998  0.00  0.00    +0.293 HD
ENDBRANCH   1  11
BRANCH   1  13
ATOM     13  C   UNL     1       7.258  -2.935  24.303  0.00  0.00    +0.142 C 
BRANCH  13  14
ATOM     14  C   UNL     1       8.172  -4.162  24.567  0.00  0.00    +0.025 C 
ATOM     15  C   UNL     1       7.686  -5.130  25.639  0.00  0.00    +0.006 C 
ENDBRANCH  13  14
BRANCH  13  16
ATOM     16  N   UNL     1       6.408  -3.002  23.045  0.00  0.00    -0.292 NA
BRANCH  16  17
ATOM     17  C   UNL     1       5.013  -3.442  23.344  0.00  0.00    +0.082 C 
ATOM     18  C   UNL     1       4.474  -3.172  24.743  0.00  0.00    +0.020 C 
ENDBRANCH  16  17
BRANCH  16  19
ATOM     19  C   UNL     1       7.038  -3.888  22.030  0.00  0.00    +0.085 C 
BRANCH  19  21
ATOM     20  C   UNL     1       6.755  -6.394  21.952  0.00  0.00    +0.005 C 
ATOM     21  C   UNL     1       6.176  -5.055  21.516  0.00  0.00    +0.012 C 
ENDBRANCH  19  21
ENDBRANCH  16  19
ENDBRANCH  13  16
ENDBRANCH   1  13
TORSDOF 8
ENDMDL
MODEL 8
REMARK VINA RESULT:      -5.0      1.459      1.845
REMARK  Name = 
REMARK  13 active torsions:
REMARK  status: ('A' for Active; 'I' for Inactive)
REMARK    1  A    between atoms: C_1  and  C_2
REMARK    2  A    between atoms: C_2  and  C_3
REMARK    3  A    between atoms: C_3  and  N_4
REMARK    4  A    between atoms: N_4  and  C_5
REMARK    5  A    between atoms: N_4  and  C_7
REMARK    6  A    between atoms: C_5  and  C_6
REMARK    7  A    between atoms: C_7  and  C_8
REMARK    8  A    between atoms: C_7  and  C_10
REMARK    9  A    between atoms: C_8  and  C_9
REMARK   10  A    between atoms: C_10  and  O_11
REMARK   11  A    between atoms: N_12  and  C_13
REMARK   12  A    between atoms: C_14  and  C_15
REMARK   13  A    between atoms: C_19  and  C_20
REMARK                            x       y       z     vdW  Elec       q    Type
REMARK                         _______ _______ _______ _____ _____    ______ ____
ROOT
ATOM      1  C   UNL     1       7.104  -1.512  23.727  0.00  0.00    +0.205 C 
ATOM      2  N   UNL     1       8.236  -1.008  24.098  0.00  0.00    -0.216 NA
ENDROOT
BRANCH   2   3
ATOM      3  C   UNL     1       8.698   0.281  23.747  0.00  0.00    +0.073 A 
ATOM      4  C   UNL     1       9.426   0.599  22.575  0.00  0.00    -0.025 A 
ATOM      5  C   UNL     1       9.725  -0.371  21.465  0.00  0.00    +0.046 C 
ATOM      6  C   UNL     1       9.903   1.913  22.372  0.00  0.00    +0.005 A 
ATOM      7  C   UNL     1       9.729   2.901  23.328  0.00  0.00    +0.001 A 
ATOM      8  C   UNL     1       9.047   2.598  24.502  0.00  0.00    +0.005 A 
ATOM      9  C   UNL     1       8.531   1.306  24.719  0.00  0.00    -0.025 A 
ATOM     10  C   UNL     1       7.835   1.084  26.037  0.00  0.00    +0.046 C 
ENDBRANCH   2   3
BRANCH   1  11
ATOM     11  O   UNL     1       6.222  -0.903  22.903  0.00  0.00    -0.494 OA
ATOM     12  H   UNL     1       5.712  -0.247  23.423  0.00  0.00    +0.293 HD
ENDBRANCH   1  11
BRANCH   1  13
ATOM     13  C   UNL     1       6.634  -2.910  24.171  0.00  0.00    +0.142 C 
BRANCH  13  14
ATOM     14  C   UNL     1       5.280  -2.734  24.909  0.00  0.00    +0.025 C 
ATOM     15  C   UNL     1       4.159  -3.669  24.467  0.00  0.00    +0.006 C 
ENDBRANCH  13  14
BRANCH  13  16
ATOM     16  N   UNL     1       7.731  -3.605  24.960  0.00  0.00    -0.292 NA
BRANCH  16  17
ATOM     17  C   UNL     1       8.131  -4.898  24.331  0.00  0.00    +0.082 C 
ATOM     18  C   UNL     1       7.425  -5.302  23.042  0.00  0.00    +0.020 C 
ENDBRANCH  16  17
BRANCH  16  19
ATOM     19  C   UNL     1       7.315  -3.807  26.374  0.00  0.00    +0.085 C 
BRANCH  19  21
ATOM     20  C   UNL     1       5.950  -5.766  27.191  0.00  0.00    +0.005 C 
ATOM     21  C   UNL     1       7.354  -5.256  26.893  0.00  0.00    +0.012 C 
ENDBRANCH  19  21
ENDBRANCH  16  19
ENDBRANCH  13  16
ENDBRANCH   1  13
TORSDOF 8
ENDMDL
MODEL 9
REMARK VINA RESULT:      -5.0      1.876      3.294
REMARK  Name = 
REMARK  13 active torsions:
REMARK  status: ('A' for Active; 'I' for Inactive)
REMARK    1  A    between atoms: C_1  and  C_2
REMARK    2  A    between atoms: C_2  and  C_3
REMARK    3  A    between atoms: C_3  and  N_4
REMARK    4  A    between atoms: N_4  and  C_5
REMARK    5  A    between atoms: N_4  and  C_7
REMARK    6  A    between atoms: C_5  and  C_6
REMARK    7  A    between atoms: C_7  and  C_8
REMARK    8  A    between atoms: C_7  and  C_10
REMARK    9  A    between atoms: C_8  and  C_9
REMARK   10  A    between atoms: C_10  and  O_11
REMARK   11  A    between atoms: N_12  and  C_13
REMARK   12  A    between atoms: C_14  and  C_15
REMARK   13  A    between atoms: C_19  and  C_20
REMARK                            x       y       z     vdW  Elec       q    Type
REMARK                         _______ _______ _______ _____ _____    ______ ____
ROOT
ATOM      1  C   UNL     1       7.194  -2.635  23.166  0.00  0.00    +0.205 C 
ATOM      2  N   UNL     1       7.978  -1.678  23.542  0.00  0.00    -0.216 NA
ENDROOT
BRANCH   2   3
ATOM      3  C   UNL     1       7.841  -0.325  23.154  0.00  0.00    +0.073 A 
ATOM      4  C   UNL     1       6.846   0.566  23.625  0.00  0.00    -0.025 A 
ATOM      5  C   UNL     1       5.846   0.237  24.700  0.00  0.00    +0.046 C 
ATOM      6  C   UNL     1       6.762   1.875  23.103  0.00  0.00    +0.005 A 
ATOM      7  C   UNL     1       7.598   2.302  22.084  0.00  0.00    +0.001 A 
ATOM      8  C   UNL     1       8.558   1.429  21.582  0.00  0.00    +0.005 A 
ATOM      9  C   UNL     1       8.688   0.128  22.105  0.00  0.00    -0.025 A 
ATOM     10  C   UNL     1       9.744  -0.739  21.468  0.00  0.00    +0.046 C 
ENDBRANCH   2   3
BRANCH   1  11
ATOM     11  O   UNL     1       6.163  -2.495  22.303  0.00  0.00    -0.494 OA
ATOM     12  H   UNL     1       6.506  -2.592  21.390  0.00  0.00    +0.293 HD
ENDBRANCH   1  11
BRANCH   1  13
ATOM     13  C   UNL     1       7.369  -4.087  23.650  0.00  0.00    +0.142 C 
BRANCH  13  14
ATOM     14  C   UNL     1       6.484  -4.988  22.748  0.00  0.00    +0.025 C 
ATOM     15  C   UNL     1       7.220  -6.075  21.972  0.00  0.00    +0.006 C 
ENDBRANCH  13  14
BRANCH  13  16
ATOM     16  N   UNL     1       7.100  -4.177  25.142  0.00  0.00    -0.292 NA
BRANCH  16  17
ATOM     17  C   UNL     1       8.062  -5.093  25.824  0.00  0.00    +0.082 C 
ATOM     18  C   UNL     1       9.488  -5.138  25.290  0.00  0.00    +0.020 C 
ENDBRANCH  16  17
BRANCH  16  19
ATOM     19  C   UNL     1       5.695  -4.595  25.400  0.00  0.00    +0.085 C 
BRANCH  19  21
ATOM     20  C   UNL     1       4.589  -6.863  25.409  0.00  0.00    +0.005 C 
ATOM     21  C   UNL     1       5.509  -5.915  26.169  0.00  0.00    +0.012 C 
ENDBRANCH  19  21
ENDBRANCH  16  19
ENDBRANCH  13  16
ENDBRANCH   1  13
TORSDOF 8
ENDMDL
