MODEL 1
REMARK VINA RESULT:      -6.3      0.000      0.000
REMARK  Name = 
REMARK  8 active torsions:
REMARK  status: ('A' for Active; 'I' for Inactive)
REMARK    1  A    between atoms: C_2  and  O_3
REMARK    2  A    between atoms: N_5  and  C_6
REMARK    3  A    between atoms: C_6  and  C_7
REMARK    4  A    between atoms: C_7  and  C_8
REMARK    5  A    between atoms: C_8  and  C_9
REMARK    6  A    between atoms: C_16  and  C_18
REMARK    7  A    between atoms: C_18  and  O_19
REMARK    8  A    between atoms: C_20  and  O_22
REMARK                            x       y       z     vdW  Elec       q    Type
REMARK                         _______ _______ _______ _____ _____    ______ ____
ROOT
ATOM      1  C   UNL     1       8.891  -5.260  25.842  0.00  0.00    +0.157 C 
ATOM      2  C   UNL     1       7.618  -5.094  26.695  0.00  0.00    +0.151 C 
ATOM      3  C   UNL     1       6.367  -5.275  25.837  0.00  0.00    +0.059 C 
ATOM      4  C   UNL     1       6.420  -4.354  24.611  0.00  0.00    +0.092 C 
ATOM      5  N   UNL     1       7.633  -4.563  23.798  0.00  0.00    -0.299 NA
ATOM      6  C   UNL     1       8.836  -4.334  24.616  0.00  0.00    +0.118 C 
ENDROOT
BRANCH   2   7
ATOM      7  O   UNL     1       7.582  -6.047  27.768  0.00  0.00    -0.389 OA
ATOM      8  H   UNL     1       6.745  -6.538  27.706  0.00  0.00    +0.210 HD
ENDBRANCH   2   7
BRANCH   1   9
ATOM      9  O   UNL     1      10.037  -4.954  26.642  0.00  0.00    -0.388 OA
ATOM     10  H   UNL     1      10.281  -5.761  27.126  0.00  0.00    +0.210 HD
ENDBRANCH   1   9
BRANCH   3  11
ATOM     11  C   UNL     1       5.074  -5.026  26.623  0.00  0.00    +0.163 C 
BRANCH  11  12
ATOM     12  O   UNL     1       5.296  -4.179  27.746  0.00  0.00    -0.395 OA
ATOM     13  H   UNL     1       5.789  -3.401  27.430  0.00  0.00    +0.209 HD
ENDBRANCH  11  12
ENDBRANCH   3  11
BRANCH   5  14
ATOM     14  C   UNL     1       7.650  -3.671  22.615  0.00  0.00    +0.085 C 
BRANCH  14  15
ATOM     15  C   UNL     1       8.050  -2.229  22.958  0.00  0.00    +0.020 C 
BRANCH  15  16
ATOM     16  C   UNL     1       9.086  -1.662  21.986  0.00  0.00    +0.036 C 
BRANCH  16  17
ATOM     17  C   UNL     1       9.674  -0.383  22.536  0.00  0.00    -0.047 A 
ATOM     18  C   UNL     1       9.641   0.796  21.779  0.00  0.00    +0.003 A 
ATOM     19  C   UNL     1      10.130   1.992  22.307  0.00  0.00    +0.000 A 
ATOM     20  C   UNL     1      10.650   2.022  23.599  0.00  0.00    +0.000 A 
ATOM     21  C   UNL     1      10.683   0.857  24.366  0.00  0.00    +0.000 A 
ATOM     22  C   UNL     1      10.195  -0.340  23.837  0.00  0.00    +0.003 A 
ENDBRANCH  16  17
ENDBRANCH  15  16
ENDBRANCH  14  15
ENDBRANCH   5  14
TORSDOF 8
ENDMDL
MODEL 2
REMARK VINA RESULT:      -6.2      2.540      3.288
REMARK  Name = 
REMARK  8 active torsions:
REMARK  status: ('A' for Active; 'I' for Inactive)
REMARK    1  A    between atoms: C_2  and  O_3
REMARK    2  A    between atoms: N_5  and  C_6
REMARK    3  A    between atoms: C_6  and  C_7
REMARK    4  A    between atoms: C_7  and  C_8
REMARK    5  A    between atoms: C_8  and  C_9
REMARK    6  A    between atoms: C_16  and  C_18
REMARK    7  A    between atoms: C_18  and  O_19
REMARK    8  A    between atoms: C_20  and  O_22
REMARK                            x       y       z     vdW  Elec       q    Type
REMARK                         _______ _______ _______ _____ _____    ______ ____
ROOT
ATOM      1  C   UNL     1       5.826  -3.769  22.389  0.00  0.00    +0.157 C 
ATOM      2  C   UNL     1       5.108  -5.009  22.956  0.00  0.00    +0.151 C 
ATOM      3  C   UNL     1       5.400  -5.166  24.447  0.00  0.00    +0.059 C 
ATOM      4  C   UNL     1       6.912  -5.151  24.702  0.00  0.00    +0.092 C 
ATOM      5  N   UNL     1       7.563  -3.935  24.179  0.00  0.00    -0.299 NA
ATOM      6  C   UNL     1       7.325  -3.818  22.730  0.00  0.00    +0.118 C 
ENDROOT
BRANCH   2   7
ATOM      7  O   UNL     1       3.687  -4.919  22.771  0.00  0.00    -0.389 OA
ATOM      8  H   UNL     1       3.258  -5.194  23.599  0.00  0.00    +0.210 HD
ENDBRANCH   2   7
BRANCH   1   9
ATOM      9  O   UNL     1       5.643  -3.727  20.970  0.00  0.00    -0.388 OA
ATOM     10  H   UNL     1       6.297  -3.106  20.608  0.00  0.00    +0.210 HD
ENDBRANCH   1   9
BRANCH   3  11
ATOM     11  C   UNL     1       4.782  -6.440  25.036  0.00  0.00    +0.163 C 
BRANCH  11  12
ATOM     12  O   UNL     1       4.496  -7.402  24.025  0.00  0.00    -0.395 OA
ATOM     13  H   UNL     1       4.834  -8.260  24.337  0.00  0.00    +0.209 HD
ENDBRANCH  11  12
ENDBRANCH   3  11
BRANCH   5  14
ATOM     14  C   UNL     1       9.018  -3.941  24.452  0.00  0.00    +0.085 C 
BRANCH  14  15
ATOM     15  C   UNL     1       9.735  -2.695  23.910  0.00  0.00    +0.020 C 
BRANCH  15  16
ATOM     16  C   UNL     1       9.368  -1.427  24.681  0.00  0.00    +0.036 C 
BRANCH  16  17
ATOM     17  C   UNL     1       9.697  -0.202  23.859  0.00  0.00    -0.047 A 
ATOM     18  C   UNL     1       9.398  -0.164  22.490  0.00  0.00    +0.003 A 
ATOM     19  C   UNL     1       9.648   0.987  21.741  0.00  0.00    +0.000 A 
ATOM     20  C   UNL     1      10.191   2.113  22.355  0.00  0.00    +0.000 A 
ATOM     21  C   UNL     1      10.488   2.091  23.718  0.00  0.00    +0.000 A 
ATOM     22  C   UNL     1      10.240   0.939  24.467  0.00  0.00    +0.003 A 
ENDBRANCH  16  17
ENDBRANCH  15  16
ENDBRANCH  14  15
ENDBRANCH   5  14
TORSDOF 8
ENDMDL
MODEL 3
REMARK VINA RESULT:      -6.1      1.591      2.323
REMARK  Name = 
REMARK  8 active torsions:
REMARK  status: ('A' for Active; 'I' for Inactive)
REMARK    1  A    between atoms: C_2  and  O_3
REMARK    2  A    between atoms: N_5  and  C_6
REMARK    3  A    between atoms: C_6  and  C_7
REMARK    4  A    between atoms: C_7  and  C_8
REMARK    5  A    between atoms: C_8  and  C_9
REMARK    6  A    between atoms: C_16  and  C_18
REMARK    7  A    between atoms: C_18  and  O_19
REMARK    8  A    between atoms: C_20  and  O_22
REMARK                            x       y       z     vdW  Elec       q    Type
REMARK                         _______ _______ _______ _____ _____    ______ ____
ROOT
ATOM      1  C   UNL     1       5.229  -5.795  23.973  0.00  0.00    +0.157 C 
ATOM      2  C   UNL     1       6.002  -5.918  25.300  0.00  0.00    +0.151 C 
ATOM      3  C   UNL     1       6.456  -4.543  25.789  0.00  0.00    +0.059 C 
ATOM      4  C   UNL     1       7.227  -3.809  24.686  0.00  0.00    +0.092 C 
ATOM      5  N   UNL     1       6.447  -3.677  23.441  0.00  0.00    -0.299 NA
ATOM      6  C   UNL     1       6.059  -5.009  22.943  0.00  0.00    +0.118 C 
ENDROOT
BRANCH   2   7
ATOM      7  O   UNL     1       5.194  -6.526  26.319  0.00  0.00    -0.389 OA
ATOM      8  H   UNL     1       5.585  -7.388  26.539  0.00  0.00    +0.210 HD
ENDBRANCH   2   7
BRANCH   1   9
ATOM      9  O   UNL     1       4.937  -7.104  23.476  0.00  0.00    -0.388 OA
ATOM     10  H   UNL     1       4.560  -7.620  24.209  0.00  0.00    +0.210 HD
ENDBRANCH   1   9
BRANCH   3  11
ATOM     11  C   UNL     1       7.310  -4.625  27.060  0.00  0.00    +0.163 C 
BRANCH  11  12
ATOM     12  O   UNL     1       7.887  -5.916  27.225  0.00  0.00    -0.395 OA
ATOM     13  H   UNL     1       7.776  -6.167  28.159  0.00  0.00    +0.209 HD
ENDBRANCH  11  12
ENDBRANCH   3  11
BRANCH   5  14
ATOM     14  C   UNL     1       7.211  -2.953  22.399  0.00  0.00    +0.085 C 
BRANCH  14  15
ATOM     15  C   UNL     1       8.588  -2.479  22.886  0.00  0.00    +0.020 C 
BRANCH  15  16
ATOM     16  C   UNL     1       9.308  -1.613  21.852  0.00  0.00    +0.036 C 
BRANCH  16  17
ATOM     17  C   UNL     1       9.798  -0.334  22.492  0.00  0.00    -0.047 A 
ATOM     18  C   UNL     1       9.716   0.883  21.801  0.00  0.00    +0.003 A 
ATOM     19  C   UNL     1      10.114   2.073  22.411  0.00  0.00    +0.000 A 
ATOM     20  C   UNL     1      10.591   2.060  23.720  0.00  0.00    +0.000 A 
ATOM     21  C   UNL     1      10.672   0.857  24.421  0.00  0.00    +0.000 A 
ATOM     22  C   UNL     1      10.276  -0.335  23.811  0.00  0.00    +0.003 A 
ENDBRANCH  16  17
ENDBRANCH  15  16
ENDBRANCH  14  15
ENDBRANCH   5  14
TORSDOF 8
ENDMDL
MODEL 4
REMARK VINA RESULT:      -6.1      1.790      2.063
REMARK  Name = 
REMARK  8 active torsions:
REMARK  status: ('A' for Active; 'I' for Inactive)
REMARK    1  A    between atoms: C_2  and  O_3
REMARK    2  A    between atoms: N_5  and  C_6
REMARK    3  A    between atoms: C_6  and  C_7
REMARK    4  A    between atoms: C_7  and  C_8
REMARK    5  A    between atoms: C_8  and  C_9
REMARK    6  A    between atoms: C_16  and  C_18
REMARK    7  A    between atoms: C_18  and  O_19
REMARK    8  A    between atoms: C_20  and  O_22
REMARK                            x       y       z     vdW  Elec       q    Type
REMARK                         _______ _______ _______ _____ _____    ______ ____
ROOT
ATOM      1  C   UNL     1       7.077  -5.198  26.463  0.00  0.00    +0.157 C 
ATOM      2  C   UNL     1       5.708  -5.680  25.948  0.00  0.00    +0.151 C 
ATOM      3  C   UNL     1       5.737  -5.863  24.431  0.00  0.00    +0.059 C 
ATOM      4  C   UNL     1       6.247  -4.590  23.746  0.00  0.00    +0.092 C 
ATOM      5  N   UNL     1       7.575  -4.175  24.237  0.00  0.00    -0.299 NA
ATOM      6  C   UNL     1       7.528  -3.946  25.692  0.00  0.00    +0.118 C 
ENDROOT
BRANCH   2   7
ATOM      7  O   UNL     1       5.330  -6.924  26.555  0.00  0.00    -0.389 OA
ATOM      8  H   UNL     1       5.662  -7.646  25.993  0.00  0.00    +0.210 HD
ENDBRANCH   2   7
BRANCH   1   9
ATOM      9  O   UNL     1       6.978  -4.908  27.861  0.00  0.00    -0.388 OA
ATOM     10  H   UNL     1       6.162  -5.322  28.190  0.00  0.00    +0.210 HD
ENDBRANCH   1   9
BRANCH   3  11
ATOM     11  C   UNL     1       4.368  -6.253  23.860  0.00  0.00    +0.163 C 
BRANCH  11  12
ATOM     12  O   UNL     1       4.102  -7.641  24.033  0.00  0.00    -0.395 OA
ATOM     13  H   UNL     1       3.188  -7.723  24.358  0.00  0.00    +0.209 HD
ENDBRANCH  11  12
ENDBRANCH   3  11
BRANCH   5  14
ATOM     14  C   UNL     1       8.048  -2.952  23.549  0.00  0.00    +0.085 C 
BRANCH  14  15
ATOM     15  C   UNL     1       9.409  -2.462  24.066  0.00  0.00    +0.020 C 
BRANCH  15  16
ATOM     16  C   UNL     1      10.300  -1.923  22.946  0.00  0.00    +0.036 C 
BRANCH  16  17
ATOM     17  C   UNL     1      10.278  -0.412  22.941  0.00  0.00    -0.047 A 
ATOM     18  C   UNL     1       9.798   0.288  21.826  0.00  0.00    +0.003 A 
ATOM     19  C   UNL     1       9.722   1.681  21.841  0.00  0.00    +0.000 A 
ATOM     20  C   UNL     1      10.118   2.388  22.974  0.00  0.00    +0.000 A 
ATOM     21  C   UNL     1      10.593   1.704  24.093  0.00  0.00    +0.000 A 
ATOM     22  C   UNL     1      10.671   0.309  24.078  0.00  0.00    +0.003 A 
ENDBRANCH  16  17
ENDBRANCH  15  16
ENDBRANCH  14  15
ENDBRANCH   5  14
TORSDOF 8
ENDMDL
MODEL 5
REMARK VINA RESULT:      -5.9      2.572      3.666
REMARK  Name = 
REMARK  8 active torsions:
REMARK  status: ('A' for Active; 'I' for Inactive)
REMARK    1  A    between atoms: C_2  and  O_3
REMARK    2  A    between atoms: N_5  and  C_6
REMARK    3  A    between atoms: C_6  and  C_7
REMARK    4  A    between atoms: C_7  and  C_8
REMARK    5  A    between atoms: C_8  and  C_9
REMARK    6  A    between atoms: C_16  and  C_18
REMARK    7  A    between atoms: C_18  and  O_19
REMARK    8  A    between atoms: C_20  and  O_22
REMARK                            x       y       z     vdW  Elec       q    Type
REMARK                         _______ _______ _______ _____ _____    ______ ____
ROOT
ATOM      1  C   UNL     1       5.300  -5.446  24.714  0.00  0.00    +0.157 C 
ATOM      2  C   UNL     1       5.151  -5.458  23.180  0.00  0.00    +0.151 C 
ATOM      3  C   UNL     1       6.457  -5.890  22.515  0.00  0.00    +0.059 C 
ATOM      4  C   UNL     1       7.624  -5.035  23.020  0.00  0.00    +0.092 C 
ATOM      5  N   UNL     1       7.762  -5.072  24.488  0.00  0.00    -0.299 NA
ATOM      6  C   UNL     1       6.519  -4.602  25.125  0.00  0.00    +0.118 C 
ENDROOT
BRANCH   2   7
ATOM      7  O   UNL     1       4.105  -6.350  22.766  0.00  0.00    -0.389 OA
ATOM      8  H   UNL     1       4.459  -7.256  22.780  0.00  0.00    +0.210 HD
ENDBRANCH   2   7
BRANCH   1   9
ATOM      9  O   UNL     1       4.109  -4.910  25.298  0.00  0.00    -0.388 OA
ATOM     10  H   UNL     1       3.351  -5.296  24.826  0.00  0.00    +0.210 HD
ENDBRANCH   1   9
BRANCH   3  11
ATOM     11  C   UNL     1       6.385  -5.828  20.984  0.00  0.00    +0.163 C 
BRANCH  11  12
ATOM     12  O   UNL     1       5.770  -4.625  20.535  0.00  0.00    -0.395 OA
ATOM     13  H   UNL     1       6.393  -4.191  19.926  0.00  0.00    +0.209 HD
ENDBRANCH  11  12
ENDBRANCH   3  11
BRANCH   5  14
ATOM     14  C   UNL     1       8.905  -4.249  24.946  0.00  0.00    +0.085 C 
BRANCH  14  15
ATOM     15  C   UNL     1       8.840  -2.801  24.440  0.00  0.00    +0.020 C 
BRANCH  15  16
ATOM     16  C   UNL     1      10.096  -2.393  23.669  0.00  0.00    +0.036 C 
BRANCH  16  17
ATOM     17  C   UNL     1      10.025  -0.931  23.290  0.00  0.00    -0.047 A 
ATOM     18  C   UNL     1      10.476   0.055  24.177  0.00  0.00    +0.003 A 
ATOM     19  C   UNL     1      10.466   1.401  23.808  0.00  0.00    +0.000 A 
ATOM     20  C   UNL     1      10.011   1.772  22.545  0.00  0.00    +0.000 A 
ATOM     21  C   UNL     1       9.564   0.800  21.649  0.00  0.00    +0.000 A 
ATOM     22  C   UNL     1       9.573  -0.546  22.020  0.00  0.00    +0.003 A 
ENDBRANCH  16  17
ENDBRANCH  15  16
ENDBRANCH  14  15
ENDBRANCH   5  14
TORSDOF 8
ENDMDL
MODEL 6
REMARK VINA RESULT:      -5.7      2.350      3.732
REMARK  Name = 
REMARK  8 active torsions:
REMARK  status: ('A' for Active; 'I' for Inactive)
REMARK    1  A    between atoms: C_2  and  O_3
REMARK    2  A    between atoms: N_5  and  C_6
REMARK    3  A    between atoms: C_6  and  C_7
REMARK    4  A    between atoms: C_7  and  C_8
REMARK    5  A    between atoms: C_8  and  C_9
REMARK    6  A    between atoms: C_16  and  C_18
REMARK    7  A    between atoms: C_18  and  O_19
REMARK    8  A    between atoms: C_20  and  O_22
REMARK                            x       y       z     vdW  Elec       q    Type
REMARK                         _______ _______ _______ _____ _____    ______ ____
ROOT
ATOM      1  C   UNL     1       7.027  -3.420  22.980  0.00  0.00    +0.157 C 
ATOM      2  C   UNL     1       7.507  -4.526  23.940  0.00  0.00    +0.151 C 
ATOM      3  C   UNL     1       8.505  -3.965  24.952  0.00  0.00    +0.059 C 
ATOM      4  C   UNL     1       9.640  -3.227  24.234  0.00  0.00    +0.092 C 
ATOM      5  N   UNL     1       9.149  -2.152  23.351  0.00  0.00    -0.299 NA
ATOM      6  C   UNL     1       8.231  -2.707  22.341  0.00  0.00    +0.118 C 
ENDROOT
BRANCH   2   7
ATOM      7  O   UNL     1       6.408  -5.112  24.652  0.00  0.00    -0.389 OA
ATOM      8  H   UNL     1       5.584  -4.743  24.290  0.00  0.00    +0.210 HD
ENDBRANCH   2   7
BRANCH   1   9
ATOM      9  O   UNL     1       6.203  -4.003  21.966  0.00  0.00    -0.388 OA
ATOM     10  H   UNL     1       6.391  -3.540  21.132  0.00  0.00    +0.210 HD
ENDBRANCH   1   9
BRANCH   3  11
ATOM     11  C   UNL     1       9.082  -5.049  25.871  0.00  0.00    +0.163 C 
BRANCH  11  12
ATOM     12  O   UNL     1      10.245  -5.648  25.310  0.00  0.00    -0.395 OA
ATOM     13  H   UNL     1      10.873  -5.802  26.038  0.00  0.00    +0.209 HD
ENDBRANCH  11  12
ENDBRANCH   3  11
BRANCH   5  14
ATOM     14  C   UNL     1      10.268  -1.448  22.682  0.00  0.00    +0.085 C 
BRANCH  14  15
ATOM     15  C   UNL     1      10.272   0.063  22.953  0.00  0.00    +0.020 C 
BRANCH  15  16
ATOM     16  C   UNL     1       9.696   0.869  21.788  0.00  0.00    +0.036 C 
BRANCH  16  17
ATOM     17  C   UNL     1       9.000   2.108  22.302  0.00  0.00    -0.047 A 
ATOM     18  C   UNL     1       9.621   2.929  23.252  0.00  0.00    +0.003 A 
ATOM     19  C   UNL     1       9.005   4.104  23.685  0.00  0.00    +0.000 A 
ATOM     20  C   UNL     1       7.766   4.472  23.168  0.00  0.00    +0.000 A 
ATOM     21  C   UNL     1       7.138   3.667  22.217  0.00  0.00    +0.000 A 
ATOM     22  C   UNL     1       7.754   2.490  21.785  0.00  0.00    +0.003 A 
ENDBRANCH  16  17
ENDBRANCH  15  16
ENDBRANCH  14  15
ENDBRANCH   5  14
TORSDOF 8
ENDMDL
MODEL 7
REMARK VINA RESULT:      -5.7      3.773      7.466
REMARK  Name = 
REMARK  8 active torsions:
REMARK  status: ('A' for Active; 'I' for Inactive)
REMARK    1  A    between atoms: C_2  and  O_3
REMARK    2  A    between atoms: N_5  and  C_6
REMARK    3  A    between atoms: C_6  and  C_7
REMARK    4  A    between atoms: C_7  and  C_8
REMARK    5  A    between atoms: C_8  and  C_9
REMARK    6  A    between atoms: C_16  and  C_18
REMARK    7  A    between atoms: C_18  and  O_19
REMARK    8  A    between atoms: C_20  and  O_22
REMARK                            x       y       z     vdW  Elec       q    Type
REMARK                         _______ _______ _______ _____ _____    ______ ____
ROOT
ATOM      1  C   UNL     1       9.857  -0.211  22.124  0.00  0.00    +0.157 C 
ATOM      2  C   UNL     1       9.479   1.266  22.349  0.00  0.00    +0.151 C 
ATOM      3  C   UNL     1       9.765   1.683  23.791  0.00  0.00    +0.059 C 
ATOM      4  C   UNL     1       9.097   0.713  24.772  0.00  0.00    +0.092 C 
ATOM      5  N   UNL     1       9.507  -0.687  24.553  0.00  0.00    -0.299 NA
ATOM      6  C   UNL     1       9.177  -1.102  23.178  0.00  0.00    +0.118 C 
ENDROOT
BRANCH   2   7
ATOM      7  O   UNL     1      10.208   2.131  21.466  0.00  0.00    -0.389 OA
ATOM      8  H   UNL     1      10.414   2.950  21.948  0.00  0.00    +0.210 HD
ENDBRANCH   2   7
BRANCH   1   9
ATOM      9  O   UNL     1       9.453  -0.605  20.810  0.00  0.00    -0.388 OA
ATOM     10  H   UNL     1       8.536  -0.306  20.682  0.00  0.00    +0.210 HD
ENDBRANCH   1   9
BRANCH   3  11
ATOM     11  C   UNL     1       9.318   3.120  24.087  0.00  0.00    +0.163 C 
BRANCH  11  12
ATOM     12  O   UNL     1      10.089   4.071  23.360  0.00  0.00    -0.395 OA
ATOM     13  H   UNL     1      10.998   4.032  23.705  0.00  0.00    +0.209 HD
ENDBRANCH  11  12
ENDBRANCH   3  11
BRANCH   5  14
ATOM     14  C   UNL     1       8.857  -1.598  25.524  0.00  0.00    +0.085 C 
BRANCH  14  15
ATOM     15  C   UNL     1       8.875  -3.066  25.072  0.00  0.00    +0.020 C 
BRANCH  15  16
ATOM     16  C   UNL     1       8.433  -4.025  26.178  0.00  0.00    +0.036 C 
BRANCH  16  17
ATOM     17  C   UNL     1       7.249  -4.845  25.717  0.00  0.00    -0.047 A 
ATOM     18  C   UNL     1       6.440  -5.509  26.648  0.00  0.00    +0.003 A 
ATOM     19  C   UNL     1       5.314  -6.219  26.230  0.00  0.00    +0.000 A 
ATOM     20  C   UNL     1       4.982  -6.265  24.878  0.00  0.00    +0.000 A 
ATOM     21  C   UNL     1       5.776  -5.604  23.941  0.00  0.00    +0.000 A 
ATOM     22  C   UNL     1       6.904  -4.894  24.359  0.00  0.00    +0.003 A 
ENDBRANCH  16  17
ENDBRANCH  15  16
ENDBRANCH  14  15
ENDBRANCH   5  14
TORSDOF 8
ENDMDL
MODEL 8
REMARK VINA RESULT:      -5.6      3.131      6.356
REMARK  Name = 
REMARK  8 active torsions:
REMARK  status: ('A' for Active; 'I' for Inactive)
REMARK    1  A    between atoms: C_2  and  O_3
REMARK    2  A    between atoms: N_5  and  C_6
REMARK    3  A    between atoms: C_6  and  C_7
REMARK    4  A    between atoms: C_7  and  C_8
REMARK    5  A    between atoms: C_8  and  C_9
REMARK    6  A    between atoms: C_16  and  C_18
REMARK    7  A    between atoms: C_18  and  O_19
REMARK    8  A    between atoms: C_20  and  O_22
REMARK                            x       y       z     vdW  Elec       q    Type
REMARK                         _______ _______ _______ _____ _____    ______ ____
ROOT
ATOM      1  C   UNL     1       8.309   0.069  25.403  0.00  0.00    +0.157 C 
ATOM      2  C   UNL     1       9.421   0.437  24.402  0.00  0.00    +0.151 C 
ATOM      3  C   UNL     1       8.853   0.572  22.990  0.00  0.00    +0.059 C 
ATOM      4  C   UNL     1       8.061  -0.684  22.608  0.00  0.00    +0.092 C 
ATOM      5  N   UNL     1       6.982  -0.987  23.567  0.00  0.00    -0.299 NA
ATOM      6  C   UNL     1       7.542  -1.172  24.917  0.00  0.00    +0.118 C 
ENDROOT
BRANCH   2   7
ATOM      7  O   UNL     1      10.060   1.671  24.762  0.00  0.00    -0.389 OA
ATOM      8  H   UNL     1       9.404   2.384  24.679  0.00  0.00    +0.210 HD
ENDBRANCH   2   7
BRANCH   1   9
ATOM      9  O   UNL     1       8.893  -0.181  26.685  0.00  0.00    -0.388 OA
ATOM     10  H   UNL     1       9.337   0.636  26.970  0.00  0.00    +0.210 HD
ENDBRANCH   1   9
BRANCH   3  11
ATOM     11  C   UNL     1       9.939   0.846  21.943  0.00  0.00    +0.163 C 
BRANCH  11  12
ATOM     12  O   UNL     1      10.101   2.240  21.704  0.00  0.00    -0.395 OA
ATOM     13  H   UNL     1      10.382   2.647  22.543  0.00  0.00    +0.209 HD
ENDBRANCH  11  12
ENDBRANCH   3  11
BRANCH   5  14
ATOM     14  C   UNL     1       6.226  -2.196  23.165  0.00  0.00    +0.085 C 
BRANCH  14  15
ATOM     15  C   UNL     1       7.056  -3.165  22.310  0.00  0.00    +0.020 C 
BRANCH  15  16
ATOM     16  C   UNL     1       6.851  -4.625  22.714  0.00  0.00    +0.036 C 
BRANCH  16  17
ATOM     17  C   UNL     1       7.213  -4.821  24.169  0.00  0.00    -0.047 A 
ATOM     18  C   UNL     1       6.238  -5.205  25.099  0.00  0.00    +0.003 A 
ATOM     19  C   UNL     1       6.581  -5.443  26.430  0.00  0.00    +0.000 A 
ATOM     20  C   UNL     1       7.904  -5.307  26.843  0.00  0.00    +0.000 A 
ATOM     21  C   UNL     1       8.887  -4.931  25.927  0.00  0.00    +0.000 A 
ATOM     22  C   UNL     1       8.543  -4.691  24.595  0.00  0.00    +0.003 A 
ENDBRANCH  16  17
ENDBRANCH  15  16
ENDBRANCH  14  15
ENDBRANCH   5  14
TORSDOF 8
ENDMDL
MODEL 9
REMARK VINA RESULT:      -5.6      4.141      7.456
REMARK  Name = 
REMARK  8 active torsions:
REMARK  status: ('A' for Active; 'I' for Inactive)
REMARK    1  A    between atoms: C_2  and  O_3
REMARK    2  A    between atoms: N_5  and  C_6
REMARK    3  A    between atoms: C_6  and  C_7
REMARK    4  A    between atoms: C_7  and  C_8
REMARK    5  A    between atoms: C_8  and  C_9
REMARK    6  A    between atoms: C_16  and  C_18
REMARK    7  A    between atoms: C_18  and  O_19
REMARK    8  A    between atoms: C_20  and  O_22
REMARK                            x       y       z     vdW  Elec       q    Type
REMARK                         _______ _______ _______ _____ _____    ______ ____
ROOT
ATOM      1  C   UNL     1       7.568   1.269  22.475  0.00  0.00    +0.157 C 
ATOM      2  C   UNL     1       8.214   2.592  22.930  0.00  0.00    +0.151 C 
ATOM      3  C   UNL     1       9.721   2.420  23.116  0.00  0.00    +0.059 C 
ATOM      4  C   UNL     1      10.015   1.233  24.040  0.00  0.00    +0.092 C 
ATOM      5  N   UNL     1       9.412  -0.024  23.558  0.00  0.00    -0.299 NA
ATOM      6  C   UNL     1       7.953   0.130  23.433  0.00  0.00    +0.118 C 
ENDROOT
BRANCH   2   7
ATOM      7  O   UNL     1       7.984   3.640  21.976  0.00  0.00    -0.389 OA
ATOM      8  H   UNL     1       8.342   4.466  22.344  0.00  0.00    +0.210 HD
ENDBRANCH   2   7
BRANCH   1   9
ATOM      9  O   UNL     1       6.146   1.428  22.440  0.00  0.00    -0.388 OA
ATOM     10  H   UNL     1       5.905   1.720  21.544  0.00  0.00    +0.210 HD
ENDBRANCH   1   9
BRANCH   3  11
ATOM     11  C   UNL     1      10.394   3.687  23.658  0.00  0.00    +0.163 C 
BRANCH  11  12
ATOM     12  O   UNL     1      11.550   4.034  22.902  0.00  0.00    -0.395 OA
ATOM     13  H   UNL     1      12.292   4.115  23.526  0.00  0.00    +0.209 HD
ENDBRANCH  11  12
ENDBRANCH   3  11
BRANCH   5  14
ATOM     14  C   UNL     1       9.725  -1.155  24.462  0.00  0.00    +0.085 C 
BRANCH  14  15
ATOM     15  C   UNL     1       9.651  -2.520  23.762  0.00  0.00    +0.020 C 
BRANCH  15  16
ATOM     16  C   UNL     1       8.575  -3.427  24.360  0.00  0.00    +0.036 C 
BRANCH  16  17
ATOM     17  C   UNL     1       7.757  -4.064  23.259  0.00  0.00    -0.047 A 
ATOM     18  C   UNL     1       7.782  -5.452  23.069  0.00  0.00    +0.003 A 
ATOM     19  C   UNL     1       6.983  -6.048  22.092  0.00  0.00    +0.000 A 
ATOM     20  C   UNL     1       6.148  -5.264  21.301  0.00  0.00    +0.000 A 
ATOM     21  C   UNL     1       6.109  -3.881  21.483  0.00  0.00    +0.000 A 
ATOM     22  C   UNL     1       6.909  -3.284  22.460  0.00  0.00    +0.003 A 
ENDBRANCH  16  17
ENDBRANCH  15  16
ENDBRANCH  14  15
ENDBRANCH   5  14
TORSDOF 8
ENDMDL
