MODEL 1
REMARK VINA RESULT:      -6.8      0.000      0.000
REMARK  Name = 
REMARK  12 active torsions:
REMARK  status: ('A' for Active; 'I' for Inactive)
REMARK    1  A    between atoms: C_2  and  C_3
REMARK    2  A    between atoms: C_2  and  N_10
REMARK    3  A    between atoms: C_2  and  C_27
REMARK    4  A    between atoms: C_3  and  C_4
REMARK    5  A    between atoms: C_11  and  C_13
REMARK    6  A    between atoms: C_13  and  C_15
REMARK    7  A    between atoms: C_15  and  C_16
REMARK    8  A    between atoms: N_18  and  C_19
REMARK    9  A    between atoms: C_19  and  C_20
REMARK   10  A    between atoms: C_20  and  C_21
REMARK   11  A    between atoms: N_29  and  C_30
REMARK   12  A    between atoms: N_29  and  C_31
REMARK                            x       y       z     vdW  Elec       q    Type
REMARK                         _______ _______ _______ _____ _____    ______ ____
ROOT
ATOM      1  N   UNL     1       8.139  -2.521  24.573  0.00  0.00    -0.297 N 
ATOM      2  H   UNL     1       7.396  -2.856  25.188  0.00  0.00    +0.150 HD
ATOM      3  C   UNL     1       9.229  -3.325  24.368  0.00  0.00    +0.281 C 
ATOM      4  O   UNL     1      10.200  -3.044  23.681  0.00  0.00    -0.267 OA
ENDROOT
BRANCH   3   5
ATOM      5  C   UNL     1       9.188  -4.634  25.165  0.00  0.00    +0.226 C 
ATOM      6  O   UNL     1       9.473  -5.689  24.607  0.00  0.00    -0.287 OA
BRANCH   5   7
ATOM      7  C   UNL     1       8.768  -4.532  26.601  0.00  0.00    +0.180 C 
BRANCH   7   8
ATOM      8  C   UNL     1       7.541  -5.352  26.906  0.00  0.00    +0.221 C 
ATOM      9  N   UNL     1       6.659  -5.430  25.853  0.00  0.00    -0.315 N 
ATOM     10  H   UNL     1       6.778  -4.830  25.045  0.00  0.00    +0.149 HD
ATOM     11  O   UNL     1       7.366  -5.912  27.982  0.00  0.00    -0.275 OA
BRANCH   9  12
ATOM     12  C   UNL     1       5.441  -6.220  25.926  0.00  0.00    +0.110 C 
BRANCH  12  13
ATOM     13  C   UNL     1       4.664  -6.272  24.611  0.00  0.00    +0.074 C 
BRANCH  13  14
ATOM     14  C   UNL     1       5.277  -5.384  23.557  0.00  0.00    +0.043 A 
ATOM     15  C   UNL     1       4.737  -4.129  23.287  0.00  0.00    +0.023 A 
ATOM     16  C   UNL     1       5.344  -3.330  22.322  0.00  0.00    +0.003 A 
ATOM     17  C   UNL     1       6.459  -3.805  21.646  0.00  0.00    +0.020 A 
ATOM     18  C   UNL     1       6.921  -5.071  21.959  0.00  0.00    +0.111 A 
ATOM     19  N   UNL     1       6.360  -5.865  22.897  0.00  0.00    -0.260 NA
ENDBRANCH  13  14
ENDBRANCH  12  13
ENDBRANCH   9  12
ENDBRANCH   7   8
ENDBRANCH   5   7
ENDBRANCH   3   5
BRANCH   1  20
ATOM     20  C   UNL     1       8.010  -1.169  24.036  0.00  0.00    +0.164 C 
BRANCH  20  21
ATOM     21  C   UNL     1       9.151  -0.311  24.634  0.00  0.00    +0.236 C 
ATOM     22  N   UNL     1      10.027   0.357  23.783  0.00  0.00    -0.306 N 
ATOM     23  C   UNL     1      11.089   1.164  24.372  0.00  0.00    +0.131 C 
ATOM     24  C   UNL     1      10.082   0.231  22.333  0.00  0.00    +0.131 C 
ATOM     25  O   UNL     1       9.260  -0.220  25.863  0.00  0.00    -0.274 OA
ENDBRANCH  20  21
BRANCH  20  26
ATOM     26  C   UNL     1       6.619  -0.554  24.287  0.00  0.00    +0.067 C 
BRANCH  26  27
ATOM     27  C   UNL     1       6.466   0.908  23.914  0.00  0.00    -0.045 A 
ATOM     28  C   UNL     1       6.134   1.860  24.890  0.00  0.00    +0.004 A 
ATOM     29  C   UNL     1       6.025   3.213  24.559  0.00  0.00    +0.000 A 
ATOM     30  C   UNL     1       6.240   3.630  23.247  0.00  0.00    +0.000 A 
ATOM     31  C   UNL     1       6.551   2.692  22.265  0.00  0.00    +0.000 A 
ATOM     32  C   UNL     1       6.664   1.338  22.595  0.00  0.00    +0.004 A 
ENDBRANCH  26  27
ENDBRANCH  20  26
ENDBRANCH   1  20
TORSDOF 10
ENDMDL
MODEL 2
REMARK VINA RESULT:      -6.7      2.371      6.836
REMARK  Name = 
REMARK  12 active torsions:
REMARK  status: ('A' for Active; 'I' for Inactive)
REMARK    1  A    between atoms: C_2  and  C_3
REMARK    2  A    between atoms: C_2  and  N_10
REMARK    3  A    between atoms: C_2  and  C_27
REMARK    4  A    between atoms: C_3  and  C_4
REMARK    5  A    between atoms: C_11  and  C_13
REMARK    6  A    between atoms: C_13  and  C_15
REMARK    7  A    between atoms: C_15  and  C_16
REMARK    8  A    between atoms: N_18  and  C_19
REMARK    9  A    between atoms: C_19  and  C_20
REMARK   10  A    between atoms: C_20  and  C_21
REMARK   11  A    between atoms: N_29  and  C_30
REMARK   12  A    between atoms: N_29  and  C_31
REMARK                            x       y       z     vdW  Elec       q    Type
REMARK                         _______ _______ _______ _____ _____    ______ ____
ROOT
ATOM      1  N   UNL     1       7.518  -2.774  26.515  0.00  0.00    -0.297 N 
ATOM      2  H   UNL     1       8.377  -2.816  27.065  0.00  0.00    +0.150 HD
ATOM      3  C   UNL     1       6.962  -1.547  26.263  0.00  0.00    +0.281 C 
ATOM      4  O   UNL     1       5.928  -1.350  25.642  0.00  0.00    -0.267 OA
ENDROOT
BRANCH   3   5
ATOM      5  C   UNL     1       7.716  -0.384  26.916  0.00  0.00    +0.226 C 
ATOM      6  O   UNL     1       8.850  -0.567  27.349  0.00  0.00    -0.287 OA
BRANCH   5   7
ATOM      7  C   UNL     1       6.986   0.923  27.006  0.00  0.00    +0.180 C 
BRANCH   7   8
ATOM      8  C   UNL     1       7.370   1.880  25.907  0.00  0.00    +0.221 C 
ATOM      9  N   UNL     1       8.688   1.776  25.527  0.00  0.00    -0.315 N 
ATOM     10  H   UNL     1       9.336   1.232  26.085  0.00  0.00    +0.149 HD
ATOM     11  O   UNL     1       6.572   2.653  25.390  0.00  0.00    -0.275 OA
BRANCH   9  12
ATOM     12  C   UNL     1       9.242   2.572  24.444  0.00  0.00    +0.110 C 
BRANCH  12  13
ATOM     13  C   UNL     1      10.410   1.899  23.724  0.00  0.00    +0.074 C 
BRANCH  13  14
ATOM     14  C   UNL     1      10.056   0.515  23.242  0.00  0.00    +0.043 A 
ATOM     15  C   UNL     1       9.675   0.302  21.919  0.00  0.00    +0.023 A 
ATOM     16  C   UNL     1       9.377  -0.994  21.507  0.00  0.00    +0.003 A 
ATOM     17  C   UNL     1       9.453  -2.036  22.421  0.00  0.00    +0.020 A 
ATOM     18  C   UNL     1       9.820  -1.737  23.721  0.00  0.00    +0.111 A 
ATOM     19  N   UNL     1      10.125  -0.492  24.148  0.00  0.00    -0.260 NA
ENDBRANCH  13  14
ENDBRANCH  12  13
ENDBRANCH   9  12
ENDBRANCH   7   8
ENDBRANCH   5   7
ENDBRANCH   3   5
BRANCH   1  20
ATOM     20  C   UNL     1       6.911  -4.042  26.118  0.00  0.00    +0.164 C 
BRANCH  20  21
ATOM     21  C   UNL     1       6.702  -4.887  27.397  0.00  0.00    +0.236 C 
ATOM     22  N   UNL     1       5.546  -4.716  28.155  0.00  0.00    -0.306 N 
ATOM     23  C   UNL     1       5.372  -5.530  29.352  0.00  0.00    +0.131 C 
ATOM     24  C   UNL     1       4.528  -3.695  27.951  0.00  0.00    +0.131 C 
ATOM     25  O   UNL     1       7.562  -5.715  27.723  0.00  0.00    -0.274 OA
ENDBRANCH  20  21
BRANCH  20  26
ATOM     26  C   UNL     1       7.728  -4.790  25.046  0.00  0.00    +0.067 C 
BRANCH  26  27
ATOM     27  C   UNL     1       7.166  -4.747  23.638  0.00  0.00    -0.045 A 
ATOM     28  C   UNL     1       7.480  -5.758  22.716  0.00  0.00    +0.004 A 
ATOM     29  C   UNL     1       6.938  -5.741  21.429  0.00  0.00    +0.000 A 
ATOM     30  C   UNL     1       6.084  -4.711  21.044  0.00  0.00    +0.000 A 
ATOM     31  C   UNL     1       5.780  -3.690  21.944  0.00  0.00    +0.000 A 
ATOM     32  C   UNL     1       6.318  -3.707  23.234  0.00  0.00    +0.004 A 
ENDBRANCH  26  27
ENDBRANCH  20  26
ENDBRANCH   1  20
TORSDOF 10
ENDMDL
MODEL 3
REMARK VINA RESULT:      -6.7      1.906      2.954
REMARK  Name = 
REMARK  12 active torsions:
REMARK  status: ('A' for Active; 'I' for Inactive)
REMARK    1  A    between atoms: C_2  and  C_3
REMARK    2  A    between atoms: C_2  and  N_10
REMARK    3  A    between atoms: C_2  and  C_27
REMARK    4  A    between atoms: C_3  and  C_4
REMARK    5  A    between atoms: C_11  and  C_13
REMARK    6  A    between atoms: C_13  and  C_15
REMARK    7  A    between atoms: C_15  and  C_16
REMARK    8  A    between atoms: N_18  and  C_19
REMARK    9  A    between atoms: C_19  and  C_20
REMARK   10  A    between atoms: C_20  and  C_21
REMARK   11  A    between atoms: N_29  and  C_30
REMARK   12  A    between atoms: N_29  and  C_31
REMARK                            x       y       z     vdW  Elec       q    Type
REMARK                         _______ _______ _______ _____ _____    ______ ____
ROOT
ATOM      1  N   UNL     1       7.322  -2.128  25.135  0.00  0.00    -0.297 N 
ATOM      2  H   UNL     1       6.591  -2.822  25.298  0.00  0.00    +0.150 HD
ATOM      3  C   UNL     1       8.611  -2.563  24.972  0.00  0.00    +0.281 C 
ATOM      4  O   UNL     1       9.585  -1.848  24.795  0.00  0.00    -0.267 OA
ENDROOT
BRANCH   3   5
ATOM      5  C   UNL     1       8.772  -4.081  25.116  0.00  0.00    +0.226 C 
ATOM      6  O   UNL     1       8.857  -4.776  24.108  0.00  0.00    -0.287 OA
BRANCH   5   7
ATOM      7  C   UNL     1       8.789  -4.625  26.513  0.00  0.00    +0.180 C 
BRANCH   7   8
ATOM      8  C   UNL     1       7.537  -5.391  26.853  0.00  0.00    +0.221 C 
ATOM      9  N   UNL     1       6.631  -5.448  25.819  0.00  0.00    -0.315 N 
ATOM     10  H   UNL     1       6.757  -4.863  25.001  0.00  0.00    +0.149 HD
ATOM     11  O   UNL     1       7.362  -5.930  27.940  0.00  0.00    -0.275 OA
BRANCH   9  12
ATOM     12  C   UNL     1       5.385  -6.188  25.927  0.00  0.00    +0.110 C 
BRANCH  12  13
ATOM     13  C   UNL     1       4.725  -6.477  24.579  0.00  0.00    +0.074 C 
BRANCH  13  14
ATOM     14  C   UNL     1       5.221  -5.551  23.497  0.00  0.00    +0.043 A 
ATOM     15  C   UNL     1       5.894  -6.056  22.386  0.00  0.00    +0.023 A 
ATOM     16  C   UNL     1       6.317  -5.171  21.398  0.00  0.00    +0.003 A 
ATOM     17  C   UNL     1       6.072  -3.813  21.547  0.00  0.00    +0.020 A 
ATOM     18  C   UNL     1       5.415  -3.391  22.689  0.00  0.00    +0.111 A 
ATOM     19  N   UNL     1       4.984  -4.226  23.660  0.00  0.00    -0.260 NA
ENDBRANCH  13  14
ENDBRANCH  12  13
ENDBRANCH   9  12
ENDBRANCH   7   8
ENDBRANCH   5   7
ENDBRANCH   3   5
BRANCH   1  20
ATOM     20  C   UNL     1       6.936  -0.721  25.180  0.00  0.00    +0.164 C 
BRANCH  20  21
ATOM     21  C   UNL     1       5.578  -0.625  25.916  0.00  0.00    +0.236 C 
ATOM     22  N   UNL     1       5.473   0.150  27.068  0.00  0.00    -0.306 N 
ATOM     23  C   UNL     1       4.180   0.228  27.738  0.00  0.00    +0.131 C 
ATOM     24  C   UNL     1       6.570   0.802  27.769  0.00  0.00    +0.131 C 
ATOM     25  O   UNL     1       4.599  -1.230  25.461  0.00  0.00    -0.274 OA
ENDBRANCH  20  21
BRANCH  20  26
ATOM     26  C   UNL     1       6.896  -0.065  23.785  0.00  0.00    +0.067 C 
BRANCH  26  27
ATOM     27  C   UNL     1       8.075   0.824  23.439  0.00  0.00    -0.045 A 
ATOM     28  C   UNL     1       8.560   1.756  24.370  0.00  0.00    +0.004 A 
ATOM     29  C   UNL     1       9.667   2.554  24.070  0.00  0.00    +0.000 A 
ATOM     30  C   UNL     1      10.297   2.435  22.833  0.00  0.00    +0.000 A 
ATOM     31  C   UNL     1       9.814   1.528  21.893  0.00  0.00    +0.000 A 
ATOM     32  C   UNL     1       8.708   0.726  22.193  0.00  0.00    +0.004 A 
ENDBRANCH  26  27
ENDBRANCH  20  26
ENDBRANCH   1  20
TORSDOF 10
ENDMDL
MODEL 4
REMARK VINA RESULT:      -6.6      2.617      5.327
REMARK  Name = 
REMARK  12 active torsions:
REMARK  status: ('A' for Active; 'I' for Inactive)
REMARK    1  A    between atoms: C_2  and  C_3
REMARK    2  A    between atoms: C_2  and  N_10
REMARK    3  A    between atoms: C_2  and  C_27
REMARK    4  A    between atoms: C_3  and  C_4
REMARK    5  A    between atoms: C_11  and  C_13
REMARK    6  A    between atoms: C_13  and  C_15
REMARK    7  A    between atoms: C_15  and  C_16
REMARK    8  A    between atoms: N_18  and  C_19
REMARK    9  A    between atoms: C_19  and  C_20
REMARK   10  A    between atoms: C_20  and  C_21
REMARK   11  A    between atoms: N_29  and  C_30
REMARK   12  A    between atoms: N_29  and  C_31
REMARK                            x       y       z     vdW  Elec       q    Type
REMARK                         _______ _______ _______ _____ _____    ______ ____
ROOT
ATOM      1  N   UNL     1       7.627   2.110  24.399  0.00  0.00    -0.297 N 
ATOM      2  H   UNL     1       7.355   1.739  23.487  0.00  0.00    +0.150 HD
ATOM      3  C   UNL     1       6.877   1.767  25.494  0.00  0.00    +0.281 C 
ATOM      4  O   UNL     1       7.071   2.154  26.637  0.00  0.00    -0.267 OA
ENDROOT
BRANCH   3   5
ATOM      5  C   UNL     1       5.667   0.888  25.161  0.00  0.00    +0.226 C 
ATOM      6  O   UNL     1       4.587   1.416  24.916  0.00  0.00    -0.287 OA
BRANCH   5   7
ATOM      7  C   UNL     1       5.888  -0.595  25.183  0.00  0.00    +0.180 C 
BRANCH   7   8
ATOM      8  C   UNL     1       6.293  -1.143  23.839  0.00  0.00    +0.221 C 
ATOM      9  N   UNL     1       6.177  -2.510  23.747  0.00  0.00    -0.315 N 
ATOM     10  H   UNL     1       6.012  -3.063  24.580  0.00  0.00    +0.149 HD
ATOM     11  O   UNL     1       6.663  -0.428  22.915  0.00  0.00    -0.275 OA
BRANCH   9  12
ATOM     12  C   UNL     1       6.465  -3.225  22.515  0.00  0.00    +0.110 C 
BRANCH  12  13
ATOM     13  C   UNL     1       7.373  -4.439  22.709  0.00  0.00    +0.074 C 
BRANCH  13  14
ATOM     14  C   UNL     1       7.595  -4.752  24.167  0.00  0.00    +0.043 A 
ATOM     15  C   UNL     1       8.854  -4.597  24.742  0.00  0.00    +0.023 A 
ATOM     16  C   UNL     1       9.014  -4.875  26.096  0.00  0.00    +0.003 A 
ATOM     17  C   UNL     1       7.923  -5.311  26.837  0.00  0.00    +0.020 A 
ATOM     18  C   UNL     1       6.711  -5.458  26.187  0.00  0.00    +0.111 A 
ATOM     19  N   UNL     1       6.523  -5.187  24.877  0.00  0.00    -0.260 NA
ENDBRANCH  13  14
ENDBRANCH  12  13
ENDBRANCH   9  12
ENDBRANCH   7   8
ENDBRANCH   5   7
ENDBRANCH   3   5
BRANCH   1  20
ATOM     20  C   UNL     1       8.746   3.047  24.438  0.00  0.00    +0.164 C 
BRANCH  20  21
ATOM     21  C   UNL     1       8.383   4.255  23.541  0.00  0.00    +0.236 C 
ATOM     22  N   UNL     1       8.726   5.542  23.949  0.00  0.00    -0.306 N 
ATOM     23  C   UNL     1       8.378   6.661  23.082  0.00  0.00    +0.131 C 
ATOM     24  C   UNL     1       9.291   5.914  25.238  0.00  0.00    +0.131 C 
ATOM     25  O   UNL     1       7.803   4.059  22.466  0.00  0.00    -0.274 OA
ENDBRANCH  20  21
BRANCH  20  26
ATOM     26  C   UNL     1      10.086   2.399  24.037  0.00  0.00    +0.067 C 
BRANCH  26  27
ATOM     27  C   UNL     1       9.996   0.998  23.462  0.00  0.00    -0.045 A 
ATOM     28  C   UNL     1       9.841   0.806  22.080  0.00  0.00    +0.004 A 
ATOM     29  C   UNL     1       9.791  -0.482  21.541  0.00  0.00    +0.000 A 
ATOM     30  C   UNL     1       9.888  -1.593  22.377  0.00  0.00    +0.000 A 
ATOM     31  C   UNL     1      10.024  -1.415  23.752  0.00  0.00    +0.000 A 
ATOM     32  C   UNL     1      10.078  -0.126  24.293  0.00  0.00    +0.004 A 
ENDBRANCH  26  27
ENDBRANCH  20  26
ENDBRANCH   1  20
TORSDOF 10
ENDMDL
MODEL 5
REMARK VINA RESULT:      -6.4      2.760      4.374
REMARK  Name = 
REMARK  12 active torsions:
REMARK  status: ('A' for Active; 'I' for Inactive)
REMARK    1  A    between atoms: C_2  and  C_3
REMARK    2  A    between atoms: C_2  and  N_10
REMARK    3  A    between atoms: C_2  and  C_27
REMARK    4  A    between atoms: C_3  and  C_4
REMARK    5  A    between atoms: C_11  and  C_13
REMARK    6  A    between atoms: C_13  and  C_15
REMARK    7  A    between atoms: C_15  and  C_16
REMARK    8  A    between atoms: N_18  and  C_19
REMARK    9  A    between atoms: C_19  and  C_20
REMARK   10  A    between atoms: C_20  and  C_21
REMARK   11  A    between atoms: N_29  and  C_30
REMARK   12  A    between atoms: N_29  and  C_31
REMARK                            x       y       z     vdW  Elec       q    Type
REMARK                         _______ _______ _______ _____ _____    ______ ____
ROOT
ATOM      1  N   UNL     1       7.449  -3.584  25.582  0.00  0.00    -0.297 N 
ATOM      2  H   UNL     1       8.114  -3.911  26.284  0.00  0.00    +0.150 HD
ATOM      3  C   UNL     1       6.119  -3.543  25.910  0.00  0.00    +0.281 C 
ATOM      4  O   UNL     1       5.214  -3.197  25.165  0.00  0.00    -0.267 OA
ENDROOT
BRANCH   3   5
ATOM      5  C   UNL     1       5.816  -4.064  27.318  0.00  0.00    +0.226 C 
ATOM      6  O   UNL     1       5.122  -3.392  28.074  0.00  0.00    -0.287 OA
BRANCH   5   7
ATOM      7  C   UNL     1       6.426  -5.383  27.692  0.00  0.00    +0.180 C 
BRANCH   7   8
ATOM      8  C   UNL     1       5.401  -6.390  28.144  0.00  0.00    +0.221 C 
ATOM      9  N   UNL     1       4.105  -6.008  27.883  0.00  0.00    -0.315 N 
ATOM     10  H   UNL     1       3.906  -5.059  27.587  0.00  0.00    +0.149 HD
ATOM     11  O   UNL     1       5.703  -7.455  28.670  0.00  0.00    -0.275 OA
BRANCH   9  12
ATOM     12  C   UNL     1       2.973  -6.865  28.192  0.00  0.00    +0.110 C 
BRANCH  12  13
ATOM     13  C   UNL     1       2.049  -7.112  26.999  0.00  0.00    +0.074 C 
BRANCH  13  14
ATOM     14  C   UNL     1       2.663  -6.649  25.702  0.00  0.00    +0.043 A 
ATOM     15  C   UNL     1       2.082  -5.616  24.972  0.00  0.00    +0.023 A 
ATOM     16  C   UNL     1       2.691  -5.202  23.790  0.00  0.00    +0.003 A 
ATOM     17  C   UNL     1       3.851  -5.834  23.363  0.00  0.00    +0.020 A 
ATOM     18  C   UNL     1       4.354  -6.866  24.136  0.00  0.00    +0.111 A 
ATOM     19  N   UNL     1       3.791  -7.282  25.291  0.00  0.00    -0.260 NA
ENDBRANCH  13  14
ENDBRANCH  12  13
ENDBRANCH   9  12
ENDBRANCH   7   8
ENDBRANCH   5   7
ENDBRANCH   3   5
BRANCH   1  20
ATOM     20  C   UNL     1       7.972  -3.270  24.254  0.00  0.00    +0.164 C 
BRANCH  20  21
ATOM     21  C   UNL     1       7.867  -4.549  23.390  0.00  0.00    +0.236 C 
ATOM     22  N   UNL     1       7.083  -4.539  22.239  0.00  0.00    -0.306 N 
ATOM     23  C   UNL     1       7.006  -5.756  21.439  0.00  0.00    +0.131 C 
ATOM     24  C   UNL     1       6.203  -3.462  21.807  0.00  0.00    +0.131 C 
ATOM     25  O   UNL     1       8.494  -5.561  23.727  0.00  0.00    -0.274 OA
ENDBRANCH  20  21
BRANCH  20  26
ATOM     26  C   UNL     1       9.405  -2.702  24.292  0.00  0.00    +0.067 C 
BRANCH  26  27
ATOM     27  C   UNL     1       9.625  -1.414  23.523  0.00  0.00    -0.045 A 
ATOM     28  C   UNL     1       9.300  -1.336  22.160  0.00  0.00    +0.004 A 
ATOM     29  C   UNL     1       9.470  -0.142  21.454  0.00  0.00    +0.000 A 
ATOM     30  C   UNL     1       9.972   0.985  22.099  0.00  0.00    +0.000 A 
ATOM     31  C   UNL     1      10.317   0.915  23.448  0.00  0.00    +0.000 A 
ATOM     32  C   UNL     1      10.145  -0.278  24.157  0.00  0.00    +0.004 A 
ENDBRANCH  26  27
ENDBRANCH  20  26
ENDBRANCH   1  20
TORSDOF 10
ENDMDL
MODEL 6
REMARK VINA RESULT:      -6.4      2.311      6.379
REMARK  Name = 
REMARK  12 active torsions:
REMARK  status: ('A' for Active; 'I' for Inactive)
REMARK    1  A    between atoms: C_2  and  C_3
REMARK    2  A    between atoms: C_2  and  N_10
REMARK    3  A    between atoms: C_2  and  C_27
REMARK    4  A    between atoms: C_3  and  C_4
REMARK    5  A    between atoms: C_11  and  C_13
REMARK    6  A    between atoms: C_13  and  C_15
REMARK    7  A    between atoms: C_15  and  C_16
REMARK    8  A    between atoms: N_18  and  C_19
REMARK    9  A    between atoms: C_19  and  C_20
REMARK   10  A    between atoms: C_20  and  C_21
REMARK   11  A    between atoms: N_29  and  C_30
REMARK   12  A    between atoms: N_29  and  C_31
REMARK                            x       y       z     vdW  Elec       q    Type
REMARK                         _______ _______ _______ _____ _____    ______ ____
ROOT
ATOM      1  N   UNL     1       7.813  -2.108  25.006  0.00  0.00    -0.297 N 
ATOM      2  H   UNL     1       8.301  -2.515  25.806  0.00  0.00    +0.150 HD
ATOM      3  C   UNL     1       6.677  -1.376  25.237  0.00  0.00    +0.281 C 
ATOM      4  O   UNL     1       5.982  -0.854  24.379  0.00  0.00    -0.267 OA
ENDROOT
BRANCH   3   5
ATOM      5  C   UNL     1       6.269  -1.323  26.713  0.00  0.00    +0.226 C 
ATOM      6  O   UNL     1       5.422  -2.105  27.133  0.00  0.00    -0.287 OA
BRANCH   5   7
ATOM      7  C   UNL     1       6.932  -0.274  27.556  0.00  0.00    +0.180 C 
BRANCH   7   8
ATOM      8  C   UNL     1       6.383   1.107  27.303  0.00  0.00    +0.221 C 
ATOM      9  N   UNL     1       7.353   2.080  27.247  0.00  0.00    -0.315 N 
ATOM     10  H   UNL     1       8.301   1.870  27.537  0.00  0.00    +0.149 HD
ATOM     11  O   UNL     1       5.188   1.327  27.139  0.00  0.00    -0.275 OA
BRANCH   9  12
ATOM     12  C   UNL     1       7.035   3.468  26.956  0.00  0.00    +0.110 C 
BRANCH  12  13
ATOM     13  C   UNL     1       7.952   4.101  25.910  0.00  0.00    +0.074 C 
BRANCH  13  14
ATOM     14  C   UNL     1       7.494   3.808  24.504  0.00  0.00    +0.043 A 
ATOM     15  C   UNL     1       7.619   4.768  23.503  0.00  0.00    +0.023 A 
ATOM     16  C   UNL     1       7.204   4.452  22.213  0.00  0.00    +0.003 A 
ATOM     17  C   UNL     1       6.668   3.197  21.956  0.00  0.00    +0.020 A 
ATOM     18  C   UNL     1       6.560   2.307  23.010  0.00  0.00    +0.111 A 
ATOM     19  N   UNL     1       6.963   2.582  24.270  0.00  0.00    -0.260 NA
ENDBRANCH  13  14
ENDBRANCH  12  13
ENDBRANCH   9  12
ENDBRANCH   7   8
ENDBRANCH   5   7
ENDBRANCH   3   5
BRANCH   1  20
ATOM     20  C   UNL     1       8.325  -2.419  23.675  0.00  0.00    +0.164 C 
BRANCH  20  21
ATOM     21  C   UNL     1       8.129  -3.935  23.434  0.00  0.00    +0.236 C 
ATOM     22  N   UNL     1       7.176  -4.368  22.516  0.00  0.00    -0.306 N 
ATOM     23  C   UNL     1       7.016  -5.802  22.304  0.00  0.00    +0.131 C 
ATOM     24  C   UNL     1       6.206  -3.531  21.824  0.00  0.00    +0.131 C 
ATOM     25  O   UNL     1       8.833  -4.743  24.053  0.00  0.00    -0.274 OA
ENDBRANCH  20  21
BRANCH  20  26
ATOM     26  C   UNL     1       9.789  -1.978  23.477  0.00  0.00    +0.067 C 
BRANCH  26  27
ATOM     27  C   UNL     1      10.007  -0.493  23.256  0.00  0.00    -0.045 A 
ATOM     28  C   UNL     1       9.757   0.082  22.000  0.00  0.00    +0.004 A 
ATOM     29  C   UNL     1       9.923   1.455  21.799  0.00  0.00    +0.000 A 
ATOM     30  C   UNL     1      10.349   2.267  22.848  0.00  0.00    +0.000 A 
ATOM     31  C   UNL     1      10.619   1.705  24.094  0.00  0.00    +0.000 A 
ATOM     32  C   UNL     1      10.450   0.332  24.298  0.00  0.00    +0.004 A 
ENDBRANCH  26  27
ENDBRANCH  20  26
ENDBRANCH   1  20
TORSDOF 10
ENDMDL
MODEL 7
REMARK VINA RESULT:      -6.2      2.718      5.124
REMARK  Name = 
REMARK  12 active torsions:
REMARK  status: ('A' for Active; 'I' for Inactive)
REMARK    1  A    between atoms: C_2  and  C_3
REMARK    2  A    between atoms: C_2  and  N_10
REMARK    3  A    between atoms: C_2  and  C_27
REMARK    4  A    between atoms: C_3  and  C_4
REMARK    5  A    between atoms: C_11  and  C_13
REMARK    6  A    between atoms: C_13  and  C_15
REMARK    7  A    between atoms: C_15  and  C_16
REMARK    8  A    between atoms: N_18  and  C_19
REMARK    9  A    between atoms: C_19  and  C_20
REMARK   10  A    between atoms: C_20  and  C_21
REMARK   11  A    between atoms: N_29  and  C_30
REMARK   12  A    between atoms: N_29  and  C_31
REMARK                            x       y       z     vdW  Elec       q    Type
REMARK                         _______ _______ _______ _____ _____    ______ ____
ROOT
ATOM      1  N   UNL     1       8.215   2.671  24.944  0.00  0.00    -0.297 N 
ATOM      2  H   UNL     1       8.061   1.765  24.498  0.00  0.00    +0.150 HD
ATOM      3  C   UNL     1       7.576   2.934  26.127  0.00  0.00    +0.281 C 
ATOM      4  O   UNL     1       7.648   3.979  26.756  0.00  0.00    -0.267 OA
ENDROOT
BRANCH   3   5
ATOM      5  C   UNL     1       6.652   1.804  26.593  0.00  0.00    +0.226 C 
ATOM      6  O   UNL     1       5.486   1.783  26.210  0.00  0.00    -0.287 OA
BRANCH   5   7
ATOM      7  C   UNL     1       7.246   0.792  27.527  0.00  0.00    +0.180 C 
BRANCH   7   8
ATOM      8  C   UNL     1       7.586  -0.504  26.838  0.00  0.00    +0.221 C 
ATOM      9  N   UNL     1       6.510  -1.090  26.212  0.00  0.00    -0.315 N 
ATOM     10  H   UNL     1       5.573  -0.744  26.382  0.00  0.00    +0.149 HD
ATOM     11  O   UNL     1       8.719  -0.971  26.822  0.00  0.00    -0.275 OA
BRANCH   9  12
ATOM     12  C   UNL     1       6.642  -2.317  25.445  0.00  0.00    +0.110 C 
BRANCH  12  13
ATOM     13  C   UNL     1       6.667  -2.094  23.932  0.00  0.00    +0.074 C 
BRANCH  13  14
ATOM     14  C   UNL     1       6.766  -3.392  23.171  0.00  0.00    +0.043 A 
ATOM     15  C   UNL     1       5.995  -3.605  22.031  0.00  0.00    +0.023 A 
ATOM     16  C   UNL     1       6.131  -4.808  21.343  0.00  0.00    +0.003 A 
ATOM     17  C   UNL     1       7.018  -5.767  21.813  0.00  0.00    +0.020 A 
ATOM     18  C   UNL     1       7.732  -5.485  22.965  0.00  0.00    +0.111 A 
ATOM     19  N   UNL     1       7.629  -4.324  23.647  0.00  0.00    -0.260 NA
ENDBRANCH  13  14
ENDBRANCH  12  13
ENDBRANCH   9  12
ENDBRANCH   7   8
ENDBRANCH   5   7
ENDBRANCH   3   5
BRANCH   1  20
ATOM     20  C   UNL     1       9.038   3.642  24.228  0.00  0.00    +0.164 C 
BRANCH  20  21
ATOM     21  C   UNL     1       8.133   4.368  23.204  0.00  0.00    +0.236 C 
ATOM     22  N   UNL     1       8.299   5.733  22.986  0.00  0.00    -0.306 N 
ATOM     23  C   UNL     1       7.437   6.391  22.012  0.00  0.00    +0.131 C 
ATOM     24  C   UNL     1       9.172   6.624  23.737  0.00  0.00    +0.131 C 
ATOM     25  O   UNL     1       7.280   3.721  22.584  0.00  0.00    -0.274 OA
ENDBRANCH  20  21
BRANCH  20  26
ATOM     26  C   UNL     1      10.278   3.006  23.568  0.00  0.00    +0.067 C 
BRANCH  26  27
ATOM     27  C   UNL     1      10.123   1.564  23.122  0.00  0.00    -0.045 A 
ATOM     28  C   UNL     1      10.457   0.513  23.990  0.00  0.00    +0.004 A 
ATOM     29  C   UNL     1      10.285  -0.817  23.597  0.00  0.00    +0.000 A 
ATOM     30  C   UNL     1       9.785  -1.112  22.332  0.00  0.00    +0.000 A 
ATOM     31  C   UNL     1       9.468  -0.077  21.454  0.00  0.00    +0.000 A 
ATOM     32  C   UNL     1       9.636   1.255  21.846  0.00  0.00    +0.004 A 
ENDBRANCH  26  27
ENDBRANCH  20  26
ENDBRANCH   1  20
TORSDOF 10
ENDMDL
MODEL 8
REMARK VINA RESULT:      -6.2      2.280      6.880
REMARK  Name = 
REMARK  12 active torsions:
REMARK  status: ('A' for Active; 'I' for Inactive)
REMARK    1  A    between atoms: C_2  and  C_3
REMARK    2  A    between atoms: C_2  and  N_10
REMARK    3  A    between atoms: C_2  and  C_27
REMARK    4  A    between atoms: C_3  and  C_4
REMARK    5  A    between atoms: C_11  and  C_13
REMARK    6  A    between atoms: C_13  and  C_15
REMARK    7  A    between atoms: C_15  and  C_16
REMARK    8  A    between atoms: N_18  and  C_19
REMARK    9  A    between atoms: C_19  and  C_20
REMARK   10  A    between atoms: C_20  and  C_21
REMARK   11  A    between atoms: N_29  and  C_30
REMARK   12  A    between atoms: N_29  and  C_31
REMARK                            x       y       z     vdW  Elec       q    Type
REMARK                         _______ _______ _______ _____ _____    ______ ____
ROOT
ATOM      1  N   UNL     1       5.743  -3.650  25.919  0.00  0.00    -0.297 N 
ATOM      2  H   UNL     1       6.439  -4.029  25.275  0.00  0.00    +0.150 HD
ATOM      3  C   UNL     1       6.049  -2.510  26.615  0.00  0.00    +0.281 C 
ATOM      4  O   UNL     1       5.326  -1.961  27.432  0.00  0.00    -0.267 OA
ENDROOT
BRANCH   3   5
ATOM      5  C   UNL     1       7.465  -1.987  26.348  0.00  0.00    +0.226 C 
ATOM      6  O   UNL     1       7.649  -0.779  26.228  0.00  0.00    -0.287 OA
BRANCH   5   7
ATOM      7  C   UNL     1       8.549  -3.016  26.224  0.00  0.00    +0.180 C 
BRANCH   7   8
ATOM      8  C   UNL     1       8.965  -3.252  24.796  0.00  0.00    +0.221 C 
ATOM      9  N   UNL     1       8.511  -2.288  23.926  0.00  0.00    -0.315 N 
ATOM     10  H   UNL     1       7.819  -1.614  24.232  0.00  0.00    +0.149 HD
ATOM     11  O   UNL     1       9.662  -4.201  24.455  0.00  0.00    -0.275 OA
BRANCH   9  12
ATOM     12  C   UNL     1       8.851  -2.304  22.513  0.00  0.00    +0.110 C 
BRANCH  12  13
ATOM     13  C   UNL     1      10.152  -1.569  22.188  0.00  0.00    +0.074 C 
BRANCH  13  14
ATOM     14  C   UNL     1      10.156  -0.161  22.729  0.00  0.00    +0.043 A 
ATOM     15  C   UNL     1       9.863   0.918  21.899  0.00  0.00    +0.023 A 
ATOM     16  C   UNL     1       9.856   2.200  22.440  0.00  0.00    +0.003 A 
ATOM     17  C   UNL     1      10.152   2.375  23.786  0.00  0.00    +0.020 A 
ATOM     18  C   UNL     1      10.452   1.253  24.538  0.00  0.00    +0.111 A 
ATOM     19  N   UNL     1      10.456  -0.004  24.043  0.00  0.00    -0.260 NA
ENDBRANCH  13  14
ENDBRANCH  12  13
ENDBRANCH   9  12
ENDBRANCH   7   8
ENDBRANCH   5   7
ENDBRANCH   3   5
BRANCH   1  20
ATOM     20  C   UNL     1       4.512  -4.413  26.105  0.00  0.00    +0.164 C 
BRANCH  20  21
ATOM     21  C   UNL     1       4.826  -5.595  27.053  0.00  0.00    +0.236 C 
ATOM     22  N   UNL     1       4.197  -5.668  28.294  0.00  0.00    -0.306 N 
ATOM     23  C   UNL     1       4.506  -6.795  29.165  0.00  0.00    +0.131 C 
ATOM     24  C   UNL     1       3.343  -4.648  28.886  0.00  0.00    +0.131 C 
ATOM     25  O   UNL     1       5.624  -6.468  26.690  0.00  0.00    -0.274 OA
ENDBRANCH  20  21
BRANCH  20  26
ATOM     26  C   UNL     1       3.887  -4.877  24.774  0.00  0.00    +0.067 C 
BRANCH  26  27
ATOM     27  C   UNL     1       4.830  -4.940  23.588  0.00  0.00    -0.045 A 
ATOM     28  C   UNL     1       5.503  -6.133  23.277  0.00  0.00    +0.004 A 
ATOM     29  C   UNL     1       6.347  -6.206  22.166  0.00  0.00    +0.000 A 
ATOM     30  C   UNL     1       6.535  -5.088  21.358  0.00  0.00    +0.000 A 
ATOM     31  C   UNL     1       5.888  -3.893  21.667  0.00  0.00    +0.000 A 
ATOM     32  C   UNL     1       5.040  -3.818  22.776  0.00  0.00    +0.004 A 
ENDBRANCH  26  27
ENDBRANCH  20  26
ENDBRANCH   1  20
TORSDOF 10
ENDMDL
MODEL 9
REMARK VINA RESULT:      -6.2      2.615      4.274
REMARK  Name = 
REMARK  12 active torsions:
REMARK  status: ('A' for Active; 'I' for Inactive)
REMARK    1  A    between atoms: C_2  and  C_3
REMARK    2  A    between atoms: C_2  and  N_10
REMARK    3  A    between atoms: C_2  and  C_27
REMARK    4  A    between atoms: C_3  and  C_4
REMARK    5  A    between atoms: C_11  and  C_13
REMARK    6  A    between atoms: C_13  and  C_15
REMARK    7  A    between atoms: C_15  and  C_16
REMARK    8  A    between atoms: N_18  and  C_19
REMARK    9  A    between atoms: C_19  and  C_20
REMARK   10  A    between atoms: C_20  and  C_21
REMARK   11  A    between atoms: N_29  and  C_30
REMARK   12  A    between atoms: N_29  and  C_31
REMARK                            x       y       z     vdW  Elec       q    Type
REMARK                         _______ _______ _______ _____ _____    ______ ____
ROOT
ATOM      1  N   UNL     1       5.462  -0.251  25.008  0.00  0.00    -0.297 N 
ATOM      2  H   UNL     1       4.609  -0.533  24.523  0.00  0.00    +0.150 HD
ATOM      3  C   UNL     1       6.127  -1.186  25.757  0.00  0.00    +0.281 C 
ATOM      4  O   UNL     1       7.142  -0.985  26.407  0.00  0.00    -0.267 OA
ENDROOT
BRANCH   3   5
ATOM      5  C   UNL     1       5.433  -2.552  25.796  0.00  0.00    +0.226 C 
ATOM      6  O   UNL     1       4.979  -3.027  24.759  0.00  0.00    -0.287 OA
BRANCH   5   7
ATOM      7  C   UNL     1       5.333  -3.217  27.136  0.00  0.00    +0.180 C 
BRANCH   7   8
ATOM      8  C   UNL     1       6.449  -4.199  27.382  0.00  0.00    +0.221 C 
ATOM      9  N   UNL     1       7.488  -4.083  26.488  0.00  0.00    -0.315 N 
ATOM     10  H   UNL     1       7.382  -3.510  25.659  0.00  0.00    +0.149 HD
ATOM     11  O   UNL     1       6.434  -5.004  28.306  0.00  0.00    -0.275 OA
BRANCH   9  12
ATOM     12  C   UNL     1       8.684  -4.902  26.588  0.00  0.00    +0.110 C 
BRANCH  12  13
ATOM     13  C   UNL     1       9.502  -4.952  25.297  0.00  0.00    +0.074 C 
BRANCH  13  14
ATOM     14  C   UNL     1       9.034  -3.931  24.291  0.00  0.00    +0.043 A 
ATOM     15  C   UNL     1       9.682  -2.704  24.173  0.00  0.00    +0.023 A 
ATOM     16  C   UNL     1       9.234  -1.797  23.217  0.00  0.00    +0.003 A 
ATOM     17  C   UNL     1       8.150  -2.129  22.416  0.00  0.00    +0.020 A 
ATOM     18  C   UNL     1       7.549  -3.360  22.610  0.00  0.00    +0.111 A 
ATOM     19  N   UNL     1       7.967  -4.265  23.522  0.00  0.00    -0.260 NA
ENDBRANCH  13  14
ENDBRANCH  12  13
ENDBRANCH   9  12
ENDBRANCH   7   8
ENDBRANCH   5   7
ENDBRANCH   3   5
BRANCH   1  20
ATOM     20  C   UNL     1       5.849   1.155  24.928  0.00  0.00    +0.164 C 
BRANCH  20  21
ATOM     21  C   UNL     1       4.640   2.005  25.388  0.00  0.00    +0.236 C 
ATOM     22  N   UNL     1       4.591   2.479  26.697  0.00  0.00    -0.306 N 
ATOM     23  C   UNL     1       3.444   3.283  27.102  0.00  0.00    +0.131 C 
ATOM     24  C   UNL     1       5.517   2.143  27.769  0.00  0.00    +0.131 C 
ATOM     25  O   UNL     1       3.738   2.263  24.581  0.00  0.00    -0.274 OA
ENDBRANCH  20  21
BRANCH  20  26
ATOM     26  C   UNL     1       6.353   1.560  23.529  0.00  0.00    +0.067 C 
BRANCH  26  27
ATOM     27  C   UNL     1       7.859   1.626  23.364  0.00  0.00    -0.045 A 
ATOM     28  C   UNL     1       8.698   1.636  24.489  0.00  0.00    +0.004 A 
ATOM     29  C   UNL     1      10.087   1.662  24.343  0.00  0.00    +0.000 A 
ATOM     30  C   UNL     1      10.655   1.687  23.071  0.00  0.00    +0.000 A 
ATOM     31  C   UNL     1       9.833   1.697  21.946  0.00  0.00    +0.000 A 
ATOM     32  C   UNL     1       8.442   1.667  22.090  0.00  0.00    +0.004 A 
ENDBRANCH  26  27
ENDBRANCH  20  26
ENDBRANCH   1  20
TORSDOF 10
ENDMDL
