MODEL 1
REMARK VINA RESULT:      -7.3      0.000      0.000
REMARK  Name = 
REMARK  5 active torsions:
REMARK  status: ('A' for Active; 'I' for Inactive)
REMARK    1  A    between atoms: C_1  and  C_2
REMARK    2  A    between atoms: C_2  and  N_3
REMARK    3  A    between atoms: C_5  and  C_6
REMARK    4  A    between atoms: C_6  and  O_7
REMARK    5  A    between atoms: C_15  and  N_18
REMARK                            x       y       z     vdW  Elec       q    Type
REMARK                         _______ _______ _______ _____ _____    ______ ____
ROOT
ATOM      1  N   UNL     1       6.578  -4.341  23.362  0.00  0.00    -0.346 N 
ATOM      2  C   UNL     1       7.321  -3.318  23.994  0.00  0.00    +0.055 A 
ATOM      3  C   UNL     1       7.334  -3.232  25.397  0.00  0.00    +0.049 A 
ATOM      4  C   UNL     1       8.019  -2.210  26.054  0.00  0.00    +0.054 A 
ATOM      5  C   UNL     1       8.724  -1.266  25.310  0.00  0.00    +0.145 A 
ATOM      6  C   UNL     1       8.790  -1.312  23.906  0.00  0.00    +0.067 A 
ATOM      7  F   UNL     1       9.307  -0.268  25.991  0.00  0.00    -0.204 F 
ATOM      8  C   UNL     1       6.613  -4.251  26.197  0.00  0.00    +0.203 A 
ATOM      9  O   UNL     1       6.571  -4.199  27.425  0.00  0.00    -0.286 OA
ATOM     10  C   UNL     1       5.954  -5.364  25.483  0.00  0.00    +0.122 A 
ATOM     11  C   UNL     1       8.079  -2.364  23.290  0.00  0.00    +0.052 A 
ATOM     12  C   UNL     1       5.976  -5.318  24.142  0.00  0.00    +0.105 A 
ENDROOT
BRANCH   6  13
ATOM     13  N   UNL     1       9.472  -0.383  23.145  0.00  0.00    -0.325 N 
ATOM     14  C   UNL     1      10.589   0.423  23.669  0.00  0.00    +0.120 C 
ATOM     15  C   UNL     1      10.388   1.908  23.291  0.00  0.00    +0.100 C 
ATOM     16  N   UNL     1      10.195   2.124  21.840  0.00  0.00    -0.313 NA
ATOM     17  H   UNL     1       9.949   3.102  21.684  0.00  0.00    +0.122 HD
ATOM     18  C   UNL     1       9.090   1.274  21.359  0.00  0.00    +0.100 C 
ATOM     19  C   UNL     1       9.268  -0.224  21.696  0.00  0.00    +0.120 C 
ENDBRANCH   6  13
BRANCH   1  21
ATOM     20  C   UNL     1       6.450  -5.737  21.326  0.00  0.00    +0.027 C 
ATOM     21  C   UNL     1       6.405  -4.327  21.897  0.00  0.00    +0.118 C 
ENDBRANCH   1  21
BRANCH  10  22
ATOM     22  C   UNL     1       5.281  -6.493  26.157  0.00  0.00    +0.342 C 
ATOM     23  O   UNL     1       4.349  -7.112  25.665  0.00  0.00    -0.245 OA
BRANCH  22  24
ATOM     24  O   UNL     1       5.790  -6.803  27.370  0.00  0.00    -0.477 OA
ATOM     25  H   UNL     1       5.322  -7.546  27.823  0.00  0.00    +0.295 HD
ENDBRANCH  22  24
ENDBRANCH  10  22
TORSDOF 4
ENDMDL
MODEL 2
REMARK VINA RESULT:      -7.1      3.099      4.845
REMARK  Name = 
REMARK  5 active torsions:
REMARK  status: ('A' for Active; 'I' for Inactive)
REMARK    1  A    between atoms: C_1  and  C_2
REMARK    2  A    between atoms: C_2  and  N_3
REMARK    3  A    between atoms: C_5  and  C_6
REMARK    4  A    between atoms: C_6  and  O_7
REMARK    5  A    between atoms: C_15  and  N_18
REMARK                            x       y       z     vdW  Elec       q    Type
REMARK                         _______ _______ _______ _____ _____    ______ ____
ROOT
ATOM      1  N   UNL     1       8.218  -0.845  25.881  0.00  0.00    -0.346 N 
ATOM      2  C   UNL     1       8.723  -0.038  24.835  0.00  0.00    +0.055 A 
ATOM      3  C   UNL     1       9.508  -0.617  23.824  0.00  0.00    +0.049 A 
ATOM      4  C   UNL     1      10.061   0.156  22.803  0.00  0.00    +0.054 A 
ATOM      5  C   UNL     1       9.812   1.526  22.766  0.00  0.00    +0.145 A 
ATOM      6  C   UNL     1       9.002   2.168  23.719  0.00  0.00    +0.067 A 
ATOM      7  F   UNL     1      10.423   2.229  21.801  0.00  0.00    -0.204 F 
ATOM      8  C   UNL     1       9.751  -2.080  23.838  0.00  0.00    +0.203 A 
ATOM      9  O   UNL     1      10.458  -2.627  22.992  0.00  0.00    -0.286 OA
ATOM     10  C   UNL     1       9.099  -2.888  24.889  0.00  0.00    +0.122 A 
ATOM     11  C   UNL     1       8.469   1.344  24.732  0.00  0.00    +0.052 A 
ATOM     12  C   UNL     1       8.404  -2.219  25.821  0.00  0.00    +0.105 A 
ENDROOT
BRANCH   6  13
ATOM     13  N   UNL     1       8.749   3.527  23.712  0.00  0.00    -0.325 N 
ATOM     14  C   UNL     1       7.472   4.105  23.255  0.00  0.00    +0.120 C 
ATOM     15  C   UNL     1       7.745   5.278  22.286  0.00  0.00    +0.100 C 
ATOM     16  N   UNL     1       8.640   6.312  22.852  0.00  0.00    -0.313 NA
ATOM     17  H   UNL     1       8.868   6.984  22.119  0.00  0.00    +0.122 HD
ATOM     18  C   UNL     1       9.886   5.679  23.323  0.00  0.00    +0.100 C 
ATOM     19  C   UNL     1       9.656   4.517  24.315  0.00  0.00    +0.120 C 
ENDBRANCH   6  13
BRANCH   1  21
ATOM     20  C   UNL     1       6.066  -0.529  27.054  0.00  0.00    +0.027 C 
ATOM     21  C   UNL     1       7.555  -0.219  27.040  0.00  0.00    +0.118 C 
ENDBRANCH   1  21
BRANCH  10  22
ATOM     22  C   UNL     1       9.180  -4.361  24.966  0.00  0.00    +0.342 C 
ATOM     23  O   UNL     1       8.205  -5.081  25.127  0.00  0.00    -0.245 OA
BRANCH  22  24
ATOM     24  O   UNL     1      10.429  -4.860  24.831  0.00  0.00    -0.477 OA
ATOM     25  H   UNL     1      10.571  -5.364  23.994  0.00  0.00    +0.295 HD
ENDBRANCH  22  24
ENDBRANCH  10  22
TORSDOF 4
ENDMDL
MODEL 3
REMARK VINA RESULT:      -7.1      2.271      3.267
REMARK  Name = 
REMARK  5 active torsions:
REMARK  status: ('A' for Active; 'I' for Inactive)
REMARK    1  A    between atoms: C_1  and  C_2
REMARK    2  A    between atoms: C_2  and  N_3
REMARK    3  A    between atoms: C_5  and  C_6
REMARK    4  A    between atoms: C_6  and  O_7
REMARK    5  A    between atoms: C_15  and  N_18
REMARK                            x       y       z     vdW  Elec       q    Type
REMARK                         _______ _______ _______ _____ _____    ______ ____
ROOT
ATOM      1  N   UNL     1       6.992  -1.777  26.138  0.00  0.00    -0.346 N 
ATOM      2  C   UNL     1       7.811  -1.493  25.022  0.00  0.00    +0.055 A 
ATOM      3  C   UNL     1       8.563  -2.522  24.430  0.00  0.00    +0.049 A 
ATOM      4  C   UNL     1       9.417  -2.270  23.356  0.00  0.00    +0.054 A 
ATOM      5  C   UNL     1       9.513  -0.978  22.842  0.00  0.00    +0.145 A 
ATOM      6  C   UNL     1       8.761   0.092  23.356  0.00  0.00    +0.067 A 
ATOM      7  F   UNL     1      10.400  -0.782  21.855  0.00  0.00    -0.204 F 
ATOM      8  C   UNL     1       8.443  -3.906  24.950  0.00  0.00    +0.203 A 
ATOM      9  O   UNL     1       9.104  -4.832  24.484  0.00  0.00    -0.286 OA
ATOM     10  C   UNL     1       7.480  -4.161  26.041  0.00  0.00    +0.122 A 
ATOM     11  C   UNL     1       7.914  -0.214  24.442  0.00  0.00    +0.052 A 
ATOM     12  C   UNL     1       6.848  -3.095  26.551  0.00  0.00    +0.105 A 
ENDROOT
BRANCH   6  13
ATOM     13  N   UNL     1       8.845   1.384  22.873  0.00  0.00    -0.325 N 
ATOM     14  C   UNL     1       9.900   2.329  23.284  0.00  0.00    +0.120 C 
ATOM     15  C   UNL     1       9.269   3.692  23.649  0.00  0.00    +0.100 C 
ATOM     16  N   UNL     1       8.422   4.255  22.574  0.00  0.00    -0.313 NA
ATOM     17  H   UNL     1       7.948   5.085  22.931  0.00  0.00    +0.122 HD
ATOM     18  C   UNL     1       7.407   3.261  22.177  0.00  0.00    +0.100 C 
ATOM     19  C   UNL     1       8.000   1.892  21.780  0.00  0.00    +0.120 C 
ENDBRANCH   6  13
BRANCH   1  21
ATOM     20  C   UNL     1       4.853  -0.628  26.604  0.00  0.00    +0.027 C 
ATOM     21  C   UNL     1       6.349  -0.675  26.879  0.00  0.00    +0.118 C 
ENDBRANCH   1  21
BRANCH  10  22
ATOM     22  C   UNL     1       7.193  -5.503  26.590  0.00  0.00    +0.342 C 
ATOM     23  O   UNL     1       6.210  -6.160  26.281  0.00  0.00    -0.245 OA
BRANCH  22  24
ATOM     24  O   UNL     1       8.119  -5.959  27.462  0.00  0.00    -0.477 OA
ATOM     25  H   UNL     1       8.985  -5.487  27.411  0.00  0.00    +0.295 HD
ENDBRANCH  22  24
ENDBRANCH  10  22
TORSDOF 4
ENDMDL
MODEL 4
REMARK VINA RESULT:      -7.0      2.241      2.867
REMARK  Name = 
REMARK  5 active torsions:
REMARK  status: ('A' for Active; 'I' for Inactive)
REMARK    1  A    between atoms: C_1  and  C_2
REMARK    2  A    between atoms: C_2  and  N_3
REMARK    3  A    between atoms: C_5  and  C_6
REMARK    4  A    between atoms: C_6  and  O_7
REMARK    5  A    between atoms: C_15  and  N_18
REMARK                            x       y       z     vdW  Elec       q    Type
REMARK                         _______ _______ _______ _____ _____    ______ ____
ROOT
ATOM      1  N   UNL     1       6.609  -2.152  26.483  0.00  0.00    -0.346 N 
ATOM      2  C   UNL     1       7.660  -2.173  25.538  0.00  0.00    +0.055 A 
ATOM      3  C   UNL     1       8.409  -3.347  25.353  0.00  0.00    +0.049 A 
ATOM      4  C   UNL     1       9.482  -3.391  24.463  0.00  0.00    +0.054 A 
ATOM      5  C   UNL     1       9.807  -2.256  23.722  0.00  0.00    +0.145 A 
ATOM      6  C   UNL     1       9.078  -1.059  23.823  0.00  0.00    +0.067 A 
ATOM      7  F   UNL     1      10.889  -2.336  22.933  0.00  0.00    -0.204 F 
ATOM      8  C   UNL     1       8.049  -4.569  26.114  0.00  0.00    +0.203 A 
ATOM      9  O   UNL     1       8.694  -5.610  26.008  0.00  0.00    -0.286 OA
ATOM     10  C   UNL     1       6.866  -4.519  26.998  0.00  0.00    +0.122 A 
ATOM     11  C   UNL     1       8.004  -1.065  24.738  0.00  0.00    +0.052 A 
ATOM     12  C   UNL     1       6.254  -3.333  27.122  0.00  0.00    +0.105 A 
ENDROOT
BRANCH   6  13
ATOM     13  N   UNL     1       9.386   0.083  23.109  0.00  0.00    -0.325 N 
ATOM     14  C   UNL     1      10.178   1.193  23.670  0.00  0.00    +0.120 C 
ATOM     15  C   UNL     1       9.476   2.539  23.376  0.00  0.00    +0.100 C 
ATOM     16  N   UNL     1       9.185   2.749  21.941  0.00  0.00    -0.313 NA
ATOM     17  H   UNL     1       8.620   3.592  21.841  0.00  0.00    +0.122 HD
ATOM     18  C   UNL     1       8.422   1.599  21.421  0.00  0.00    +0.100 C 
ATOM     19  C   UNL     1       9.103   0.236  21.673  0.00  0.00    +0.120 C 
ENDBRANCH   6  13
BRANCH   1  21
ATOM     20  C   UNL     1       4.431  -1.034  26.820  0.00  0.00    +0.027 C 
ATOM     21  C   UNL     1       5.944  -0.879  26.817  0.00  0.00    +0.118 C 
ENDBRANCH   1  21
BRANCH  10  22
ATOM     22  C   UNL     1       6.343  -5.684  27.741  0.00  0.00    +0.342 C 
ATOM     23  O   UNL     1       5.153  -5.953  27.819  0.00  0.00    -0.245 OA
BRANCH  22  24
ATOM     24  O   UNL     1       7.293  -6.447  28.324  0.00  0.00    -0.477 OA
ATOM     25  H   UNL     1       8.213  -6.114  28.191  0.00  0.00    +0.295 HD
ENDBRANCH  22  24
ENDBRANCH  10  22
TORSDOF 4
ENDMDL
MODEL 5
REMARK VINA RESULT:      -6.8      1.183      1.429
REMARK  Name = 
REMARK  5 active torsions:
REMARK  status: ('A' for Active; 'I' for Inactive)
REMARK    1  A    between atoms: C_1  and  C_2
REMARK    2  A    between atoms: C_2  and  N_3
REMARK    3  A    between atoms: C_5  and  C_6
REMARK    4  A    between atoms: C_6  and  O_7
REMARK    5  A    between atoms: C_15  and  N_18
REMARK                            x       y       z     vdW  Elec       q    Type
REMARK                         _______ _______ _______ _____ _____    ______ ____
ROOT
ATOM      1  N   UNL     1       6.109  -4.219  23.160  0.00  0.00    -0.346 N 
ATOM      2  C   UNL     1       6.513  -3.104  23.928  0.00  0.00    +0.055 A 
ATOM      3  C   UNL     1       6.280  -3.090  25.314  0.00  0.00    +0.049 A 
ATOM      4  C   UNL     1       6.623  -1.987  26.096  0.00  0.00    +0.054 A 
ATOM      5  C   UNL     1       7.232  -0.884  25.500  0.00  0.00    +0.145 A 
ATOM      6  C   UNL     1       7.535  -0.844  24.128  0.00  0.00    +0.067 A 
ATOM      7  F   UNL     1       7.479   0.173  26.288  0.00  0.00    -0.204 F 
ATOM      8  C   UNL     1       5.661  -4.272  25.961  0.00  0.00    +0.203 A 
ATOM      9  O   UNL     1       5.410  -4.293  27.165  0.00  0.00    -0.286 OA
ATOM     10  C   UNL     1       5.370  -5.455  25.125  0.00  0.00    +0.122 A 
ATOM     11  C   UNL     1       7.165  -1.982  23.380  0.00  0.00    +0.052 A 
ATOM     12  C   UNL     1       5.601  -5.336  23.809  0.00  0.00    +0.105 A 
ENDROOT
BRANCH   6  13
ATOM     13  N   UNL     1       8.127   0.241  23.510  0.00  0.00    -0.325 N 
ATOM     14  C   UNL     1       7.385   1.460  23.140  0.00  0.00    +0.120 C 
ATOM     15  C   UNL     1       7.723   1.858  21.685  0.00  0.00    +0.100 C 
ATOM     16  N   UNL     1       9.174   2.008  21.438  0.00  0.00    -0.313 NA
ATOM     17  H   UNL     1       9.324   2.150  20.440  0.00  0.00    +0.122 HD
ATOM     18  C   UNL     1       9.873   0.778  21.855  0.00  0.00    +0.100 C 
ATOM     19  C   UNL     1       9.581   0.361  23.313  0.00  0.00    +0.120 C 
ENDBRANCH   6  13
BRANCH   1  21
ATOM     20  C   UNL     1       6.389  -5.550  21.096  0.00  0.00    +0.027 C 
ATOM     21  C   UNL     1       6.179  -4.164  21.688  0.00  0.00    +0.118 C 
ENDBRANCH   1  21
BRANCH  10  22
ATOM     22  C   UNL     1       4.842  -6.729  25.654  0.00  0.00    +0.342 C 
ATOM     23  O   UNL     1       4.117  -7.475  25.013  0.00  0.00    -0.245 OA
BRANCH  22  24
ATOM     24  O   UNL     1       5.237  -7.017  26.914  0.00  0.00    -0.477 OA
ATOM     25  H   UNL     1       6.178  -6.782  27.103  0.00  0.00    +0.295 HD
ENDBRANCH  22  24
ENDBRANCH  10  22
TORSDOF 4
ENDMDL
MODEL 6
REMARK VINA RESULT:      -6.8      3.167      4.722
REMARK  Name = 
REMARK  5 active torsions:
REMARK  status: ('A' for Active; 'I' for Inactive)
REMARK    1  A    between atoms: C_1  and  C_2
REMARK    2  A    between atoms: C_2  and  N_3
REMARK    3  A    between atoms: C_5  and  C_6
REMARK    4  A    between atoms: C_6  and  O_7
REMARK    5  A    between atoms: C_15  and  N_18
REMARK                            x       y       z     vdW  Elec       q    Type
REMARK                         _______ _______ _______ _____ _____    ______ ____
ROOT
ATOM      1  N   UNL     1       7.664  -0.961  25.370  0.00  0.00    -0.346 N 
ATOM      2  C   UNL     1       8.335  -0.162  24.417  0.00  0.00    +0.055 A 
ATOM      3  C   UNL     1       9.357  -0.724  23.632  0.00  0.00    +0.049 A 
ATOM      4  C   UNL     1      10.073   0.046  22.715  0.00  0.00    +0.054 A 
ATOM      5  C   UNL     1       9.756   1.393  22.553  0.00  0.00    +0.145 A 
ATOM      6  C   UNL     1       8.720   2.013  23.272  0.00  0.00    +0.067 A 
ATOM      7  F   UNL     1      10.521   2.099  21.706  0.00  0.00    -0.204 F 
ATOM      8  C   UNL     1       9.679  -2.164  23.776  0.00  0.00    +0.203 A 
ATOM      9  O   UNL     1      10.585  -2.692  23.133  0.00  0.00    -0.286 OA
ATOM     10  C   UNL     1       8.862  -2.975  24.702  0.00  0.00    +0.122 A 
ATOM     11  C   UNL     1       8.028   1.193  24.189  0.00  0.00    +0.052 A 
ATOM     12  C   UNL     1       7.940  -2.321  25.425  0.00  0.00    +0.105 A 
ENDROOT
BRANCH   6  13
ATOM     13  N   UNL     1       8.393   3.349  23.139  0.00  0.00    -0.325 N 
ATOM     14  C   UNL     1       9.172   4.433  23.764  0.00  0.00    +0.120 C 
ATOM     15  C   UNL     1       8.220   5.418  24.480  0.00  0.00    +0.100 C 
ATOM     16  N   UNL     1       7.154   5.949  23.602  0.00  0.00    -0.313 NA
ATOM     17  H   UNL     1       6.501   6.490  24.169  0.00  0.00    +0.122 HD
ATOM     18  C   UNL     1       6.428   4.828  22.978  0.00  0.00    +0.100 C 
ATOM     19  C   UNL     1       7.343   3.835  22.229  0.00  0.00    +0.120 C 
ENDBRANCH   6  13
BRANCH   1  21
ATOM     20  C   UNL     1       7.442   0.097  27.593  0.00  0.00    +0.027 C 
ATOM     21  C   UNL     1       6.726  -0.339  26.323  0.00  0.00    +0.118 C 
ENDBRANCH   1  21
BRANCH  10  22
ATOM     22  C   UNL     1       9.012  -4.434  24.873  0.00  0.00    +0.342 C 
ATOM     23  O   UNL     1       8.066  -5.198  25.005  0.00  0.00    -0.245 OA
BRANCH  22  24
ATOM     24  O   UNL     1      10.291  -4.869  24.860  0.00  0.00    -0.477 OA
ATOM     25  H   UNL     1      10.451  -5.663  25.426  0.00  0.00    +0.295 HD
ENDBRANCH  22  24
ENDBRANCH  10  22
TORSDOF 4
ENDMDL
MODEL 7
REMARK VINA RESULT:      -6.7      3.966      7.409
REMARK  Name = 
REMARK  5 active torsions:
REMARK  status: ('A' for Active; 'I' for Inactive)
REMARK    1  A    between atoms: C_1  and  C_2
REMARK    2  A    between atoms: C_2  and  N_3
REMARK    3  A    between atoms: C_5  and  C_6
REMARK    4  A    between atoms: C_6  and  O_7
REMARK    5  A    between atoms: C_15  and  N_18
REMARK                            x       y       z     vdW  Elec       q    Type
REMARK                         _______ _______ _______ _____ _____    ______ ____
ROOT
ATOM      1  N   UNL     1       6.906   0.338  24.253  0.00  0.00    -0.346 N 
ATOM      2  C   UNL     1       6.977  -0.997  23.795  0.00  0.00    +0.055 A 
ATOM      3  C   UNL     1       7.991  -1.372  22.896  0.00  0.00    +0.049 A 
ATOM      4  C   UNL     1       8.065  -2.669  22.387  0.00  0.00    +0.054 A 
ATOM      5  C   UNL     1       7.132  -3.621  22.793  0.00  0.00    +0.145 A 
ATOM      6  C   UNL     1       6.116  -3.330  23.720  0.00  0.00    +0.067 A 
ATOM      7  F   UNL     1       7.211  -4.832  22.220  0.00  0.00    -0.204 F 
ATOM      8  C   UNL     1       9.007  -0.373  22.484  0.00  0.00    +0.203 A 
ATOM      9  O   UNL     1       9.893  -0.647  21.677  0.00  0.00    -0.286 OA
ATOM     10  C   UNL     1       8.950   0.973  23.090  0.00  0.00    +0.122 A 
ATOM     11  C   UNL     1       6.083  -2.005  24.203  0.00  0.00    +0.052 A 
ATOM     12  C   UNL     1       7.915   1.226  23.904  0.00  0.00    +0.105 A 
ENDROOT
BRANCH   6  13
ATOM     13  N   UNL     1       5.172  -4.252  24.130  0.00  0.00    -0.325 N 
ATOM     14  C   UNL     1       5.211  -4.910  25.448  0.00  0.00    +0.120 C 
ATOM     15  C   UNL     1       5.003  -6.433  25.280  0.00  0.00    +0.100 C 
ATOM     16  N   UNL     1       3.773  -6.780  24.534  0.00  0.00    -0.313 NA
ATOM     17  H   UNL     1       3.767  -7.785  24.360  0.00  0.00    +0.122 HD
ATOM     18  C   UNL     1       3.767  -6.072  23.240  0.00  0.00    +0.100 C 
ATOM     19  C   UNL     1       3.947  -4.543  23.368  0.00  0.00    +0.120 C 
ENDBRANCH   6  13
BRANCH   1  21
ATOM     20  C   UNL     1       5.124   2.040  24.448  0.00  0.00    +0.027 C 
ATOM     21  C   UNL     1       5.743   0.785  25.043  0.00  0.00    +0.118 C 
ENDBRANCH   1  21
BRANCH  10  22
ATOM     22  C   UNL     1       9.949   2.032  22.840  0.00  0.00    +0.342 C 
ATOM     23  O   UNL     1      10.506   2.656  23.732  0.00  0.00    -0.245 OA
BRANCH  22  24
ATOM     24  O   UNL     1      10.213   2.254  21.534  0.00  0.00    -0.477 OA
ATOM     25  H   UNL     1       9.492   1.965  20.924  0.00  0.00    +0.295 HD
ENDBRANCH  22  24
ENDBRANCH  10  22
TORSDOF 4
ENDMDL
MODEL 8
REMARK VINA RESULT:      -6.6      4.583      7.658
REMARK  Name = 
REMARK  5 active torsions:
REMARK  status: ('A' for Active; 'I' for Inactive)
REMARK    1  A    between atoms: C_1  and  C_2
REMARK    2  A    between atoms: C_2  and  N_3
REMARK    3  A    between atoms: C_5  and  C_6
REMARK    4  A    between atoms: C_6  and  O_7
REMARK    5  A    between atoms: C_15  and  N_18
REMARK                            x       y       z     vdW  Elec       q    Type
REMARK                         _______ _______ _______ _____ _____    ______ ____
ROOT
ATOM      1  N   UNL     1       7.325   1.979  24.339  0.00  0.00    -0.346 N 
ATOM      2  C   UNL     1       8.220   0.969  23.919  0.00  0.00    +0.055 A 
ATOM      3  C   UNL     1       9.516   1.316  23.501  0.00  0.00    +0.049 A 
ATOM      4  C   UNL     1      10.411   0.352  23.037  0.00  0.00    +0.054 A 
ATOM      5  C   UNL     1      10.024  -0.987  23.006  0.00  0.00    +0.145 A 
ATOM      6  C   UNL     1       8.760  -1.414  23.447  0.00  0.00    +0.067 A 
ATOM      7  F   UNL     1      10.901  -1.860  22.487  0.00  0.00    -0.204 F 
ATOM      8  C   UNL     1       9.946   2.734  23.560  0.00  0.00    +0.203 A 
ATOM      9  O   UNL     1      11.060   3.089  23.177  0.00  0.00    -0.286 OA
ATOM     10  C   UNL     1       9.007   3.727  24.121  0.00  0.00    +0.122 A 
ATOM     11  C   UNL     1       7.891  -0.400  23.905  0.00  0.00    +0.052 A 
ATOM     12  C   UNL     1       7.785   3.284  24.451  0.00  0.00    +0.105 A 
ENDROOT
BRANCH   6  13
ATOM     13  N   UNL     1       8.347  -2.732  23.417  0.00  0.00    -0.325 N 
ATOM     14  C   UNL     1       7.432  -3.265  22.391  0.00  0.00    +0.120 C 
ATOM     15  C   UNL     1       6.313  -4.092  23.066  0.00  0.00    +0.100 C 
ATOM     16  N   UNL     1       6.825  -5.163  23.949  0.00  0.00    -0.313 NA
ATOM     17  H   UNL     1       6.039  -5.581  24.447  0.00  0.00    +0.122 HD
ATOM     18  C   UNL     1       7.759  -4.585  24.933  0.00  0.00    +0.100 C 
ATOM     19  C   UNL     1       8.907  -3.771  24.296  0.00  0.00    +0.120 C 
ENDBRANCH   6  13
BRANCH   1  21
ATOM     20  C   UNL     1       4.981   2.616  23.881  0.00  0.00    +0.027 C 
ATOM     21  C   UNL     1       5.911   1.649  24.599  0.00  0.00    +0.118 C 
ENDBRANCH   1  21
BRANCH  10  22
ATOM     22  C   UNL     1       9.338   5.153  24.324  0.00  0.00    +0.342 C 
ATOM     23  O   UNL     1       9.287   5.708  25.412  0.00  0.00    -0.245 OA
BRANCH  22  24
ATOM     24  O   UNL     1       9.720   5.802  23.202  0.00  0.00    -0.477 OA
ATOM     25  H   UNL     1       8.977   6.237  22.717  0.00  0.00    +0.295 HD
ENDBRANCH  22  24
ENDBRANCH  10  22
TORSDOF 4
ENDMDL
MODEL 9
REMARK VINA RESULT:      -6.5      1.896      2.136
REMARK  Name = 
REMARK  5 active torsions:
REMARK  status: ('A' for Active; 'I' for Inactive)
REMARK    1  A    between atoms: C_1  and  C_2
REMARK    2  A    between atoms: C_2  and  N_3
REMARK    3  A    between atoms: C_5  and  C_6
REMARK    4  A    between atoms: C_6  and  O_7
REMARK    5  A    between atoms: C_15  and  N_18
REMARK                            x       y       z     vdW  Elec       q    Type
REMARK                         _______ _______ _______ _____ _____    ______ ____
ROOT
ATOM      1  N   UNL     1       6.283  -5.042  23.180  0.00  0.00    -0.346 N 
ATOM      2  C   UNL     1       6.192  -3.732  23.703  0.00  0.00    +0.055 A 
ATOM      3  C   UNL     1       5.268  -3.451  24.724  0.00  0.00    +0.049 A 
ATOM      4  C   UNL     1       5.118  -2.161  25.232  0.00  0.00    +0.054 A 
ATOM      5  C   UNL     1       5.915  -1.131  24.737  0.00  0.00    +0.145 A 
ATOM      6  C   UNL     1       6.889  -1.344  23.746  0.00  0.00    +0.067 A 
ATOM      7  F   UNL     1       5.680   0.101  25.215  0.00  0.00    -0.204 F 
ATOM      8  C   UNL     1       4.438  -4.549  25.279  0.00  0.00    +0.203 A 
ATOM      9  O   UNL     1       3.595  -4.345  26.151  0.00  0.00    -0.286 OA
ATOM     10  C   UNL     1       4.663  -5.919  24.775  0.00  0.00    +0.122 A 
ATOM     11  C   UNL     1       6.999  -2.665  23.264  0.00  0.00    +0.052 A 
ATOM     12  C   UNL     1       5.544  -6.057  23.773  0.00  0.00    +0.105 A 
ENDROOT
BRANCH   6  13
ATOM     13  N   UNL     1       7.683  -0.338  23.230  0.00  0.00    -0.325 N 
ATOM     14  C   UNL     1       7.237   1.062  23.119  0.00  0.00    +0.120 C 
ATOM     15  C   UNL     1       7.560   1.605  21.708  0.00  0.00    +0.100 C 
ATOM     16  N   UNL     1       8.983   1.456  21.332  0.00  0.00    -0.313 NA
ATOM     17  H   UNL     1       9.093   1.722  20.354  0.00  0.00    +0.122 HD
ATOM     18  C   UNL     1       9.388   0.047  21.491  0.00  0.00    +0.100 C 
ATOM     19  C   UNL     1       9.105  -0.526  22.898  0.00  0.00    +0.120 C 
ENDBRANCH   6  13
BRANCH   1  21
ATOM     20  C   UNL     1       6.253  -5.740  20.809  0.00  0.00    +0.027 C 
ATOM     21  C   UNL     1       7.110  -5.303  21.987  0.00  0.00    +0.118 C 
ENDBRANCH   1  21
BRANCH  10  22
ATOM     22  C   UNL     1       3.975  -7.115  25.302  0.00  0.00    +0.342 C 
ATOM     23  O   UNL     1       3.483  -7.978  24.590  0.00  0.00    -0.245 OA
BRANCH  22  24
ATOM     24  O   UNL     1       3.943  -7.191  26.651  0.00  0.00    -0.477 OA
ATOM     25  H   UNL     1       3.973  -6.314  27.103  0.00  0.00    +0.295 HD
ENDBRANCH  22  24
ENDBRANCH  10  22
TORSDOF 4
ENDMDL
