MODEL 1
REMARK VINA RESULT:      -6.7      0.000      0.000
REMARK  Name = 
REMARK  4 active torsions:
REMARK  status: ('A' for Active; 'I' for Inactive)
REMARK    1  A    between atoms: C_1  and  N_2
REMARK    2  A    between atoms: N_2  and  C_3
REMARK    3  A    between atoms: C_7  and  C_10
REMARK    4  A    between atoms: C_15  and  O_16
REMARK                            x       y       z     vdW  Elec       q    Type
REMARK                         _______ _______ _______ _____ _____    ______ ____
ROOT
ATOM      1  C   UNL     1       8.064  -2.409  24.655  0.00  0.00    +0.110 A 
ATOM      2  S   UNL     1       7.737  -1.972  23.020  0.00  0.00    -0.067 S 
ATOM      3  C   UNL     1       8.798  -0.634  23.151  0.00  0.00    +0.043 A 
ATOM      4  C   UNL     1       9.364  -0.623  24.425  0.00  0.00    +0.079 A 
ATOM      5  C   UNL     1      10.277   0.407  24.747  0.00  0.00    +0.032 A 
ATOM      6  C   UNL     1      10.593   1.385  23.796  0.00  0.00    +0.047 A 
ATOM      7  C   UNL     1      10.008   1.339  22.536  0.00  0.00    +0.118 A 
ATOM      8  C   UNL     1       9.108   0.337  22.185  0.00  0.00    +0.062 A 
ATOM      9  N   UNL     1       8.954  -1.648  25.263  0.00  0.00    -0.239 NA
ENDROOT
BRANCH   1  13
ATOM     10  C   UNL     1       6.098  -5.854  26.396  0.00  0.00    +0.063 A 
ATOM     11  C   UNL     1       6.884  -4.997  27.178  0.00  0.00    +0.026 A 
ATOM     12  C   UNL     1       7.529  -3.885  26.625  0.00  0.00    +0.012 A 
ATOM     13  C   UNL     1       7.399  -3.574  25.263  0.00  0.00    +0.010 A 
ATOM     14  C   UNL     1       6.607  -4.416  24.475  0.00  0.00    +0.050 A 
ATOM     15  C   UNL     1       5.953  -5.517  25.041  0.00  0.00    +0.145 A 
ATOM     16  F   UNL     1       5.191  -6.264  24.226  0.00  0.00    -0.204 F 
BRANCH  10  18
ATOM     17  C   UNL     1       5.113  -6.778  28.466  0.00  0.00    +0.125 C 
ATOM     18  N   UNL     1       5.441  -6.898  27.058  0.00  0.00    -0.345 N 
ATOM     19  H   UNL     1       4.684  -7.285  26.498  0.00  0.00    +0.146 HD
ENDBRANCH  10  18
ENDBRANCH   1  13
BRANCH   7  20
ATOM     20  O   UNL     1      10.291   2.277  21.587  0.00  0.00    -0.507 OA
ATOM     21  H   UNL     1      10.816   2.987  21.991  0.00  0.00    +0.292 HD
ENDBRANCH   7  20
TORSDOF 3
ENDMDL
MODEL 2
REMARK VINA RESULT:      -6.6      4.430      7.680
REMARK  Name = 
REMARK  4 active torsions:
REMARK  status: ('A' for Active; 'I' for Inactive)
REMARK    1  A    between atoms: C_1  and  N_2
REMARK    2  A    between atoms: N_2  and  C_3
REMARK    3  A    between atoms: C_7  and  C_10
REMARK    4  A    between atoms: C_15  and  O_16
REMARK                            x       y       z     vdW  Elec       q    Type
REMARK                         _______ _______ _______ _____ _____    ______ ____
ROOT
ATOM      1  C   UNL     1       7.749  -1.738  22.824  0.00  0.00    +0.110 A 
ATOM      2  S   UNL     1       6.193  -1.806  23.560  0.00  0.00    -0.067 S 
ATOM      3  C   UNL     1       6.003  -3.427  23.039  0.00  0.00    +0.043 A 
ATOM      4  C   UNL     1       7.154  -3.827  22.364  0.00  0.00    +0.079 A 
ATOM      5  C   UNL     1       7.209  -5.141  21.846  0.00  0.00    +0.032 A 
ATOM      6  C   UNL     1       6.120  -6.006  22.015  0.00  0.00    +0.047 A 
ATOM      7  C   UNL     1       4.990  -5.570  22.694  0.00  0.00    +0.118 A 
ATOM      8  C   UNL     1       4.904  -4.283  23.220  0.00  0.00    +0.062 A 
ATOM      9  N   UNL     1       8.148  -2.865  22.266  0.00  0.00    -0.239 NA
ENDROOT
BRANCH   1  13
ATOM     10  C   UNL     1      10.122   1.882  23.008  0.00  0.00    +0.063 A 
ATOM     11  C   UNL     1       9.068   1.753  22.094  0.00  0.00    +0.026 A 
ATOM     12  C   UNL     1       8.299   0.586  22.021  0.00  0.00    +0.012 A 
ATOM     13  C   UNL     1       8.545  -0.499  22.877  0.00  0.00    +0.010 A 
ATOM     14  C   UNL     1       9.587  -0.377  23.801  0.00  0.00    +0.050 A 
ATOM     15  C   UNL     1      10.340   0.800  23.877  0.00  0.00    +0.145 A 
ATOM     16  F   UNL     1      11.308   0.851  24.806  0.00  0.00    -0.204 F 
BRANCH  10  18
ATOM     17  C   UNL     1      10.180   4.248  23.719  0.00  0.00    +0.125 C 
ATOM     18  N   UNL     1      10.786   3.114  23.047  0.00  0.00    -0.345 N 
ATOM     19  H   UNL     1      11.777   3.005  23.252  0.00  0.00    +0.146 HD
ENDBRANCH  10  18
ENDBRANCH   1  13
BRANCH   7  20
ATOM     20  O   UNL     1       3.910  -6.384  22.875  0.00  0.00    -0.507 OA
ATOM     21  H   UNL     1       3.181  -5.863  23.248  0.00  0.00    +0.292 HD
ENDBRANCH   7  20
TORSDOF 3
ENDMDL
MODEL 3
REMARK VINA RESULT:      -6.5      1.177      1.574
REMARK  Name = 
REMARK  4 active torsions:
REMARK  status: ('A' for Active; 'I' for Inactive)
REMARK    1  A    between atoms: C_1  and  N_2
REMARK    2  A    between atoms: N_2  and  C_3
REMARK    3  A    between atoms: C_7  and  C_10
REMARK    4  A    between atoms: C_15  and  O_16
REMARK                            x       y       z     vdW  Elec       q    Type
REMARK                         _______ _______ _______ _____ _____    ______ ____
ROOT
ATOM      1  C   UNL     1       7.969  -2.303  24.450  0.00  0.00    +0.110 A 
ATOM      2  S   UNL     1       7.661  -1.774  22.839  0.00  0.00    -0.067 S 
ATOM      3  C   UNL     1       8.773  -0.487  23.033  0.00  0.00    +0.043 A 
ATOM      4  C   UNL     1       9.337  -0.559  24.306  0.00  0.00    +0.079 A 
ATOM      5  C   UNL     1      10.289   0.417  24.677  0.00  0.00    +0.032 A 
ATOM      6  C   UNL     1      10.644   1.428  23.775  0.00  0.00    +0.047 A 
ATOM      7  C   UNL     1      10.059   1.466  22.515  0.00  0.00    +0.118 A 
ATOM      8  C   UNL     1       9.121   0.518  22.116  0.00  0.00    +0.062 A 
ATOM      9  N   UNL     1       8.887  -1.608  25.093  0.00  0.00    -0.239 NA
ENDROOT
BRANCH   1  13
ATOM     10  C   UNL     1       5.906  -5.731  26.111  0.00  0.00    +0.063 A 
ATOM     11  C   UNL     1       5.441  -5.099  24.950  0.00  0.00    +0.026 A 
ATOM     12  C   UNL     1       6.096  -3.986  24.408  0.00  0.00    +0.012 A 
ATOM     13  C   UNL     1       7.258  -3.470  25.001  0.00  0.00    +0.010 A 
ATOM     14  C   UNL     1       7.738  -4.100  26.153  0.00  0.00    +0.050 A 
ATOM     15  C   UNL     1       7.085  -5.221  26.678  0.00  0.00    +0.145 A 
ATOM     16  F   UNL     1       7.619  -5.786  27.773  0.00  0.00    -0.204 F 
BRANCH  10  18
ATOM     17  C   UNL     1       3.772  -6.866  26.626  0.00  0.00    +0.125 C 
ATOM     18  N   UNL     1       5.220  -6.876  26.532  0.00  0.00    -0.345 N 
ATOM     19  H   UNL     1       5.591  -7.720  26.103  0.00  0.00    +0.146 HD
ENDBRANCH  10  18
ENDBRANCH   1  13
BRANCH   7  20
ATOM     20  O   UNL     1      10.379   2.437  21.612  0.00  0.00    -0.507 OA
ATOM     21  H   UNL     1      11.335   2.601  21.651  0.00  0.00    +0.292 HD
ENDBRANCH   7  20
TORSDOF 3
ENDMDL
MODEL 4
REMARK VINA RESULT:      -6.5      2.674      2.795
REMARK  Name = 
REMARK  4 active torsions:
REMARK  status: ('A' for Active; 'I' for Inactive)
REMARK    1  A    between atoms: C_1  and  N_2
REMARK    2  A    between atoms: N_2  and  C_3
REMARK    3  A    between atoms: C_7  and  C_10
REMARK    4  A    between atoms: C_15  and  O_16
REMARK                            x       y       z     vdW  Elec       q    Type
REMARK                         _______ _______ _______ _____ _____    ______ ____
ROOT
ATOM      1  C   UNL     1       7.275  -1.744  22.973  0.00  0.00    +0.110 A 
ATOM      2  S   UNL     1       6.641  -0.393  23.835  0.00  0.00    -0.067 S 
ATOM      3  C   UNL     1       7.894   0.602  23.226  0.00  0.00    +0.043 A 
ATOM      4  C   UNL     1       8.701  -0.150  22.374  0.00  0.00    +0.079 A 
ATOM      5  C   UNL     1       9.804   0.483  21.757  0.00  0.00    +0.032 A 
ATOM      6  C   UNL     1      10.066   1.836  22.011  0.00  0.00    +0.047 A 
ATOM      7  C   UNL     1       9.238   2.552  22.866  0.00  0.00    +0.118 A 
ATOM      8  C   UNL     1       8.141   1.960  23.487  0.00  0.00    +0.062 A 
ATOM      9  N   UNL     1       8.326  -1.476  22.222  0.00  0.00    -0.239 NA
ENDROOT
BRANCH   1  13
ATOM     10  C   UNL     1       5.418  -5.647  23.262  0.00  0.00    +0.063 A 
ATOM     11  C   UNL     1       4.770  -4.500  23.738  0.00  0.00    +0.026 A 
ATOM     12  C   UNL     1       5.363  -3.234  23.656  0.00  0.00    +0.012 A 
ATOM     13  C   UNL     1       6.629  -3.064  23.075  0.00  0.00    +0.010 A 
ATOM     14  C   UNL     1       7.281  -4.200  22.586  0.00  0.00    +0.050 A 
ATOM     15  C   UNL     1       6.672  -5.459  22.659  0.00  0.00    +0.145 A 
ATOM     16  F   UNL     1       7.350  -6.499  22.145  0.00  0.00    -0.204 F 
BRANCH  10  18
ATOM     17  C   UNL     1       3.929  -7.176  24.507  0.00  0.00    +0.125 C 
ATOM     18  N   UNL     1       4.711  -6.853  23.329  0.00  0.00    -0.345 N 
ATOM     19  H   UNL     1       4.232  -7.062  22.456  0.00  0.00    +0.146 HD
ENDBRANCH  10  18
ENDBRANCH   1  13
BRANCH   7  20
ATOM     20  O   UNL     1       9.465   3.870  23.137  0.00  0.00    -0.507 OA
ATOM     21  H   UNL     1       8.898   4.141  23.877  0.00  0.00    +0.292 HD
ENDBRANCH   7  20
TORSDOF 3
ENDMDL
MODEL 5
REMARK VINA RESULT:      -6.4      4.460      7.811
REMARK  Name = 
REMARK  4 active torsions:
REMARK  status: ('A' for Active; 'I' for Inactive)
REMARK    1  A    between atoms: C_1  and  N_2
REMARK    2  A    between atoms: N_2  and  C_3
REMARK    3  A    between atoms: C_7  and  C_10
REMARK    4  A    between atoms: C_15  and  O_16
REMARK                            x       y       z     vdW  Elec       q    Type
REMARK                         _______ _______ _______ _____ _____    ______ ____
ROOT
ATOM      1  C   UNL     1       7.899  -0.831  22.957  0.00  0.00    +0.110 A 
ATOM      2  S   UNL     1       8.662  -2.145  22.145  0.00  0.00    -0.067 S 
ATOM      3  C   UNL     1       7.316  -3.150  22.477  0.00  0.00    +0.043 A 
ATOM      4  C   UNL     1       6.351  -2.410  23.158  0.00  0.00    +0.079 A 
ATOM      5  C   UNL     1       5.149  -3.053  23.532  0.00  0.00    +0.032 A 
ATOM      6  C   UNL     1       4.951  -4.404  23.219  0.00  0.00    +0.047 A 
ATOM      7  C   UNL     1       5.936  -5.107  22.538  0.00  0.00    +0.118 A 
ATOM      8  C   UNL     1       7.130  -4.504  22.152  0.00  0.00    +0.062 A 
ATOM      9  N   UNL     1       6.686  -1.088  23.406  0.00  0.00    -0.239 NA
ENDROOT
BRANCH   1  13
ATOM     10  C   UNL     1       9.892   2.995  23.355  0.00  0.00    +0.063 A 
ATOM     11  C   UNL     1      10.144   2.158  22.260  0.00  0.00    +0.026 A 
ATOM     12  C   UNL     1       9.510   0.917  22.124  0.00  0.00    +0.012 A 
ATOM     13  C   UNL     1       8.582   0.469  23.076  0.00  0.00    +0.010 A 
ATOM     14  C   UNL     1       8.314   1.302  24.167  0.00  0.00    +0.050 A 
ATOM     15  C   UNL     1       8.941   2.547  24.286  0.00  0.00    +0.145 A 
ATOM     16  F   UNL     1       8.614   3.301  25.349  0.00  0.00    -0.204 F 
BRANCH  10  18
ATOM     17  C   UNL     1      11.971   4.330  23.313  0.00  0.00    +0.125 C 
ATOM     18  N   UNL     1      10.524   4.244  23.362  0.00  0.00    -0.345 N 
ATOM     19  H   UNL     1      10.059   4.908  22.747  0.00  0.00    +0.146 HD
ENDBRANCH  10  18
ENDBRANCH   1  13
BRANCH   7  20
ATOM     20  O   UNL     1       5.777  -6.424  22.219  0.00  0.00    -0.507 OA
ATOM     21  H   UNL     1       6.463  -6.942  22.670  0.00  0.00    +0.292 HD
ENDBRANCH   7  20
TORSDOF 3
ENDMDL
MODEL 6
REMARK VINA RESULT:      -6.4      4.226      7.979
REMARK  Name = 
REMARK  4 active torsions:
REMARK  status: ('A' for Active; 'I' for Inactive)
REMARK    1  A    between atoms: C_1  and  N_2
REMARK    2  A    between atoms: N_2  and  C_3
REMARK    3  A    between atoms: C_7  and  C_10
REMARK    4  A    between atoms: C_15  and  O_16
REMARK                            x       y       z     vdW  Elec       q    Type
REMARK                         _______ _______ _______ _____ _____    ______ ____
ROOT
ATOM      1  C   UNL     1       9.069  -0.408  24.809  0.00  0.00    +0.110 A 
ATOM      2  S   UNL     1       8.813  -0.888  26.444  0.00  0.00    -0.067 S 
ATOM      3  C   UNL     1       8.600  -2.513  25.949  0.00  0.00    +0.043 A 
ATOM      4  C   UNL     1       8.772  -2.596  24.568  0.00  0.00    +0.079 A 
ATOM      5  C   UNL     1       8.639  -3.858  23.947  0.00  0.00    +0.032 A 
ATOM      6  C   UNL     1       8.338  -4.989  24.716  0.00  0.00    +0.047 A 
ATOM      7  C   UNL     1       8.175  -4.866  26.091  0.00  0.00    +0.118 A 
ATOM      8  C   UNL     1       8.303  -3.638  26.735  0.00  0.00    +0.062 A 
ATOM      9  N   UNL     1       9.059  -1.396  23.935  0.00  0.00    -0.239 NA
ENDROOT
BRANCH   1  13
ATOM     10  C   UNL     1       9.755   3.764  23.866  0.00  0.00    +0.063 A 
ATOM     11  C   UNL     1      10.627   2.766  23.411  0.00  0.00    +0.026 A 
ATOM     12  C   UNL     1      10.419   1.416  23.715  0.00  0.00    +0.012 A 
ATOM     13  C   UNL     1       9.314   1.006  24.477  0.00  0.00    +0.010 A 
ATOM     14  C   UNL     1       8.430   1.993  24.927  0.00  0.00    +0.050 A 
ATOM     15  C   UNL     1       8.639   3.339  24.604  0.00  0.00    +0.145 A 
ATOM     16  F   UNL     1       7.734   4.224  25.052  0.00  0.00    -0.204 F 
BRANCH  10  18
ATOM     17  C   UNL     1      11.297   5.691  23.731  0.00  0.00    +0.125 C 
ATOM     18  N   UNL     1      10.014   5.076  23.450  0.00  0.00    -0.345 N 
ATOM     19  H   UNL     1       9.683   5.246  22.503  0.00  0.00    +0.146 HD
ENDBRANCH  10  18
ENDBRANCH   1  13
BRANCH   7  20
ATOM     20  O   UNL     1       7.879  -5.946  26.871  0.00  0.00    -0.507 OA
ATOM     21  H   UNL     1       7.606  -6.682  26.299  0.00  0.00    +0.292 HD
ENDBRANCH   7  20
TORSDOF 3
ENDMDL
MODEL 7
REMARK VINA RESULT:      -6.3      2.610      2.759
REMARK  Name = 
REMARK  4 active torsions:
REMARK  status: ('A' for Active; 'I' for Inactive)
REMARK    1  A    between atoms: C_1  and  N_2
REMARK    2  A    between atoms: N_2  and  C_3
REMARK    3  A    between atoms: C_7  and  C_10
REMARK    4  A    between atoms: C_15  and  O_16
REMARK                            x       y       z     vdW  Elec       q    Type
REMARK                         _______ _______ _______ _____ _____    ______ ____
ROOT
ATOM      1  C   UNL     1       7.011  -2.157  22.835  0.00  0.00    +0.110 A 
ATOM      2  S   UNL     1       8.644  -2.203  22.283  0.00  0.00    -0.067 S 
ATOM      3  C   UNL     1       8.713  -0.492  22.305  0.00  0.00    +0.043 A 
ATOM      4  C   UNL     1       7.497   0.009  22.764  0.00  0.00    +0.079 A 
ATOM      5  C   UNL     1       7.338   1.410  22.861  0.00  0.00    +0.032 A 
ATOM      6  C   UNL     1       8.389   2.260  22.495  0.00  0.00    +0.047 A 
ATOM      7  C   UNL     1       9.587   1.723  22.042  0.00  0.00    +0.118 A 
ATOM      8  C   UNL     1       9.778   0.347  21.938  0.00  0.00    +0.062 A 
ATOM      9  N   UNL     1       6.545  -0.948  23.083  0.00  0.00    -0.239 NA
ENDROOT
BRANCH   1  13
ATOM     10  C   UNL     1       4.749  -5.805  23.422  0.00  0.00    +0.063 A 
ATOM     11  C   UNL     1       6.085  -5.841  22.999  0.00  0.00    +0.026 A 
ATOM     12  C   UNL     1       6.823  -4.669  22.800  0.00  0.00    +0.012 A 
ATOM     13  C   UNL     1       6.256  -3.407  23.034  0.00  0.00    +0.010 A 
ATOM     14  C   UNL     1       4.928  -3.358  23.467  0.00  0.00    +0.050 A 
ATOM     15  C   UNL     1       4.202  -4.537  23.678  0.00  0.00    +0.145 A 
ATOM     16  F   UNL     1       2.940  -4.410  24.118  0.00  0.00    -0.204 F 
BRANCH  10  18
ATOM     17  C   UNL     1       3.715  -7.401  25.000  0.00  0.00    +0.125 C 
ATOM     18  N   UNL     1       4.121  -7.033  23.656  0.00  0.00    -0.345 N 
ATOM     19  H   UNL     1       3.417  -7.241  22.951  0.00  0.00    +0.146 HD
ENDBRANCH  10  18
ENDBRANCH   1  13
BRANCH   7  20
ATOM     20  O   UNL     1      10.631   2.521  21.675  0.00  0.00    -0.507 OA
ATOM     21  H   UNL     1      10.529   2.764  20.741  0.00  0.00    +0.292 HD
ENDBRANCH   7  20
TORSDOF 3
ENDMDL
MODEL 8
REMARK VINA RESULT:      -6.2      3.757      7.392
REMARK  Name = 
REMARK  4 active torsions:
REMARK  status: ('A' for Active; 'I' for Inactive)
REMARK    1  A    between atoms: C_1  and  N_2
REMARK    2  A    between atoms: N_2  and  C_3
REMARK    3  A    between atoms: C_7  and  C_10
REMARK    4  A    between atoms: C_15  and  O_16
REMARK                            x       y       z     vdW  Elec       q    Type
REMARK                         _______ _______ _______ _____ _____    ______ ____
ROOT
ATOM      1  C   UNL     1       7.815  -2.502  24.060  0.00  0.00    +0.110 A 
ATOM      2  S   UNL     1       7.401  -3.393  22.644  0.00  0.00    -0.067 S 
ATOM      3  C   UNL     1       6.496  -4.500  23.587  0.00  0.00    +0.043 A 
ATOM      4  C   UNL     1       6.537  -4.102  24.922  0.00  0.00    +0.079 A 
ATOM      5  C   UNL     1       5.850  -4.882  25.880  0.00  0.00    +0.032 A 
ATOM      6  C   UNL     1       5.151  -6.027  25.478  0.00  0.00    +0.047 A 
ATOM      7  C   UNL     1       5.133  -6.391  24.137  0.00  0.00    +0.118 A 
ATOM      8  C   UNL     1       5.796  -5.643  23.168  0.00  0.00    +0.062 A 
ATOM      9  N   UNL     1       7.272  -2.953  25.175  0.00  0.00    -0.239 NA
ENDROOT
BRANCH   1  13
ATOM     10  C   UNL     1      10.343   1.001  23.741  0.00  0.00    +0.063 A 
ATOM     11  C   UNL     1      10.177   0.337  24.964  0.00  0.00    +0.026 A 
ATOM     12  C   UNL     1       9.357  -0.792  25.080  0.00  0.00    +0.012 A 
ATOM     13  C   UNL     1       8.681  -1.314  23.967  0.00  0.00    +0.010 A 
ATOM     14  C   UNL     1       8.848  -0.667  22.738  0.00  0.00    +0.050 A 
ATOM     15  C   UNL     1       9.682   0.452  22.629  0.00  0.00    +0.145 A 
ATOM     16  F   UNL     1       9.812   1.005  21.412  0.00  0.00    -0.204 F 
BRANCH  10  18
ATOM     17  C   UNL     1      10.760   3.416  23.424  0.00  0.00    +0.125 C 
ATOM     18  N   UNL     1      11.237   2.078  23.716  0.00  0.00    -0.345 N 
ATOM     19  H   UNL     1      11.894   2.043  24.492  0.00  0.00    +0.146 HD
ENDBRANCH  10  18
ENDBRANCH   1  13
BRANCH   7  20
ATOM     20  O   UNL     1       4.465  -7.501  23.711  0.00  0.00    -0.507 OA
ATOM     21  H   UNL     1       4.619  -8.224  24.341  0.00  0.00    +0.292 HD
ENDBRANCH   7  20
TORSDOF 3
ENDMDL
MODEL 9
REMARK VINA RESULT:      -6.2      3.968      7.637
REMARK  Name = 
REMARK  4 active torsions:
REMARK  status: ('A' for Active; 'I' for Inactive)
REMARK    1  A    between atoms: C_1  and  N_2
REMARK    2  A    between atoms: N_2  and  C_3
REMARK    3  A    between atoms: C_7  and  C_10
REMARK    4  A    between atoms: C_15  and  O_16
REMARK                            x       y       z     vdW  Elec       q    Type
REMARK                         _______ _______ _______ _____ _____    ______ ____
ROOT
ATOM      1  C   UNL     1       7.132  -3.324  24.552  0.00  0.00    +0.110 A 
ATOM      2  S   UNL     1       7.735  -3.653  26.133  0.00  0.00    -0.067 S 
ATOM      3  C   UNL     1       6.585  -4.907  26.326  0.00  0.00    +0.043 A 
ATOM      4  C   UNL     1       5.833  -5.021  25.158  0.00  0.00    +0.079 A 
ATOM      5  C   UNL     1       4.820  -6.004  25.102  0.00  0.00    +0.032 A 
ATOM      6  C   UNL     1       4.588  -6.834  26.206  0.00  0.00    +0.047 A 
ATOM      7  C   UNL     1       5.359  -6.690  27.353  0.00  0.00    +0.118 A 
ATOM      8  C   UNL     1       6.368  -5.735  27.440  0.00  0.00    +0.062 A 
ATOM      9  N   UNL     1       6.168  -4.130  24.150  0.00  0.00    -0.239 NA
ENDROOT
BRANCH   1  13
ATOM     10  C   UNL     1       8.877  -0.162  22.160  0.00  0.00    +0.063 A 
ATOM     11  C   UNL     1       7.592  -0.033  22.703  0.00  0.00    +0.026 A 
ATOM     12  C   UNL     1       7.016  -1.052  23.473  0.00  0.00    +0.012 A 
ATOM     13  C   UNL     1       7.713  -2.238  23.744  0.00  0.00    +0.010 A 
ATOM     14  C   UNL     1       9.001  -2.373  23.216  0.00  0.00    +0.050 A 
ATOM     15  C   UNL     1       9.575  -1.343  22.461  0.00  0.00    +0.145 A 
ATOM     16  F   UNL     1      10.824  -1.536  22.009  0.00  0.00    -0.204 F 
BRANCH  10  18
ATOM     17  C   UNL     1      10.049   2.013  22.180  0.00  0.00    +0.125 C 
ATOM     18  N   UNL     1       9.388   0.939  21.464  0.00  0.00    -0.345 N 
ATOM     19  H   UNL     1       9.875   0.660  20.615  0.00  0.00    +0.146 HD
ENDBRANCH  10  18
ENDBRANCH   1  13
BRANCH   7  20
ATOM     20  O   UNL     1       5.160  -7.480  28.448  0.00  0.00    -0.507 OA
ATOM     21  H   UNL     1       4.916  -6.918  29.201  0.00  0.00    +0.292 HD
ENDBRANCH   7  20
TORSDOF 3
ENDMDL
