MODEL 1
REMARK VINA RESULT:      -6.6      0.000      0.000
REMARK  Name = 
REMARK  7 active torsions:
REMARK  status: ('A' for Active; 'I' for Inactive)
REMARK    1  A    between atoms: N_6  and  C_9
REMARK    2  A    between atoms: C_12  and  O_14
REMARK    3  A    between atoms: C_15  and  C_17
REMARK    4  A    between atoms: C_17  and  O_18
REMARK    5  A    between atoms: O_18  and  P_19
REMARK    6  A    between atoms: P_19  and  O_20
REMARK    7  A    between atoms: P_19  and  O_21
REMARK                            x       y       z     vdW  Elec       q    Type
REMARK                         _______ _______ _______ _____ _____    ______ ____
ROOT
ATOM      1  C   UNL     1       8.768  -1.489  23.386  0.00  0.00    +0.226 C 
ATOM      2  O   UNL     1       7.790  -1.666  24.438  0.00  0.00    -0.348 OA
ATOM      3  C   UNL     1       7.926  -3.014  24.955  0.00  0.00    +0.175 C 
ATOM      4  C   UNL     1       9.068  -3.679  24.182  0.00  0.00    +0.150 C 
ATOM      5  C   UNL     1       9.863  -2.502  23.671  0.00  0.00    +0.088 C 
ENDROOT
BRANCH   1  12
ATOM      6  N   UNL     1      10.952   3.561  22.925  0.00  0.00    -0.343 N 
ATOM      7  H   UNL     1      10.785   4.229  23.664  0.00  0.00    +0.144 HD
ATOM      8  H   UNL     1      10.796   3.939  21.995  0.00  0.00    +0.144 HD
ATOM      9  C   UNL     1      10.417   2.306  23.071  0.00  0.00    +0.123 A 
ATOM     10  C   UNL     1      10.243   1.738  24.421  0.00  0.00    +0.061 A 
ATOM     11  C   UNL     1       9.654   0.544  24.479  0.00  0.00    +0.096 A 
ATOM     12  N   UNL     1       9.271  -0.120  23.337  0.00  0.00    -0.273 N 
ATOM     13  C   UNL     1       9.553   0.411  22.069  0.00  0.00    +0.352 A 
ATOM     14  O   UNL     1       9.328  -0.242  21.051  0.00  0.00    -0.244 OA
ATOM     15  N   UNL     1      10.086   1.674  21.989  0.00  0.00    -0.178 NA
ENDBRANCH   1  12
BRANCH   4  16
ATOM     16  O   UNL     1       9.876  -4.526  24.984  0.00  0.00    -0.389 OA
ATOM     17  H   UNL     1      10.402  -5.104  24.406  0.00  0.00    +0.210 HD
ENDBRANCH   4  16
BRANCH   3  18
ATOM     18  C   UNL     1       6.602  -3.789  24.838  0.00  0.00    +0.206 C 
BRANCH  18  19
ATOM     19  O   UNL     1       6.734  -5.122  25.332  0.00  0.00    -0.284 OA
BRANCH  19  20
ATOM     20  P   UNL     1       6.674  -5.233  27.059  0.00  0.00    +0.472 P 
ATOM     21  O   UNL     1       6.620  -5.332  28.602  0.00  0.00    -0.228 OA
BRANCH  20  22
ATOM     22  O   UNL     1       8.150  -5.935  26.952  0.00  0.00    -0.303 OA
ATOM     23  H   UNL     1       8.404  -6.324  27.807  0.00  0.00    +0.222 HD
ENDBRANCH  20  22
BRANCH  20  24
ATOM     24  O   UNL     1       5.868  -6.632  26.793  0.00  0.00    -0.303 OA
ATOM     25  H   UNL     1       6.150  -6.936  25.910  0.00  0.00    +0.222 HD
ENDBRANCH  20  24
ENDBRANCH  19  20
ENDBRANCH  18  19
ENDBRANCH   3  18
TORSDOF 7
ENDMDL
MODEL 2
REMARK VINA RESULT:      -6.5      1.795      2.788
REMARK  Name = 
REMARK  7 active torsions:
REMARK  status: ('A' for Active; 'I' for Inactive)
REMARK    1  A    between atoms: N_6  and  C_9
REMARK    2  A    between atoms: C_12  and  O_14
REMARK    3  A    between atoms: C_15  and  C_17
REMARK    4  A    between atoms: C_17  and  O_18
REMARK    5  A    between atoms: O_18  and  P_19
REMARK    6  A    between atoms: P_19  and  O_20
REMARK    7  A    between atoms: P_19  and  O_21
REMARK                            x       y       z     vdW  Elec       q    Type
REMARK                         _______ _______ _______ _____ _____    ______ ____
ROOT
ATOM      1  C   UNL     1       8.057  -1.357  23.550  0.00  0.00    +0.226 C 
ATOM      2  O   UNL     1       8.672  -2.533  22.972  0.00  0.00    -0.348 OA
ATOM      3  C   UNL     1       7.615  -3.419  22.528  0.00  0.00    +0.175 C 
ATOM      4  C   UNL     1       6.285  -2.725  22.838  0.00  0.00    +0.150 C 
ATOM      5  C   UNL     1       6.676  -1.270  22.928  0.00  0.00    +0.088 C 
ENDROOT
BRANCH   1  12
ATOM      6  N   UNL     1      10.966   3.308  23.043  0.00  0.00    -0.343 N 
ATOM      7  H   UNL     1      11.200   3.633  22.115  0.00  0.00    +0.144 HD
ATOM      8  H   UNL     1      11.754   3.316  23.684  0.00  0.00    +0.144 HD
ATOM      9  C   UNL     1      10.226   2.158  23.143  0.00  0.00    +0.123 A 
ATOM     10  C   UNL     1       9.261   1.814  22.081  0.00  0.00    +0.061 A 
ATOM     11  C   UNL     1       8.632   0.648  22.221  0.00  0.00    +0.096 A 
ATOM     12  N   UNL     1       8.854  -0.157  23.316  0.00  0.00    -0.273 N 
ATOM     13  C   UNL     1       9.701   0.261  24.354  0.00  0.00    +0.352 A 
ATOM     14  O   UNL     1       9.796  -0.398  25.388  0.00  0.00    -0.244 OA
ATOM     15  N   UNL     1      10.418   1.420  24.191  0.00  0.00    -0.178 NA
ENDBRANCH   1  12
BRANCH   4  16
ATOM     16  O   UNL     1       5.297  -2.924  21.840  0.00  0.00    -0.389 OA
ATOM     17  H   UNL     1       5.618  -3.584  21.203  0.00  0.00    +0.210 HD
ENDBRANCH   4  16
BRANCH   3  18
ATOM     18  C   UNL     1       7.731  -4.800  23.196  0.00  0.00    +0.206 C 
BRANCH  18  19
ATOM     19  O   UNL     1       8.867  -4.868  24.059  0.00  0.00    -0.284 OA
BRANCH  19  20
ATOM     20  P   UNL     1       8.461  -5.002  25.736  0.00  0.00    +0.472 P 
ATOM     21  O   UNL     1       8.097  -5.123  27.235  0.00  0.00    -0.228 OA
BRANCH  20  22
ATOM     22  O   UNL     1       9.021  -3.470  25.878  0.00  0.00    -0.303 OA
ATOM     23  H   UNL     1       8.614  -2.895  25.206  0.00  0.00    +0.222 HD
ENDBRANCH  20  22
BRANCH  20  24
ATOM     24  O   UNL     1       9.944  -5.677  25.889  0.00  0.00    -0.303 OA
ATOM     25  H   UNL     1       9.938  -6.463  25.311  0.00  0.00    +0.222 HD
ENDBRANCH  20  24
ENDBRANCH  19  20
ENDBRANCH  18  19
ENDBRANCH   3  18
TORSDOF 7
ENDMDL
MODEL 3
REMARK VINA RESULT:      -6.3      1.856      2.339
REMARK  Name = 
REMARK  7 active torsions:
REMARK  status: ('A' for Active; 'I' for Inactive)
REMARK    1  A    between atoms: N_6  and  C_9
REMARK    2  A    between atoms: C_12  and  O_14
REMARK    3  A    between atoms: C_15  and  C_17
REMARK    4  A    between atoms: C_17  and  O_18
REMARK    5  A    between atoms: O_18  and  P_19
REMARK    6  A    between atoms: P_19  and  O_20
REMARK    7  A    between atoms: P_19  and  O_21
REMARK                            x       y       z     vdW  Elec       q    Type
REMARK                         _______ _______ _______ _____ _____    ______ ____
ROOT
ATOM      1  C   UNL     1       7.727  -2.594  23.544  0.00  0.00    +0.226 C 
ATOM      2  O   UNL     1       8.677  -3.296  24.382  0.00  0.00    -0.348 OA
ATOM      3  C   UNL     1       8.465  -4.719  24.206  0.00  0.00    +0.175 C 
ATOM      4  C   UNL     1       7.335  -4.883  23.185  0.00  0.00    +0.150 C 
ATOM      5  C   UNL     1       7.357  -3.569  22.441  0.00  0.00    +0.088 C 
ENDROOT
BRANCH   1  12
ATOM      6  N   UNL     1       9.428   2.234  21.475  0.00  0.00    -0.343 N 
ATOM      7  H   UNL     1      10.403   2.337  21.229  0.00  0.00    +0.144 HD
ATOM      8  H   UNL     1       9.065   3.010  22.020  0.00  0.00    +0.144 HD
ATOM      9  C   UNL     1       9.025   1.019  21.968  0.00  0.00    +0.123 A 
ATOM     10  C   UNL     1       9.710  -0.213  21.531  0.00  0.00    +0.061 A 
ATOM     11  C   UNL     1       9.303  -1.342  22.108  0.00  0.00    +0.096 A 
ATOM     12  N   UNL     1       8.279  -1.346  23.026  0.00  0.00    -0.273 N 
ATOM     13  C   UNL     1       7.585  -0.166  23.333  0.00  0.00    +0.352 A 
ATOM     14  O   UNL     1       6.588  -0.194  24.053  0.00  0.00    -0.244 OA
ATOM     15  N   UNL     1       8.040   1.019  22.811  0.00  0.00    -0.178 NA
ENDBRANCH   1  12
BRANCH   4  16
ATOM     16  O   UNL     1       7.529  -5.972  22.297  0.00  0.00    -0.389 OA
ATOM     17  H   UNL     1       6.896  -6.677  22.516  0.00  0.00    +0.210 HD
ENDBRANCH   4  16
BRANCH   3  18
ATOM     18  C   UNL     1       8.153  -5.404  25.548  0.00  0.00    +0.206 C 
BRANCH  18  19
ATOM     19  O   UNL     1       6.749  -5.418  25.812  0.00  0.00    -0.284 OA
BRANCH  19  20
ATOM     20  P   UNL     1       6.358  -5.333  27.496  0.00  0.00    +0.472 P 
ATOM     21  O   UNL     1       6.007  -5.258  29.002  0.00  0.00    -0.228 OA
BRANCH  20  22
ATOM     22  O   UNL     1       7.847  -5.961  27.757  0.00  0.00    -0.303 OA
ATOM     23  H   UNL     1       7.798  -6.706  28.383  0.00  0.00    +0.222 HD
ENDBRANCH  20  22
BRANCH  20  24
ATOM     24  O   UNL     1       5.663  -6.795  27.256  0.00  0.00    -0.303 OA
ATOM     25  H   UNL     1       4.761  -6.609  26.933  0.00  0.00    +0.222 HD
ENDBRANCH  20  24
ENDBRANCH  19  20
ENDBRANCH  18  19
ENDBRANCH   3  18
TORSDOF 7
ENDMDL
MODEL 4
REMARK VINA RESULT:      -6.3      2.072      2.808
REMARK  Name = 
REMARK  7 active torsions:
REMARK  status: ('A' for Active; 'I' for Inactive)
REMARK    1  A    between atoms: N_6  and  C_9
REMARK    2  A    between atoms: C_12  and  O_14
REMARK    3  A    between atoms: C_15  and  C_17
REMARK    4  A    between atoms: C_17  and  O_18
REMARK    5  A    between atoms: O_18  and  P_19
REMARK    6  A    between atoms: P_19  and  O_20
REMARK    7  A    between atoms: P_19  and  O_21
REMARK                            x       y       z     vdW  Elec       q    Type
REMARK                         _______ _______ _______ _____ _____    ______ ____
ROOT
ATOM      1  C   UNL     1       8.866  -1.659  23.226  0.00  0.00    +0.226 C 
ATOM      2  O   UNL     1       7.598  -1.821  23.906  0.00  0.00    -0.348 OA
ATOM      3  C   UNL     1       7.588  -3.130  24.529  0.00  0.00    +0.175 C 
ATOM      4  C   UNL     1       8.938  -3.785  24.222  0.00  0.00    +0.150 C 
ATOM      5  C   UNL     1       9.828  -2.603  23.923  0.00  0.00    +0.088 C 
ENDROOT
BRANCH   1  12
ATOM      6  N   UNL     1      10.875   3.481  23.040  0.00  0.00    -0.343 N 
ATOM      7  H   UNL     1      10.700   4.096  23.823  0.00  0.00    +0.144 HD
ATOM      8  H   UNL     1      10.688   3.910  22.139  0.00  0.00    +0.144 HD
ATOM      9  C   UNL     1      10.383   2.202  23.118  0.00  0.00    +0.123 A 
ATOM     10  C   UNL     1      10.255   1.546  24.433  0.00  0.00    +0.061 A 
ATOM     11  C   UNL     1       9.706   0.332  24.428  0.00  0.00    +0.096 A 
ATOM     12  N   UNL     1       9.323  -0.273  23.253  0.00  0.00    -0.273 N 
ATOM     13  C   UNL     1       9.562   0.345  22.016  0.00  0.00    +0.352 A 
ATOM     14  O   UNL     1       9.339  -0.252  20.963  0.00  0.00    -0.244 OA
ATOM     15  N   UNL     1      10.052   1.627  22.005  0.00  0.00    -0.178 NA
ENDBRANCH   1  12
BRANCH   4  16
ATOM     16  O   UNL     1       9.454  -4.548  25.301  0.00  0.00    -0.389 OA
ATOM     17  H   UNL     1       9.619  -3.958  26.057  0.00  0.00    +0.210 HD
ENDBRANCH   4  16
BRANCH   3  18
ATOM     18  C   UNL     1       6.398  -3.970  24.034  0.00  0.00    +0.206 C 
BRANCH  18  19
ATOM     19  O   UNL     1       6.833  -5.198  23.449  0.00  0.00    -0.284 OA
BRANCH  19  20
ATOM     20  P   UNL     1       6.374  -5.380  21.791  0.00  0.00    +0.472 P 
ATOM     21  O   UNL     1       5.963  -5.542  20.307  0.00  0.00    -0.228 OA
BRANCH  20  22
ATOM     22  O   UNL     1       4.924  -4.768  22.243  0.00  0.00    -0.303 OA
ATOM     23  H   UNL     1       4.533  -5.308  22.953  0.00  0.00    +0.222 HD
ENDBRANCH  20  22
BRANCH  20  24
ATOM     24  O   UNL     1       5.986  -6.910  22.219  0.00  0.00    -0.303 OA
ATOM     25  H   UNL     1       6.131  -7.453  21.421  0.00  0.00    +0.222 HD
ENDBRANCH  20  24
ENDBRANCH  19  20
ENDBRANCH  18  19
ENDBRANCH   3  18
TORSDOF 7
ENDMDL
MODEL 5
REMARK VINA RESULT:      -6.2      3.735      7.301
REMARK  Name = 
REMARK  7 active torsions:
REMARK  status: ('A' for Active; 'I' for Inactive)
REMARK    1  A    between atoms: N_6  and  C_9
REMARK    2  A    between atoms: C_12  and  O_14
REMARK    3  A    between atoms: C_15  and  C_17
REMARK    4  A    between atoms: C_17  and  O_18
REMARK    5  A    between atoms: O_18  and  P_19
REMARK    6  A    between atoms: P_19  and  O_20
REMARK    7  A    between atoms: P_19  and  O_21
REMARK                            x       y       z     vdW  Elec       q    Type
REMARK                         _______ _______ _______ _____ _____    ______ ____
ROOT
ATOM      1  C   UNL     1       9.343  -2.708  24.640  0.00  0.00    +0.226 C 
ATOM      2  O   UNL     1       9.119  -1.338  25.052  0.00  0.00    -0.348 OA
ATOM      3  C   UNL     1       9.569  -0.468  23.983  0.00  0.00    +0.175 C 
ATOM      4  C   UNL     1      10.074  -1.370  22.852  0.00  0.00    +0.150 C 
ATOM      5  C   UNL     1       9.371  -2.678  23.122  0.00  0.00    +0.088 C 
ENDROOT
BRANCH   1  12
ATOM      6  N   UNL     1       5.688  -6.423  26.462  0.00  0.00    -0.343 N 
ATOM      7  H   UNL     1       4.753  -6.111  26.687  0.00  0.00    +0.144 HD
ATOM      8  H   UNL     1       6.099  -7.014  27.178  0.00  0.00    +0.144 HD
ATOM      9  C   UNL     1       6.572  -5.485  25.992  0.00  0.00    +0.123 A 
ATOM     10  C   UNL     1       6.075  -4.336  25.211  0.00  0.00    +0.061 A 
ATOM     11  C   UNL     1       6.990  -3.438  24.850  0.00  0.00    +0.096 A 
ATOM     12  N   UNL     1       8.319  -3.606  25.163  0.00  0.00    -0.273 N 
ATOM     13  C   UNL     1       8.762  -4.767  25.815  0.00  0.00    +0.352 A 
ATOM     14  O   UNL     1       9.963  -4.976  25.977  0.00  0.00    -0.244 OA
ATOM     15  N   UNL     1       7.827  -5.666  26.265  0.00  0.00    -0.178 NA
ENDBRANCH   1  12
BRANCH   4  16
ATOM     16  O   UNL     1       9.758  -0.883  21.557  0.00  0.00    -0.389 OA
ATOM     17  H   UNL     1      10.269  -0.073  21.390  0.00  0.00    +0.210 HD
ENDBRANCH   4  16
BRANCH   3  18
ATOM     18  C   UNL     1      10.644   0.513  24.481  0.00  0.00    +0.206 C 
BRANCH  18  19
ATOM     19  O   UNL     1      10.896   1.541  23.522  0.00  0.00    -0.284 OA
BRANCH  19  20
ATOM     20  P   UNL     1       9.484   2.439  23.079  0.00  0.00    +0.472 P 
ATOM     21  O   UNL     1       8.222   3.243  22.683  0.00  0.00    -0.228 OA
BRANCH  20  22
ATOM     22  O   UNL     1       9.879   2.078  21.532  0.00  0.00    -0.303 OA
ATOM     23  H   UNL     1      10.108   2.887  21.041  0.00  0.00    +0.222 HD
ENDBRANCH  20  22
BRANCH  20  24
ATOM     24  O   UNL     1      10.473   3.741  23.143  0.00  0.00    -0.303 OA
ATOM     25  H   UNL     1      10.510   4.090  22.232  0.00  0.00    +0.222 HD
ENDBRANCH  20  24
ENDBRANCH  19  20
ENDBRANCH  18  19
ENDBRANCH   3  18
TORSDOF 7
ENDMDL
MODEL 6
REMARK VINA RESULT:      -6.2      1.407      1.729
REMARK  Name = 
REMARK  7 active torsions:
REMARK  status: ('A' for Active; 'I' for Inactive)
REMARK    1  A    between atoms: N_6  and  C_9
REMARK    2  A    between atoms: C_12  and  O_14
REMARK    3  A    between atoms: C_15  and  C_17
REMARK    4  A    between atoms: C_17  and  O_18
REMARK    5  A    between atoms: O_18  and  P_19
REMARK    6  A    between atoms: P_19  and  O_20
REMARK    7  A    between atoms: P_19  and  O_21
REMARK                            x       y       z     vdW  Elec       q    Type
REMARK                         _______ _______ _______ _____ _____    ______ ____
ROOT
ATOM      1  C   UNL     1       8.491  -2.486  24.058  0.00  0.00    +0.226 C 
ATOM      2  O   UNL     1       7.631  -2.360  25.216  0.00  0.00    -0.348 OA
ATOM      3  C   UNL     1       7.867  -3.503  26.076  0.00  0.00    +0.175 C 
ATOM      4  C   UNL     1       8.949  -4.355  25.406  0.00  0.00    +0.150 C 
ATOM      5  C   UNL     1       9.645  -3.368  24.499  0.00  0.00    +0.088 C 
ENDROOT
BRANCH   1  12
ATOM      6  N   UNL     1      10.403   2.235  21.927  0.00  0.00    -0.343 N 
ATOM      7  H   UNL     1      10.361   3.072  22.491  0.00  0.00    +0.144 HD
ATOM      8  H   UNL     1      10.062   2.369  20.979  0.00  0.00    +0.144 HD
ATOM      9  C   UNL     1       9.941   1.070  22.485  0.00  0.00    +0.123 A 
ATOM     10  C   UNL     1      10.044   0.866  23.943  0.00  0.00    +0.061 A 
ATOM     11  C   UNL     1       9.511  -0.261  24.412  0.00  0.00    +0.096 A 
ATOM     12  N   UNL     1       8.936  -1.185  23.569  0.00  0.00    -0.273 N 
ATOM     13  C   UNL     1       8.956  -0.998  22.179  0.00  0.00    +0.352 A 
ATOM     14  O   UNL     1       8.561  -1.883  21.422  0.00  0.00    -0.244 OA
ATOM     15  N   UNL     1       9.428   0.192  21.681  0.00  0.00    -0.178 NA
ENDBRANCH   1  12
BRANCH   4  16
ATOM     16  O   UNL     1       9.864  -4.932  26.324  0.00  0.00    -0.389 OA
ATOM     17  H   UNL     1       9.542  -5.813  26.581  0.00  0.00    +0.210 HD
ENDBRANCH   4  16
BRANCH   3  18
ATOM     18  C   UNL     1       6.568  -4.287  26.326  0.00  0.00    +0.206 C 
BRANCH  18  19
ATOM     19  O   UNL     1       6.287  -4.400  27.722  0.00  0.00    -0.284 OA
BRANCH  19  20
ATOM     20  P   UNL     1       5.952  -6.018  28.236  0.00  0.00    +0.472 P 
ATOM     21  O   UNL     1       5.653  -7.466  28.695  0.00  0.00    -0.228 OA
BRANCH  20  22
ATOM     22  O   UNL     1       6.131  -5.450  29.761  0.00  0.00    -0.303 OA
ATOM     23  H   UNL     1       6.343  -6.178  30.373  0.00  0.00    +0.222 HD
ENDBRANCH  20  22
BRANCH  20  24
ATOM     24  O   UNL     1       7.556  -6.261  28.020  0.00  0.00    -0.303 OA
ATOM     25  H   UNL     1       7.686  -7.227  28.075  0.00  0.00    +0.222 HD
ENDBRANCH  20  24
ENDBRANCH  19  20
ENDBRANCH  18  19
ENDBRANCH   3  18
TORSDOF 7
ENDMDL
MODEL 7
REMARK VINA RESULT:      -6.2      4.578      7.359
REMARK  Name = 
REMARK  7 active torsions:
REMARK  status: ('A' for Active; 'I' for Inactive)
REMARK    1  A    between atoms: N_6  and  C_9
REMARK    2  A    between atoms: C_12  and  O_14
REMARK    3  A    between atoms: C_15  and  C_17
REMARK    4  A    between atoms: C_17  and  O_18
REMARK    5  A    between atoms: O_18  and  P_19
REMARK    6  A    between atoms: P_19  and  O_20
REMARK    7  A    between atoms: P_19  and  O_21
REMARK                            x       y       z     vdW  Elec       q    Type
REMARK                         _______ _______ _______ _____ _____    ______ ____
ROOT
ATOM      1  C   UNL     1       6.865  -4.796  24.744  0.00  0.00    +0.226 C 
ATOM      2  O   UNL     1       6.400  -3.437  24.564  0.00  0.00    -0.348 OA
ATOM      3  C   UNL     1       6.188  -3.219  23.146  0.00  0.00    +0.175 C 
ATOM      4  C   UNL     1       6.525  -4.533  22.434  0.00  0.00    +0.150 C 
ATOM      5  C   UNL     1       6.372  -5.561  23.529  0.00  0.00    +0.088 C 
ENDROOT
BRANCH   1  12
ATOM      6  N   UNL     1       5.436  -7.149  29.530  0.00  0.00    -0.343 N 
ATOM      7  H   UNL     1       4.454  -7.253  29.742  0.00  0.00    +0.144 HD
ATOM      8  H   UNL     1       5.977  -6.764  30.298  0.00  0.00    +0.144 HD
ATOM      9  C   UNL     1       5.767  -6.580  28.326  0.00  0.00    +0.123 A 
ATOM     10  C   UNL     1       4.874  -6.755  27.164  0.00  0.00    +0.061 A 
ATOM     11  C   UNL     1       5.233  -6.115  26.053  0.00  0.00    +0.096 A 
ATOM     12  N   UNL     1       6.389  -5.370  25.998  0.00  0.00    -0.273 N 
ATOM     13  C   UNL     1       7.262  -5.319  27.096  0.00  0.00    +0.352 A 
ATOM     14  O   UNL     1       8.355  -4.762  27.002  0.00  0.00    -0.244 OA
ATOM     15  N   UNL     1       6.872  -5.905  28.274  0.00  0.00    -0.178 NA
ENDBRANCH   1  12
BRANCH   4  16
ATOM     16  O   UNL     1       5.664  -4.822  21.344  0.00  0.00    -0.389 OA
ATOM     17  H   UNL     1       5.117  -5.594  21.568  0.00  0.00    +0.210 HD
ENDBRANCH   4  16
BRANCH   3  18
ATOM     18  C   UNL     1       7.028  -2.037  22.634  0.00  0.00    +0.206 C 
BRANCH  18  19
ATOM     19  O   UNL     1       8.364  -2.440  22.328  0.00  0.00    -0.284 OA
BRANCH  19  20
ATOM     20  P   UNL     1       9.574  -1.381  22.968  0.00  0.00    +0.472 P 
ATOM     21  O   UNL     1      10.656  -0.434  23.541  0.00  0.00    -0.228 OA
BRANCH  20  22
ATOM     22  O   UNL     1      10.333  -1.564  21.529  0.00  0.00    -0.303 OA
ATOM     23  H   UNL     1      11.006  -0.870  21.408  0.00  0.00    +0.222 HD
ENDBRANCH  20  22
BRANCH  20  24
ATOM     24  O   UNL     1      10.219  -2.744  23.605  0.00  0.00    -0.303 OA
ATOM     25  H   UNL     1       9.772  -3.484  23.153  0.00  0.00    +0.222 HD
ENDBRANCH  20  24
ENDBRANCH  19  20
ENDBRANCH  18  19
ENDBRANCH   3  18
TORSDOF 7
ENDMDL
MODEL 8
REMARK VINA RESULT:      -6.1      4.372      6.883
REMARK  Name = 
REMARK  7 active torsions:
REMARK  status: ('A' for Active; 'I' for Inactive)
REMARK    1  A    between atoms: N_6  and  C_9
REMARK    2  A    between atoms: C_12  and  O_14
REMARK    3  A    between atoms: C_15  and  C_17
REMARK    4  A    between atoms: C_17  and  O_18
REMARK    5  A    between atoms: O_18  and  P_19
REMARK    6  A    between atoms: P_19  and  O_20
REMARK    7  A    between atoms: P_19  and  O_21
REMARK                            x       y       z     vdW  Elec       q    Type
REMARK                         _______ _______ _______ _____ _____    ______ ____
ROOT
ATOM      1  C   UNL     1       8.171  -0.819  24.238  0.00  0.00    +0.226 C 
ATOM      2  O   UNL     1       8.509   0.236  25.170  0.00  0.00    -0.348 OA
ATOM      3  C   UNL     1       7.477   1.251  25.092  0.00  0.00    +0.175 C 
ATOM      4  C   UNL     1       6.447   0.767  24.067  0.00  0.00    +0.150 C 
ATOM      5  C   UNL     1       6.669  -0.726  24.041  0.00  0.00    +0.088 C 
ENDROOT
BRANCH   1  12
ATOM      6  N   UNL     1       9.765  -5.903  25.685  0.00  0.00    -0.343 N 
ATOM      7  H   UNL     1       9.615  -6.203  26.638  0.00  0.00    +0.144 HD
ATOM      8  H   UNL     1      10.700  -6.101  25.341  0.00  0.00    +0.144 HD
ATOM      9  C   UNL     1       9.342  -4.644  25.344  0.00  0.00    +0.123 A 
ATOM     10  C   UNL     1       8.174  -4.054  26.025  0.00  0.00    +0.061 A 
ATOM     11  C   UNL     1       7.871  -2.803  25.684  0.00  0.00    +0.096 A 
ATOM     12  N   UNL     1       8.592  -2.129  24.724  0.00  0.00    -0.273 N 
ATOM     13  C   UNL     1       9.629  -2.766  24.026  0.00  0.00    +0.352 A 
ATOM     14  O   UNL     1      10.184  -2.208  23.082  0.00  0.00    -0.244 OA
ATOM     15  N   UNL     1      10.008  -4.027  24.418  0.00  0.00    -0.178 NA
ENDBRANCH   1  12
BRANCH   4  16
ATOM     16  O   UNL     1       5.108   1.074  24.423  0.00  0.00    -0.389 OA
ATOM     17  H   UNL     1       5.105   1.536  25.279  0.00  0.00    +0.210 HD
ENDBRANCH   4  16
BRANCH   3  18
ATOM     18  C   UNL     1       8.073   2.621  24.729  0.00  0.00    +0.206 C 
BRANCH  18  19
ATOM     19  O   UNL     1       8.647   2.611  23.421  0.00  0.00    -0.284 OA
BRANCH  19  20
ATOM     20  P   UNL     1      10.258   3.240  23.363  0.00  0.00    +0.472 P 
ATOM     21  O   UNL     1      11.699   3.803  23.311  0.00  0.00    -0.228 OA
BRANCH  20  22
ATOM     22  O   UNL     1      10.336   2.589  21.862  0.00  0.00    -0.303 OA
ATOM     23  H   UNL     1       9.488   2.172  21.627  0.00  0.00    +0.222 HD
ENDBRANCH  20  22
BRANCH  20  24
ATOM     24  O   UNL     1      10.672   1.844  24.110  0.00  0.00    -0.303 OA
ATOM     25  H   UNL     1       9.835   1.454  24.423  0.00  0.00    +0.222 HD
ENDBRANCH  20  24
ENDBRANCH  19  20
ENDBRANCH  18  19
ENDBRANCH   3  18
TORSDOF 7
ENDMDL
MODEL 9
REMARK VINA RESULT:      -5.9      1.815      2.499
REMARK  Name = 
REMARK  7 active torsions:
REMARK  status: ('A' for Active; 'I' for Inactive)
REMARK    1  A    between atoms: N_6  and  C_9
REMARK    2  A    between atoms: C_12  and  O_14
REMARK    3  A    between atoms: C_15  and  C_17
REMARK    4  A    between atoms: C_17  and  O_18
REMARK    5  A    between atoms: O_18  and  P_19
REMARK    6  A    between atoms: P_19  and  O_20
REMARK    7  A    between atoms: P_19  and  O_21
REMARK                            x       y       z     vdW  Elec       q    Type
REMARK                         _______ _______ _______ _____ _____    ______ ____
ROOT
ATOM      1  C   UNL     1       7.554  -1.395  24.790  0.00  0.00    +0.226 C 
ATOM      2  O   UNL     1       8.352  -2.497  25.285  0.00  0.00    -0.348 OA
ATOM      3  C   UNL     1       7.489  -3.655  25.411  0.00  0.00    +0.175 C 
ATOM      4  C   UNL     1       6.093  -3.229  24.945  0.00  0.00    +0.150 C 
ATOM      5  C   UNL     1       6.379  -2.032  24.070  0.00  0.00    +0.088 C 
ENDROOT
BRANCH   1  12
ATOM      6  N   UNL     1      10.200   2.248  21.595  0.00  0.00    -0.343 N 
ATOM      7  H   UNL     1      10.847   1.902  20.901  0.00  0.00    +0.144 HD
ATOM      8  H   UNL     1      10.573   3.013  22.150  0.00  0.00    +0.144 HD
ATOM      9  C   UNL     1       9.539   1.324  22.363  0.00  0.00    +0.123 A 
ATOM     10  C   UNL     1       9.227  -0.005  21.802  0.00  0.00    +0.061 A 
ATOM     11  C   UNL     1       8.646  -0.867  22.635  0.00  0.00    +0.096 A 
ATOM     12  N   UNL     1       8.328  -0.510  23.926  0.00  0.00    -0.273 N 
ATOM     13  C   UNL     1       8.546   0.799  24.383  0.00  0.00    +0.352 A 
ATOM     14  O   UNL     1       8.143   1.151  25.490  0.00  0.00    -0.244 OA
ATOM     15  N   UNL     1       9.216   1.677  23.568  0.00  0.00    -0.178 NA
ENDBRANCH   1  12
BRANCH   4  16
ATOM     16  O   UNL     1       5.408  -4.236  24.217  0.00  0.00    -0.389 OA
ATOM     17  H   UNL     1       5.425  -5.063  24.728  0.00  0.00    +0.210 HD
ENDBRANCH   4  16
BRANCH   3  18
ATOM     18  C   UNL     1       7.491  -4.194  26.852  0.00  0.00    +0.206 C 
BRANCH  18  19
ATOM     19  O   UNL     1       6.164  -4.436  27.320  0.00  0.00    -0.284 OA
BRANCH  19  20
ATOM     20  P   UNL     1       5.944  -6.011  28.003  0.00  0.00    +0.472 P 
ATOM     21  O   UNL     1       5.748  -7.420  28.613  0.00  0.00    -0.228 OA
BRANCH  20  22
ATOM     22  O   UNL     1       7.570  -6.166  27.883  0.00  0.00    -0.303 OA
ATOM     23  H   UNL     1       7.808  -6.628  27.060  0.00  0.00    +0.222 HD
ENDBRANCH  20  22
BRANCH  20  24
ATOM     24  O   UNL     1       5.675  -6.482  26.459  0.00  0.00    -0.303 OA
ATOM     25  H   UNL     1       5.729  -7.456  26.466  0.00  0.00    +0.222 HD
ENDBRANCH  20  24
ENDBRANCH  19  20
ENDBRANCH  18  19
ENDBRANCH   3  18
TORSDOF 7
ENDMDL
