MODEL 1
REMARK VINA RESULT:      -3.8      0.000      0.000
REMARK  Name = 
REMARK  6 active torsions:
REMARK  status: ('A' for Active; 'I' for Inactive)
REMARK    1  A    between atoms: N_1  and  C_2
REMARK    2  A    between atoms: C_2  and  C_3
REMARK    3  A    between atoms: C_2  and  C_8
REMARK    4  A    between atoms: C_3  and  C_4
REMARK    5  A    between atoms: C_4  and  C_5
REMARK    6  A    between atoms: C_5  and  O_6
REMARK                            x       y       z     vdW  Elec       q    Type
REMARK                         _______ _______ _______ _____ _____    ______ ____
ROOT
ATOM      1  C   UNL     1       9.160   1.904  22.823  0.00  0.00    +0.074 C 
ENDROOT
BRANCH   1   2
ATOM      2  N   UNL     1       9.856   1.825  21.543  0.00  0.00    -0.324 NA
ATOM      3  H   UNL     1       9.184   1.663  20.795  0.00  0.00    +0.119 HD
ATOM      4  H   UNL     1      10.283   2.726  21.334  0.00  0.00    +0.119 HD
ENDBRANCH   1   2
BRANCH   1   5
ATOM      5  C   UNL     1       9.952   2.801  23.732  0.00  0.00    -0.016 C 
ATOM      6  C   UNL     1      11.071   3.445  23.374  0.00  0.00    +0.005 C 
ENDBRANCH   1   5
BRANCH   1   7
ATOM      7  C   UNL     1       8.971   0.497  23.413  0.00  0.00    +0.034 C 
BRANCH   7   8
ATOM      8  C   UNL     1      10.295  -0.260  23.565  0.00  0.00    +0.122 C 
BRANCH   8   9
ATOM      9  C   UNL     1      10.259  -1.596  22.864  0.00  0.00    +0.305 C 
ATOM     10  O   UNL     1      10.285  -2.685  23.414  0.00  0.00    -0.251 OA
BRANCH   9  11
ATOM     11  O   UNL     1      10.193  -1.466  21.517  0.00  0.00    -0.481 OA
ATOM     12  H   UNL     1      10.663  -0.682  21.175  0.00  0.00    +0.295 HD
ENDBRANCH   9  11
ENDBRANCH   8   9
ENDBRANCH   7   8
ENDBRANCH   1   7
TORSDOF 6
ENDMDL
MODEL 2
REMARK VINA RESULT:      -3.7      1.356      1.592
REMARK  Name = 
REMARK  6 active torsions:
REMARK  status: ('A' for Active; 'I' for Inactive)
REMARK    1  A    between atoms: N_1  and  C_2
REMARK    2  A    between atoms: C_2  and  C_3
REMARK    3  A    between atoms: C_2  and  C_8
REMARK    4  A    between atoms: C_3  and  C_4
REMARK    5  A    between atoms: C_4  and  C_5
REMARK    6  A    between atoms: C_5  and  O_6
REMARK                            x       y       z     vdW  Elec       q    Type
REMARK                         _______ _______ _______ _____ _____    ______ ____
ROOT
ATOM      1  C   UNL     1       9.157   2.065  22.680  0.00  0.00    +0.074 C 
ENDROOT
BRANCH   1   2
ATOM      2  N   UNL     1      10.241   2.348  21.744  0.00  0.00    -0.324 NA
ATOM      3  H   UNL     1       9.862   2.761  20.893  0.00  0.00    +0.119 HD
ATOM      4  H   UNL     1      10.855   3.058  22.141  0.00  0.00    +0.119 HD
ENDBRANCH   1   2
BRANCH   1   5
ATOM      5  C   UNL     1       9.737   2.006  24.064  0.00  0.00    -0.016 C 
ATOM      6  C   UNL     1      10.637   1.099  24.472  0.00  0.00    +0.005 C 
ENDBRANCH   1   5
BRANCH   1   7
ATOM      7  C   UNL     1       8.446   0.759  22.289  0.00  0.00    +0.034 C 
BRANCH   7   8
ATOM      8  C   UNL     1       9.291  -0.116  21.358  0.00  0.00    +0.122 C 
BRANCH   8   9
ATOM      9  C   UNL     1       9.591  -1.461  21.974  0.00  0.00    +0.305 C 
ATOM     10  O   UNL     1      10.689  -1.839  22.346  0.00  0.00    -0.251 OA
BRANCH   9  11
ATOM     11  O   UNL     1       8.485  -2.235  22.075  0.00  0.00    -0.481 OA
ATOM     12  H   UNL     1       7.651  -1.729  22.104  0.00  0.00    +0.295 HD
ENDBRANCH   9  11
ENDBRANCH   8   9
ENDBRANCH   7   8
ENDBRANCH   1   7
TORSDOF 6
ENDMDL
MODEL 3
REMARK VINA RESULT:      -3.7      2.472      4.198
REMARK  Name = 
REMARK  6 active torsions:
REMARK  status: ('A' for Active; 'I' for Inactive)
REMARK    1  A    between atoms: N_1  and  C_2
REMARK    2  A    between atoms: C_2  and  C_3
REMARK    3  A    between atoms: C_2  and  C_8
REMARK    4  A    between atoms: C_3  and  C_4
REMARK    5  A    between atoms: C_4  and  C_5
REMARK    6  A    between atoms: C_5  and  O_6
REMARK                            x       y       z     vdW  Elec       q    Type
REMARK                         _______ _______ _______ _____ _____    ______ ____
ROOT
ATOM      1  C   UNL     1      10.256  -1.358  22.557  0.00  0.00    +0.074 C 
ENDROOT
BRANCH   1   2
ATOM      2  N   UNL     1       9.704  -0.862  21.300  0.00  0.00    -0.324 NA
ATOM      3  H   UNL     1       9.707   0.157  21.302  0.00  0.00    +0.119 HD
ATOM      4  H   UNL     1      10.315  -1.133  20.531  0.00  0.00    +0.119 HD
ENDBRANCH   1   2
BRANCH   1   5
ATOM      5  C   UNL     1       9.250  -2.286  23.177  0.00  0.00    -0.016 C 
ATOM      6  C   UNL     1       9.479  -3.037  24.263  0.00  0.00    +0.005 C 
ENDBRANCH   1   5
BRANCH   1   7
ATOM      7  C   UNL     1      10.613  -0.183  23.482  0.00  0.00    +0.034 C 
BRANCH   7   8
ATOM      8  C   UNL     1       9.588   0.954  23.411  0.00  0.00    +0.122 C 
BRANCH   8   9
ATOM      9  C   UNL     1      10.192   2.216  22.844  0.00  0.00    +0.305 C 
ATOM     10  O   UNL     1      10.689   3.117  23.498  0.00  0.00    -0.251 OA
BRANCH   9  11
ATOM     11  O   UNL     1      10.124   2.253  21.492  0.00  0.00    -0.481 OA
ATOM     12  H   UNL     1       9.316   1.846  21.127  0.00  0.00    +0.295 HD
ENDBRANCH   9  11
ENDBRANCH   8   9
ENDBRANCH   7   8
ENDBRANCH   1   7
TORSDOF 6
ENDMDL
MODEL 4
REMARK VINA RESULT:      -3.6      3.008      4.052
REMARK  Name = 
REMARK  6 active torsions:
REMARK  status: ('A' for Active; 'I' for Inactive)
REMARK    1  A    between atoms: N_1  and  C_2
REMARK    2  A    between atoms: C_2  and  C_3
REMARK    3  A    between atoms: C_2  and  C_8
REMARK    4  A    between atoms: C_3  and  C_4
REMARK    5  A    between atoms: C_4  and  C_5
REMARK    6  A    between atoms: C_5  and  O_6
REMARK                            x       y       z     vdW  Elec       q    Type
REMARK                         _______ _______ _______ _____ _____    ______ ____
ROOT
ATOM      1  C   UNL     1       9.563  -0.304  24.180  0.00  0.00    +0.074 C 
ENDROOT
BRANCH   1   2
ATOM      2  N   UNL     1      10.267   0.372  25.266  0.00  0.00    -0.324 NA
ATOM      3  H   UNL     1       9.651   0.457  26.074  0.00  0.00    +0.119 HD
ATOM      4  H   UNL     1      11.045  -0.207  25.578  0.00  0.00    +0.119 HD
ENDBRANCH   1   2
BRANCH   1   5
ATOM      5  C   UNL     1       9.198  -1.685  24.647  0.00  0.00    -0.016 C 
ATOM      6  C   UNL     1       9.691  -2.817  24.124  0.00  0.00    +0.005 C 
ENDBRANCH   1   5
BRANCH   1   7
ATOM      7  C   UNL     1      10.437  -0.328  22.915  0.00  0.00    +0.034 C 
BRANCH   7   8
ATOM      8  C   UNL     1       9.634  -0.049  21.640  0.00  0.00    +0.122 C 
BRANCH   8   9
ATOM      9  C   UNL     1       9.179   1.389  21.570  0.00  0.00    +0.305 C 
ATOM     10  O   UNL     1       8.021   1.760  21.466  0.00  0.00    -0.251 OA
BRANCH   9  11
ATOM     11  O   UNL     1      10.216   2.257  21.635  0.00  0.00    -0.481 OA
ATOM     12  H   UNL     1      11.000   1.973  21.127  0.00  0.00    +0.295 HD
ENDBRANCH   9  11
ENDBRANCH   8   9
ENDBRANCH   7   8
ENDBRANCH   1   7
TORSDOF 6
ENDMDL
MODEL 5
REMARK VINA RESULT:      -3.6      1.537      2.167
REMARK  Name = 
REMARK  6 active torsions:
REMARK  status: ('A' for Active; 'I' for Inactive)
REMARK    1  A    between atoms: N_1  and  C_2
REMARK    2  A    between atoms: C_2  and  C_3
REMARK    3  A    between atoms: C_2  and  C_8
REMARK    4  A    between atoms: C_3  and  C_4
REMARK    5  A    between atoms: C_4  and  C_5
REMARK    6  A    between atoms: C_5  and  O_6
REMARK                            x       y       z     vdW  Elec       q    Type
REMARK                         _______ _______ _______ _____ _____    ______ ____
ROOT
ATOM      1  C   UNL     1      10.212   1.713  23.838  0.00  0.00    +0.074 C 
ENDROOT
BRANCH   1   2
ATOM      2  N   UNL     1       8.885   1.806  24.441  0.00  0.00    -0.324 NA
ATOM      3  H   UNL     1       8.495   0.872  24.558  0.00  0.00    +0.119 HD
ATOM      4  H   UNL     1       8.967   2.186  25.383  0.00  0.00    +0.119 HD
ENDBRANCH   1   2
BRANCH   1   5
ATOM      5  C   UNL     1      10.060   1.852  22.350  0.00  0.00    -0.016 C 
ATOM      6  C   UNL     1       8.968   1.489  21.662  0.00  0.00    +0.005 C 
ENDBRANCH   1   5
BRANCH   1   7
ATOM      7  C   UNL     1      10.884   0.389  24.235  0.00  0.00    +0.034 C 
BRANCH   7   8
ATOM      8  C   UNL     1       9.885  -0.768  24.348  0.00  0.00    +0.122 C 
BRANCH   8   9
ATOM      9  C   UNL     1      10.200  -1.876  23.372  0.00  0.00    +0.305 C 
ATOM     10  O   UNL     1      10.482  -1.723  22.195  0.00  0.00    -0.251 OA
BRANCH   9  11
ATOM     11  O   UNL     1      10.136  -3.099  23.949  0.00  0.00    -0.481 OA
ATOM     12  H   UNL     1       9.326  -3.596  23.730  0.00  0.00    +0.295 HD
ENDBRANCH   9  11
ENDBRANCH   8   9
ENDBRANCH   7   8
ENDBRANCH   1   7
TORSDOF 6
ENDMDL
MODEL 6
REMARK VINA RESULT:      -3.6      2.963      3.806
REMARK  Name = 
REMARK  6 active torsions:
REMARK  status: ('A' for Active; 'I' for Inactive)
REMARK    1  A    between atoms: N_1  and  C_2
REMARK    2  A    between atoms: C_2  and  C_3
REMARK    3  A    between atoms: C_2  and  C_8
REMARK    4  A    between atoms: C_3  and  C_4
REMARK    5  A    between atoms: C_4  and  C_5
REMARK    6  A    between atoms: C_5  and  O_6
REMARK                            x       y       z     vdW  Elec       q    Type
REMARK                         _______ _______ _______ _____ _____    ______ ____
ROOT
ATOM      1  C   UNL     1       9.666  -1.464  23.091  0.00  0.00    +0.074 C 
ENDROOT
BRANCH   1   2
ATOM      2  N   UNL     1      10.069  -1.535  21.690  0.00  0.00    -0.324 NA
ATOM      3  H   UNL     1      10.913  -2.099  21.603  0.00  0.00    +0.119 HD
ATOM      4  H   UNL     1       9.356  -2.029  21.156  0.00  0.00    +0.119 HD
ENDBRANCH   1   2
BRANCH   1   5
ATOM      5  C   UNL     1      10.317  -0.258  23.705  0.00  0.00    -0.016 C 
ATOM      6  C   UNL     1      10.124   0.147  24.969  0.00  0.00    +0.005 C 
ENDBRANCH   1   5
BRANCH   1   7
ATOM      7  C   UNL     1      10.044  -2.765  23.819  0.00  0.00    +0.034 C 
BRANCH   7   8
ATOM      8  C   UNL     1       8.866  -3.374  24.585  0.00  0.00    +0.122 C 
BRANCH   8   9
ATOM      9  C   UNL     1       9.316  -4.463  25.529  0.00  0.00    +0.305 C 
ATOM     10  O   UNL     1       8.845  -4.681  26.633  0.00  0.00    -0.251 OA
BRANCH   9  11
ATOM     11  O   UNL     1      10.330  -5.198  25.015  0.00  0.00    -0.481 OA
ATOM     12  H   UNL     1      10.066  -6.096  24.740  0.00  0.00    +0.295 HD
ENDBRANCH   9  11
ENDBRANCH   8   9
ENDBRANCH   7   8
ENDBRANCH   1   7
TORSDOF 6
ENDMDL
MODEL 7
REMARK VINA RESULT:      -3.5      6.538      7.902
REMARK  Name = 
REMARK  6 active torsions:
REMARK  status: ('A' for Active; 'I' for Inactive)
REMARK    1  A    between atoms: N_1  and  C_2
REMARK    2  A    between atoms: C_2  and  C_3
REMARK    3  A    between atoms: C_2  and  C_8
REMARK    4  A    between atoms: C_3  and  C_4
REMARK    5  A    between atoms: C_4  and  C_5
REMARK    6  A    between atoms: C_5  and  O_6
REMARK                            x       y       z     vdW  Elec       q    Type
REMARK                         _______ _______ _______ _____ _____    ______ ____
ROOT
ATOM      1  C   UNL     1       6.504  -5.263  27.124  0.00  0.00    +0.074 C 
ENDROOT
BRANCH   1   2
ATOM      2  N   UNL     1       7.487  -6.079  27.829  0.00  0.00    -0.324 NA
ATOM      3  H   UNL     1       8.156  -5.476  28.307  0.00  0.00    +0.119 HD
ATOM      4  H   UNL     1       7.023  -6.608  28.566  0.00  0.00    +0.119 HD
ENDBRANCH   1   2
BRANCH   1   5
ATOM      5  C   UNL     1       5.641  -6.177  26.301  0.00  0.00    -0.016 C 
ATOM      6  C   UNL     1       4.349  -6.431  26.554  0.00  0.00    +0.005 C 
ENDBRANCH   1   5
BRANCH   1   7
ATOM      7  C   UNL     1       7.211  -4.201  26.266  0.00  0.00    +0.034 C 
BRANCH   7   8
ATOM      8  C   UNL     1       7.757  -4.772  24.954  0.00  0.00    +0.122 C 
BRANCH   8   9
ATOM      9  C   UNL     1       9.263  -4.874  24.972  0.00  0.00    +0.305 C 
ATOM     10  O   UNL     1      10.032  -4.071  24.471  0.00  0.00    -0.251 OA
BRANCH   9  11
ATOM     11  O   UNL     1       9.693  -5.984  25.618  0.00  0.00    -0.481 OA
ATOM     12  H   UNL     1      10.528  -5.856  26.106  0.00  0.00    +0.295 HD
ENDBRANCH   9  11
ENDBRANCH   8   9
ENDBRANCH   7   8
ENDBRANCH   1   7
TORSDOF 6
ENDMDL
MODEL 8
REMARK VINA RESULT:      -3.5      3.398      5.404
REMARK  Name = 
REMARK  6 active torsions:
REMARK  status: ('A' for Active; 'I' for Inactive)
REMARK    1  A    between atoms: N_1  and  C_2
REMARK    2  A    between atoms: C_2  and  C_3
REMARK    3  A    between atoms: C_2  and  C_8
REMARK    4  A    between atoms: C_3  and  C_4
REMARK    5  A    between atoms: C_4  and  C_5
REMARK    6  A    between atoms: C_5  and  O_6
REMARK                            x       y       z     vdW  Elec       q    Type
REMARK                         _______ _______ _______ _____ _____    ______ ____
ROOT
ATOM      1  C   UNL     1       8.209  -3.492  23.817  0.00  0.00    +0.074 C 
ENDROOT
BRANCH   1   2
ATOM      2  N   UNL     1       9.630  -3.488  24.152  0.00  0.00    -0.324 NA
ATOM      3  H   UNL     1      10.162  -3.920  23.399  0.00  0.00    +0.119 HD
ATOM      4  H   UNL     1       9.963  -2.527  24.203  0.00  0.00    +0.119 HD
ENDBRANCH   1   2
BRANCH   1   5
ATOM      5  C   UNL     1       7.744  -4.920  23.769  0.00  0.00    -0.016 C 
ATOM      6  C   UNL     1       7.490  -5.597  22.640  0.00  0.00    +0.005 C 
ENDBRANCH   1   5
BRANCH   1   7
ATOM      7  C   UNL     1       7.975  -2.758  22.487  0.00  0.00    +0.034 C 
BRANCH   7   8
ATOM      8  C   UNL     1       8.172  -1.243  22.609  0.00  0.00    +0.122 C 
BRANCH   8   9
ATOM      9  C   UNL     1       9.286  -0.751  21.717  0.00  0.00    +0.305 C 
ATOM     10  O   UNL     1       9.293   0.310  21.115  0.00  0.00    -0.251 OA
BRANCH   9  11
ATOM     11  O   UNL     1      10.311  -1.632  21.645  0.00  0.00    -0.481 OA
ATOM     12  H   UNL     1      10.584  -1.845  20.733  0.00  0.00    +0.295 HD
ENDBRANCH   9  11
ENDBRANCH   8   9
ENDBRANCH   7   8
ENDBRANCH   1   7
TORSDOF 6
ENDMDL
MODEL 9
REMARK VINA RESULT:      -3.5      2.555      2.964
REMARK  Name = 
REMARK  6 active torsions:
REMARK  status: ('A' for Active; 'I' for Inactive)
REMARK    1  A    between atoms: N_1  and  C_2
REMARK    2  A    between atoms: C_2  and  C_3
REMARK    3  A    between atoms: C_2  and  C_8
REMARK    4  A    between atoms: C_3  and  C_4
REMARK    5  A    between atoms: C_4  and  C_5
REMARK    6  A    between atoms: C_5  and  O_6
REMARK                            x       y       z     vdW  Elec       q    Type
REMARK                         _______ _______ _______ _____ _____    ______ ____
ROOT
ATOM      1  C   UNL     1       9.204  -1.106  21.738  0.00  0.00    +0.074 C 
ENDROOT
BRANCH   1   2
ATOM      2  N   UNL     1      10.605  -1.516  21.773  0.00  0.00    -0.324 NA
ATOM      3  H   UNL     1      10.675  -2.518  21.602  0.00  0.00    +0.119 HD
ATOM      4  H   UNL     1      11.106  -1.073  21.004  0.00  0.00    +0.119 HD
ENDBRANCH   1   2
BRANCH   1   5
ATOM      5  C   UNL     1       9.156   0.379  21.522  0.00  0.00    -0.016 C 
ATOM      6  C   UNL     1      10.031   1.250  22.044  0.00  0.00    +0.005 C 
ENDBRANCH   1   5
BRANCH   1   7
ATOM      7  C   UNL     1       8.494  -1.531  23.034  0.00  0.00    +0.034 C 
BRANCH   7   8
ATOM      8  C   UNL     1       9.458  -2.123  24.066  0.00  0.00    +0.122 C 
BRANCH   8   9
ATOM      9  C   UNL     1       9.199  -3.593  24.294  0.00  0.00    +0.305 C 
ATOM     10  O   UNL     1      10.009  -4.395  24.729  0.00  0.00    -0.251 OA
BRANCH   9  11
ATOM     11  O   UNL     1       7.937  -3.949  23.954  0.00  0.00    -0.481 OA
ATOM     12  H   UNL     1       7.667  -4.820  24.299  0.00  0.00    +0.295 HD
ENDBRANCH   9  11
ENDBRANCH   8   9
ENDBRANCH   7   8
ENDBRANCH   1   7
TORSDOF 6
ENDMDL
