MODEL 1
REMARK VINA RESULT:      -7.5      0.000      0.000
REMARK  Name = 
REMARK  3 active torsions:
REMARK  status: ('A' for Active; 'I' for Inactive)
REMARK    1  A    between atoms: C_5  and  N_6
REMARK    2  A    between atoms: C_10  and  C_11
REMARK    3  A    between atoms: C_11  and  C_12
REMARK                            x       y       z     vdW  Elec       q    Type
REMARK                         _______ _______ _______ _____ _____    ______ ____
ROOT
ATOM      1  N   UNL     1       9.133  -2.284  23.040  0.00  0.00    -0.298 N 
ATOM      2  H   UNL     1       8.957  -2.475  22.060  0.00  0.00    +0.154 HD
ATOM      3  C   UNL     1       8.034  -2.759  23.818  0.00  0.00    +0.153 A 
ATOM      4  C   UNL     1       7.286  -3.898  23.428  0.00  0.00    +0.026 A 
ATOM      5  C   UNL     1       6.189  -4.289  24.241  0.00  0.00    +0.009 A 
ATOM      6  C   UNL     1       5.403  -5.395  23.843  0.00  0.00    +0.010 A 
ATOM      7  C   UNL     1       5.669  -6.105  22.672  0.00  0.00    +0.001 A 
ATOM      8  C   UNL     1       6.741  -5.736  21.876  0.00  0.00    +0.001 A 
ATOM      9  C   UNL     1       5.928  -3.535  25.401  0.00  0.00    +0.076 A 
ATOM     10  N   UNL     1       6.710  -2.496  25.760  0.00  0.00    -0.152 NA
ATOM     11  C   UNL     1       7.542  -4.656  22.251  0.00  0.00    +0.012 A 
ATOM     12  N   UNL     1       7.760  -2.127  24.982  0.00  0.00    -0.133 NA
ENDROOT
BRANCH   1  17
ATOM     13 CL   UNL     1      10.953   3.375  23.344  0.00  0.00    -0.084 Cl
ATOM     14  C   UNL     1      10.443   1.734  23.263  0.00  0.00    +0.041 A 
ATOM     15  C   UNL     1      10.625   0.900  24.358  0.00  0.00    +0.022 A 
ATOM     16  C   UNL     1      10.212  -0.434  24.287  0.00  0.00    +0.025 A 
ATOM     17  C   UNL     1       9.641  -0.956  23.115  0.00  0.00    +0.033 A 
ATOM     18  C   UNL     1       9.424  -0.086  22.039  0.00  0.00    +0.025 A 
ATOM     19  C   UNL     1       9.838   1.250  22.104  0.00  0.00    +0.022 A 
ENDBRANCH   1  17
BRANCH   9  20
ATOM     20  C   UNL     1       4.748  -3.765  26.319  0.00  0.00    +0.093 C 
BRANCH  20  21
ATOM     21  C   UNL     1       4.901  -4.879  27.329  0.00  0.00    -0.039 A 
ATOM     22  C   UNL     1       6.153  -5.181  27.874  0.00  0.00    +0.023 A 
ATOM     23  C   UNL     1       6.266  -6.271  28.726  0.00  0.00    +0.111 A 
ATOM     24  N   UNL     1       5.234  -7.069  29.068  0.00  0.00    -0.263 NA
ATOM     25  C   UNL     1       4.033  -6.765  28.531  0.00  0.00    +0.111 A 
ATOM     26  C   UNL     1       3.819  -5.699  27.669  0.00  0.00    +0.023 A 
ENDBRANCH  20  21
ENDBRANCH   9  20
TORSDOF 3
ENDMDL
MODEL 2
REMARK VINA RESULT:      -7.0      1.647      2.423
REMARK  Name = 
REMARK  3 active torsions:
REMARK  status: ('A' for Active; 'I' for Inactive)
REMARK    1  A    between atoms: C_5  and  N_6
REMARK    2  A    between atoms: C_10  and  C_11
REMARK    3  A    between atoms: C_11  and  C_12
REMARK                            x       y       z     vdW  Elec       q    Type
REMARK                         _______ _______ _______ _____ _____    ______ ____
ROOT
ATOM      1  N   UNL     1       9.124  -2.267  22.670  0.00  0.00    -0.298 N 
ATOM      2  H   UNL     1       8.772  -2.329  21.721  0.00  0.00    +0.154 HD
ATOM      3  C   UNL     1       8.189  -2.877  23.561  0.00  0.00    +0.153 A 
ATOM      4  C   UNL     1       7.390  -3.977  23.158  0.00  0.00    +0.026 A 
ATOM      5  C   UNL     1       6.463  -4.509  24.094  0.00  0.00    +0.009 A 
ATOM      6  C   UNL     1       5.625  -5.575  23.695  0.00  0.00    +0.010 A 
ATOM      7  C   UNL     1       5.675  -6.112  22.408  0.00  0.00    +0.001 A 
ATOM      8  C   UNL     1       6.580  -5.604  21.490  0.00  0.00    +0.001 A 
ATOM      9  C   UNL     1       6.414  -3.927  25.375  0.00  0.00    +0.076 A 
ATOM     10  N   UNL     1       7.242  -2.922  25.728  0.00  0.00    -0.152 NA
ATOM     11  C   UNL     1       7.430  -4.559  21.861  0.00  0.00    +0.012 A 
ATOM     12  N   UNL     1       8.130  -2.418  24.831  0.00  0.00    -0.133 NA
ENDROOT
BRANCH   1  17
ATOM     13 CL   UNL     1      10.928   3.363  23.360  0.00  0.00    -0.084 Cl
ATOM     14  C   UNL     1      10.422   1.730  23.167  0.00  0.00    +0.041 A 
ATOM     15  C   UNL     1      10.609   0.823  24.201  0.00  0.00    +0.022 A 
ATOM     16  C   UNL     1      10.199  -0.504  24.039  0.00  0.00    +0.025 A 
ATOM     17  C   UNL     1       9.628  -0.946  22.835  0.00  0.00    +0.033 A 
ATOM     18  C   UNL     1       9.406  -0.004  21.822  0.00  0.00    +0.025 A 
ATOM     19  C   UNL     1       9.816   1.325  21.978  0.00  0.00    +0.022 A 
ENDBRANCH   1  17
BRANCH   9  20
ATOM     20  C   UNL     1       5.425  -4.316  26.451  0.00  0.00    +0.093 C 
BRANCH  20  21
ATOM     21  C   UNL     1       4.129  -3.539  26.472  0.00  0.00    -0.039 A 
ATOM     22  C   UNL     1       3.043  -3.940  25.686  0.00  0.00    +0.023 A 
ATOM     23  C   UNL     1       1.904  -3.148  25.663  0.00  0.00    +0.111 A 
ATOM     24  N   UNL     1       1.773  -1.999  26.359  0.00  0.00    -0.263 NA
ATOM     25  C   UNL     1       2.830  -1.626  27.110  0.00  0.00    +0.111 A 
ATOM     26  C   UNL     1       4.011  -2.348  27.197  0.00  0.00    +0.023 A 
ENDBRANCH  20  21
ENDBRANCH   9  20
TORSDOF 3
ENDMDL
MODEL 3
REMARK VINA RESULT:      -6.9      4.900      9.474
REMARK  Name = 
REMARK  3 active torsions:
REMARK  status: ('A' for Active; 'I' for Inactive)
REMARK    1  A    between atoms: C_5  and  N_6
REMARK    2  A    between atoms: C_10  and  C_11
REMARK    3  A    between atoms: C_11  and  C_12
REMARK                            x       y       z     vdW  Elec       q    Type
REMARK                         _______ _______ _______ _____ _____    ______ ____
ROOT
ATOM      1  N   UNL     1      10.266   1.097  22.783  0.00  0.00    -0.298 N 
ATOM      2  H   UNL     1      11.232   1.117  23.089  0.00  0.00    +0.154 HD
ATOM      3  C   UNL     1       9.587   2.247  23.288  0.00  0.00    +0.153 A 
ATOM      4  C   UNL     1      10.258   3.481  23.477  0.00  0.00    +0.026 A 
ATOM      5  C   UNL     1       9.519   4.571  24.011  0.00  0.00    +0.009 A 
ATOM      6  C   UNL     1      10.183   5.796  24.249  0.00  0.00    +0.010 A 
ATOM      7  C   UNL     1      11.542   5.962  23.985  0.00  0.00    +0.001 A 
ATOM      8  C   UNL     1      12.271   4.908  23.458  0.00  0.00    +0.001 A 
ATOM      9  C   UNL     1       8.155   4.364  24.295  0.00  0.00    +0.076 A 
ATOM     10  N   UNL     1       7.549   3.187  24.037  0.00  0.00    -0.152 NA
ATOM     11  C   UNL     1      11.638   3.689  23.200  0.00  0.00    +0.012 A 
ATOM     12  N   UNL     1       8.259   2.148  23.523  0.00  0.00    -0.133 NA
ENDROOT
BRANCH   1  17
ATOM     13 CL   UNL     1       8.112  -4.369  23.742  0.00  0.00    -0.084 Cl
ATOM     14  C   UNL     1       8.743  -2.795  23.450  0.00  0.00    +0.041 A 
ATOM     15  C   UNL     1       8.628  -2.229  22.187  0.00  0.00    +0.022 A 
ATOM     16  C   UNL     1       9.145  -0.951  21.953  0.00  0.00    +0.025 A 
ATOM     17  C   UNL     1       9.805  -0.238  22.966  0.00  0.00    +0.033 A 
ATOM     18  C   UNL     1       9.869  -0.808  24.244  0.00  0.00    +0.025 A 
ATOM     19  C   UNL     1       9.355  -2.088  24.483  0.00  0.00    +0.022 A 
ENDBRANCH   1  17
BRANCH   9  20
ATOM     20  C   UNL     1       7.256   5.389  24.948  0.00  0.00    +0.093 C 
BRANCH  20  21
ATOM     21  C   UNL     1       6.214   6.022  24.055  0.00  0.00    -0.039 A 
ATOM     22  C   UNL     1       4.854   5.937  24.372  0.00  0.00    +0.023 A 
ATOM     23  C   UNL     1       3.924   6.449  23.479  0.00  0.00    +0.111 A 
ATOM     24  N   UNL     1       4.250   7.034  22.307  0.00  0.00    -0.263 NA
ATOM     25  C   UNL     1       5.566   7.107  22.015  0.00  0.00    +0.111 A 
ATOM     26  C   UNL     1       6.569   6.622  22.841  0.00  0.00    +0.023 A 
ENDBRANCH  20  21
ENDBRANCH   9  20
TORSDOF 3
ENDMDL
MODEL 4
REMARK VINA RESULT:      -6.9      1.726      2.334
REMARK  Name = 
REMARK  3 active torsions:
REMARK  status: ('A' for Active; 'I' for Inactive)
REMARK    1  A    between atoms: C_5  and  N_6
REMARK    2  A    between atoms: C_10  and  C_11
REMARK    3  A    between atoms: C_11  and  C_12
REMARK                            x       y       z     vdW  Elec       q    Type
REMARK                         _______ _______ _______ _____ _____    ______ ____
ROOT
ATOM      1  N   UNL     1       7.279  -3.140  22.705  0.00  0.00    -0.298 N 
ATOM      2  H   UNL     1       6.376  -3.015  22.260  0.00  0.00    +0.154 HD
ATOM      3  C   UNL     1       7.111  -3.876  23.916  0.00  0.00    +0.153 A 
ATOM      4  C   UNL     1       6.097  -4.859  24.052  0.00  0.00    +0.026 A 
ATOM      5  C   UNL     1       5.977  -5.527  25.300  0.00  0.00    +0.009 A 
ATOM      6  C   UNL     1       4.943  -6.477  25.470  0.00  0.00    +0.010 A 
ATOM      7  C   UNL     1       4.034  -6.768  24.452  0.00  0.00    +0.001 A 
ATOM      8  C   UNL     1       4.148  -6.126  23.229  0.00  0.00    +0.001 A 
ATOM      9  C   UNL     1       6.890  -5.191  26.318  0.00  0.00    +0.076 A 
ATOM     10  N   UNL     1       7.876  -4.293  26.115  0.00  0.00    -0.152 NA
ATOM     11  C   UNL     1       5.168  -5.193  23.029  0.00  0.00    +0.012 A 
ATOM     12  N   UNL     1       7.991  -3.658  24.920  0.00  0.00    -0.133 NA
ENDROOT
BRANCH   1  17
ATOM     13 CL   UNL     1      10.068   2.079  22.060  0.00  0.00    -0.084 Cl
ATOM     14  C   UNL     1       9.258   0.575  22.263  0.00  0.00    +0.041 A 
ATOM     15  C   UNL     1       7.986   0.547  22.819  0.00  0.00    +0.022 A 
ATOM     16  C   UNL     1       7.332  -0.679  22.985  0.00  0.00    +0.025 A 
ATOM     17  C   UNL     1       7.951  -1.887  22.627  0.00  0.00    +0.033 A 
ATOM     18  C   UNL     1       9.215  -1.831  22.026  0.00  0.00    +0.025 A 
ATOM     19  C   UNL     1       9.875  -0.608  21.859  0.00  0.00    +0.022 A 
ENDBRANCH   1  17
BRANCH   9  20
ATOM     20  C   UNL     1       6.839  -5.743  27.725  0.00  0.00    +0.093 C 
BRANCH  20  21
ATOM     21  C   UNL     1       5.629  -5.358  28.545  0.00  0.00    -0.039 A 
ATOM     22  C   UNL     1       4.980  -6.304  29.347  0.00  0.00    +0.023 A 
ATOM     23  C   UNL     1       3.819  -5.934  30.010  0.00  0.00    +0.111 A 
ATOM     24  N   UNL     1       3.266  -4.706  29.933  0.00  0.00    -0.263 NA
ATOM     25  C   UNL     1       3.904  -3.807  29.153  0.00  0.00    +0.111 A 
ATOM     26  C   UNL     1       5.067  -4.080  28.450  0.00  0.00    +0.023 A 
ENDBRANCH  20  21
ENDBRANCH   9  20
TORSDOF 3
ENDMDL
MODEL 5
REMARK VINA RESULT:      -6.8      4.154      9.071
REMARK  Name = 
REMARK  3 active torsions:
REMARK  status: ('A' for Active; 'I' for Inactive)
REMARK    1  A    between atoms: C_5  and  N_6
REMARK    2  A    between atoms: C_10  and  C_11
REMARK    3  A    between atoms: C_11  and  C_12
REMARK                            x       y       z     vdW  Elec       q    Type
REMARK                         _______ _______ _______ _____ _____    ______ ____
ROOT
ATOM      1  N   UNL     1       7.620  -1.156  25.485  0.00  0.00    -0.298 N 
ATOM      2  H   UNL     1       6.788  -1.148  26.065  0.00  0.00    +0.154 HD
ATOM      3  C   UNL     1       7.920   0.176  25.069  0.00  0.00    +0.153 A 
ATOM      4  C   UNL     1       7.624   1.293  25.890  0.00  0.00    +0.026 A 
ATOM      5  C   UNL     1       7.927   2.589  25.391  0.00  0.00    +0.009 A 
ATOM      6  C   UNL     1       7.597   3.718  26.175  0.00  0.00    +0.010 A 
ATOM      7  C   UNL     1       6.975   3.596  27.418  0.00  0.00    +0.001 A 
ATOM      8  C   UNL     1       6.682   2.337  27.917  0.00  0.00    +0.001 A 
ATOM      9  C   UNL     1       8.527   2.681  24.120  0.00  0.00    +0.076 A 
ATOM     10  N   UNL     1       8.845   1.582  23.406  0.00  0.00    -0.152 NA
ATOM     11  C   UNL     1       7.009   1.203  27.169  0.00  0.00    +0.012 A 
ATOM     12  N   UNL     1       8.557   0.345  23.888  0.00  0.00    -0.133 NA
ENDROOT
BRANCH   1  17
ATOM     13 CL   UNL     1       6.992  -5.933  21.989  0.00  0.00    -0.084 Cl
ATOM     14  C   UNL     1       7.171  -4.542  22.986  0.00  0.00    +0.041 A 
ATOM     15  C   UNL     1       6.223  -3.529  22.931  0.00  0.00    +0.022 A 
ATOM     16  C   UNL     1       6.373  -2.398  23.741  0.00  0.00    +0.025 A 
ATOM     17  C   UNL     1       7.483  -2.254  24.588  0.00  0.00    +0.033 A 
ATOM     18  C   UNL     1       8.402  -3.308  24.661  0.00  0.00    +0.025 A 
ATOM     19  C   UNL     1       8.258  -4.441  23.852  0.00  0.00    +0.022 A 
ENDBRANCH   1  17
BRANCH   9  20
ATOM     20  C   UNL     1       8.827   3.983  23.412  0.00  0.00    +0.093 C 
BRANCH  20  21
ATOM     21  C   UNL     1      10.173   4.604  23.708  0.00  0.00    -0.039 A 
ATOM     22  C   UNL     1      10.262   5.824  24.387  0.00  0.00    +0.023 A 
ATOM     23  C   UNL     1      11.511   6.406  24.556  0.00  0.00    +0.111 A 
ATOM     24  N   UNL     1      12.661   5.864  24.104  0.00  0.00    -0.263 NA
ATOM     25  C   UNL     1      12.556   4.688  23.450  0.00  0.00    +0.111 A 
ATOM     26  C   UNL     1      11.355   4.030  23.229  0.00  0.00    +0.023 A 
ENDBRANCH  20  21
ENDBRANCH   9  20
TORSDOF 3
ENDMDL
MODEL 6
REMARK VINA RESULT:      -6.7      3.862      5.898
REMARK  Name = 
REMARK  3 active torsions:
REMARK  status: ('A' for Active; 'I' for Inactive)
REMARK    1  A    between atoms: C_5  and  N_6
REMARK    2  A    between atoms: C_10  and  C_11
REMARK    3  A    between atoms: C_11  and  C_12
REMARK                            x       y       z     vdW  Elec       q    Type
REMARK                         _______ _______ _______ _____ _____    ______ ____
ROOT
ATOM      1  N   UNL     1       8.033   0.886  26.698  0.00  0.00    -0.298 N 
ATOM      2  H   UNL     1       8.024   1.567  25.946  0.00  0.00    +0.154 HD
ATOM      3  C   UNL     1       8.213  -0.420  26.150  0.00  0.00    +0.153 A 
ATOM      4  C   UNL     1       8.977  -0.633  24.975  0.00  0.00    +0.026 A 
ATOM      5  C   UNL     1       9.084  -1.959  24.477  0.00  0.00    +0.009 A 
ATOM      6  C   UNL     1       9.803  -2.185  23.281  0.00  0.00    +0.010 A 
ATOM      7  C   UNL     1      10.400  -1.142  22.572  0.00  0.00    +0.001 A 
ATOM      8  C   UNL     1      10.308   0.154  23.053  0.00  0.00    +0.001 A 
ATOM      9  C   UNL     1       8.444  -2.986  25.198  0.00  0.00    +0.076 A 
ATOM     10  N   UNL     1       7.782  -2.738  26.347  0.00  0.00    -0.152 NA
ATOM     11  C   UNL     1       9.615   0.404  24.240  0.00  0.00    +0.012 A 
ATOM     12  N   UNL     1       7.685  -1.469  26.822  0.00  0.00    -0.133 NA
ENDROOT
BRANCH   1  17
ATOM     13 CL   UNL     1       3.454   2.068  30.313  0.00  0.00    -0.084 Cl
ATOM     14  C   UNL     1       4.788   1.738  29.277  0.00  0.00    +0.041 A 
ATOM     15  C   UNL     1       6.044   1.508  29.821  0.00  0.00    +0.022 A 
ATOM     16  C   UNL     1       7.126   1.244  28.976  0.00  0.00    +0.025 A 
ATOM     17  C   UNL     1       6.972   1.236  27.580  0.00  0.00    +0.033 A 
ATOM     18  C   UNL     1       5.687   1.425  27.054  0.00  0.00    +0.025 A 
ATOM     19  C   UNL     1       4.601   1.692  27.896  0.00  0.00    +0.022 A 
ENDBRANCH   1  17
BRANCH   9  20
ATOM     20  C   UNL     1       8.387  -4.431  24.755  0.00  0.00    +0.093 C 
BRANCH  20  21
ATOM     21  C   UNL     1       7.344  -4.763  23.712  0.00  0.00    -0.039 A 
ATOM     22  C   UNL     1       7.611  -5.702  22.710  0.00  0.00    +0.023 A 
ATOM     23  C   UNL     1       6.662  -5.911  21.719  0.00  0.00    +0.111 A 
ATOM     24  N   UNL     1       5.484  -5.257  21.656  0.00  0.00    -0.263 NA
ATOM     25  C   UNL     1       5.243  -4.353  22.629  0.00  0.00    +0.111 A 
ATOM     26  C   UNL     1       6.128  -4.073  23.661  0.00  0.00    +0.023 A 
ENDBRANCH  20  21
ENDBRANCH   9  20
TORSDOF 3
ENDMDL
MODEL 7
REMARK VINA RESULT:      -6.6      2.597      3.379
REMARK  Name = 
REMARK  3 active torsions:
REMARK  status: ('A' for Active; 'I' for Inactive)
REMARK    1  A    between atoms: C_5  and  N_6
REMARK    2  A    between atoms: C_10  and  C_11
REMARK    3  A    between atoms: C_11  and  C_12
REMARK                            x       y       z     vdW  Elec       q    Type
REMARK                         _______ _______ _______ _____ _____    ______ ____
ROOT
ATOM      1  N   UNL     1       9.112  -0.389  25.251  0.00  0.00    -0.298 N 
ATOM      2  H   UNL     1      10.044  -0.785  25.199  0.00  0.00    +0.154 HD
ATOM      3  C   UNL     1       8.185  -1.280  24.631  0.00  0.00    +0.153 A 
ATOM      4  C   UNL     1       8.374  -2.685  24.659  0.00  0.00    +0.026 A 
ATOM      5  C   UNL     1       7.421  -3.502  23.993  0.00  0.00    +0.009 A 
ATOM      6  C   UNL     1       7.618  -4.902  23.972  0.00  0.00    +0.010 A 
ATOM      7  C   UNL     1       8.724  -5.501  24.575  0.00  0.00    +0.001 A 
ATOM      8  C   UNL     1       9.655  -4.713  25.233  0.00  0.00    +0.001 A 
ATOM      9  C   UNL     1       6.332  -2.866  23.368  0.00  0.00    +0.076 A 
ATOM     10  N   UNL     1       6.165  -1.529  23.424  0.00  0.00    -0.152 NA
ATOM     11  C   UNL     1       9.479  -3.328  25.282  0.00  0.00    +0.012 A 
ATOM     12  N   UNL     1       7.076  -0.751  24.064  0.00  0.00    -0.133 NA
ENDROOT
BRANCH   1  17
ATOM     13 CL   UNL     1       9.540   5.294  23.534  0.00  0.00    -0.084 Cl
ATOM     14  C   UNL     1       9.415   3.657  24.047  0.00  0.00    +0.041 A 
ATOM     15  C   UNL     1       8.395   3.282  24.911  0.00  0.00    +0.022 A 
ATOM     16  C   UNL     1       8.298   1.950  25.328  0.00  0.00    +0.025 A 
ATOM     17  C   UNL     1       9.233   0.989  24.912  0.00  0.00    +0.033 A 
ATOM     18  C   UNL     1      10.226   1.379  24.004  0.00  0.00    +0.025 A 
ATOM     19  C   UNL     1      10.328   2.711  23.585  0.00  0.00    +0.022 A 
ENDBRANCH   1  17
BRANCH   9  20
ATOM     20  C   UNL     1       5.285  -3.583  22.544  0.00  0.00    +0.093 C 
BRANCH  20  21
ATOM     21  C   UNL     1       4.295  -4.424  23.317  0.00  0.00    -0.039 A 
ATOM     22  C   UNL     1       3.690  -3.930  24.477  0.00  0.00    +0.023 A 
ATOM     23  C   UNL     1       2.859  -4.767  25.208  0.00  0.00    +0.111 A 
ATOM     24  N   UNL     1       2.593  -6.045  24.869  0.00  0.00    -0.263 NA
ATOM     25  C   UNL     1       3.186  -6.508  23.748  0.00  0.00    +0.111 A 
ATOM     26  C   UNL     1       4.033  -5.749  22.952  0.00  0.00    +0.023 A 
ENDBRANCH  20  21
ENDBRANCH   9  20
TORSDOF 3
ENDMDL
MODEL 8
REMARK VINA RESULT:      -6.5      3.365      5.366
REMARK  Name = 
REMARK  3 active torsions:
REMARK  status: ('A' for Active; 'I' for Inactive)
REMARK    1  A    between atoms: C_5  and  N_6
REMARK    2  A    between atoms: C_10  and  C_11
REMARK    3  A    between atoms: C_11  and  C_12
REMARK                            x       y       z     vdW  Elec       q    Type
REMARK                         _______ _______ _______ _____ _____    ______ ____
ROOT
ATOM      1  N   UNL     1       8.151   3.261  24.564  0.00  0.00    -0.298 N 
ATOM      2  H   UNL     1       8.216   3.312  25.575  0.00  0.00    +0.154 HD
ATOM      3  C   UNL     1       7.678   1.968  24.187  0.00  0.00    +0.153 A 
ATOM      4  C   UNL     1       6.779   1.239  25.006  0.00  0.00    +0.026 A 
ATOM      5  C   UNL     1       6.378  -0.054  24.574  0.00  0.00    +0.009 A 
ATOM      6  C   UNL     1       5.518  -0.814  25.400  0.00  0.00    +0.010 A 
ATOM      7  C   UNL     1       5.062  -0.336  26.628  0.00  0.00    +0.001 A 
ATOM      8  C   UNL     1       5.442   0.926  27.055  0.00  0.00    +0.001 A 
ATOM      9  C   UNL     1       6.878  -0.521  23.344  0.00  0.00    +0.076 A 
ATOM     10  N   UNL     1       7.682   0.239  22.572  0.00  0.00    -0.152 NA
ATOM     11  C   UNL     1       6.280   1.705  26.254  0.00  0.00    +0.012 A 
ATOM     12  N   UNL     1       8.061   1.476  22.987  0.00  0.00    -0.133 NA
ENDROOT
BRANCH   1  17
ATOM     13 CL   UNL     1      13.178   5.842  22.693  0.00  0.00    -0.084 Cl
ATOM     14  C   UNL     1      11.725   5.085  23.220  0.00  0.00    +0.041 A 
ATOM     15  C   UNL     1      11.640   3.700  23.247  0.00  0.00    +0.022 A 
ATOM     16  C   UNL     1      10.456   3.088  23.673  0.00  0.00    +0.025 A 
ATOM     17  C   UNL     1       9.339   3.851  24.046  0.00  0.00    +0.033 A 
ATOM     18  C   UNL     1       9.462   5.247  24.055  0.00  0.00    +0.025 A 
ATOM     19  C   UNL     1      10.643   5.864  23.628  0.00  0.00    +0.022 A 
ENDBRANCH   1  17
BRANCH   9  20
ATOM     20  C   UNL     1       6.621  -1.904  22.789  0.00  0.00    +0.093 C 
BRANCH  20  21
ATOM     21  C   UNL     1       7.493  -3.011  23.336  0.00  0.00    -0.039 A 
ATOM     22  C   UNL     1       7.038  -4.334  23.357  0.00  0.00    +0.023 A 
ATOM     23  C   UNL     1       7.830  -5.305  23.952  0.00  0.00    +0.111 A 
ATOM     24  N   UNL     1       9.028  -5.054  24.520  0.00  0.00    -0.263 NA
ATOM     25  C   UNL     1       9.452  -3.772  24.492  0.00  0.00    +0.111 A 
ATOM     26  C   UNL     1       8.731  -2.732  23.923  0.00  0.00    +0.023 A 
ENDBRANCH  20  21
ENDBRANCH   9  20
TORSDOF 3
ENDMDL
MODEL 9
REMARK VINA RESULT:      -6.4      3.181      5.196
REMARK  Name = 
REMARK  3 active torsions:
REMARK  status: ('A' for Active; 'I' for Inactive)
REMARK    1  A    between atoms: C_5  and  N_6
REMARK    2  A    between atoms: C_10  and  C_11
REMARK    3  A    between atoms: C_11  and  C_12
REMARK                            x       y       z     vdW  Elec       q    Type
REMARK                         _______ _______ _______ _____ _____    ______ ____
ROOT
ATOM      1  N   UNL     1       8.290   2.456  24.609  0.00  0.00    -0.298 N 
ATOM      2  H   UNL     1       8.121   2.723  25.573  0.00  0.00    +0.154 HD
ATOM      3  C   UNL     1       8.275   1.033  24.504  0.00  0.00    +0.153 A 
ATOM      4  C   UNL     1       7.452   0.236  25.339  0.00  0.00    +0.026 A 
ATOM      5  C   UNL     1       7.516  -1.176  25.192  0.00  0.00    +0.009 A 
ATOM      6  C   UNL     1       6.737  -1.988  26.047  0.00  0.00    +0.010 A 
ATOM      7  C   UNL     1       5.916  -1.445  27.036  0.00  0.00    +0.001 A 
ATOM      8  C   UNL     1       5.841  -0.069  27.183  0.00  0.00    +0.001 A 
ATOM      9  C   UNL     1       8.376  -1.696  24.206  0.00  0.00    +0.076 A 
ATOM     10  N   UNL     1       9.092  -0.891  23.394  0.00  0.00    -0.152 NA
ATOM     11  C   UNL     1       6.590   0.759  26.343  0.00  0.00    +0.012 A 
ATOM     12  N   UNL     1       9.025   0.459  23.536  0.00  0.00    -0.133 NA
ENDROOT
BRANCH   1  17
ATOM     13 CL   UNL     1      12.805   5.962  22.948  0.00  0.00    -0.084 Cl
ATOM     14  C   UNL     1      11.501   4.940  23.413  0.00  0.00    +0.041 A 
ATOM     15  C   UNL     1      11.630   3.563  23.296  0.00  0.00    +0.022 A 
ATOM     16  C   UNL     1      10.567   2.735  23.672  0.00  0.00    +0.025 A 
ATOM     17  C   UNL     1       9.358   3.273  24.139  0.00  0.00    +0.033 A 
ATOM     18  C   UNL     1       9.266   4.663  24.293  0.00  0.00    +0.025 A 
ATOM     19  C   UNL     1      10.326   5.496  23.916  0.00  0.00    +0.022 A 
ENDBRANCH   1  17
BRANCH   9  20
ATOM     20  C   UNL     1       8.626  -3.171  23.985  0.00  0.00    +0.093 C 
BRANCH  20  21
ATOM     21  C   UNL     1       7.675  -3.871  23.041  0.00  0.00    -0.039 A 
ATOM     22  C   UNL     1       6.802  -3.136  22.232  0.00  0.00    +0.023 A 
ATOM     23  C   UNL     1       5.881  -3.817  21.449  0.00  0.00    +0.111 A 
ATOM     24  N   UNL     1       5.770  -5.161  21.416  0.00  0.00    -0.263 NA
ATOM     25  C   UNL     1       6.618  -5.855  22.205  0.00  0.00    +0.111 A 
ATOM     26  C   UNL     1       7.571  -5.266  23.023  0.00  0.00    +0.023 A 
ENDBRANCH  20  21
ENDBRANCH   9  20
TORSDOF 3
ENDMDL
