MODEL 1
REMARK VINA RESULT:      -3.6      0.000      0.000
REMARK  Name = 
REMARK  6 active torsions:
REMARK  status: ('A' for Active; 'I' for Inactive)
REMARK    1  A    between atoms: C_1  and  C_2
REMARK    2  A    between atoms: C_2  and  N_4
REMARK    3  A    between atoms: C_2  and  C_7
REMARK    4  A    between atoms: N_4  and  C_5
REMARK    5  A    between atoms: N_4  and  C_6
REMARK    6  A    between atoms: C_7  and  O_8
REMARK                            x       y       z     vdW  Elec       q    Type
REMARK                         _______ _______ _______ _____ _____    ______ ____
ROOT
ATOM      1  C   UNL     1      10.607   1.507  24.122  0.00  0.00    +0.036 C 
ATOM      2  C   UNL     1      10.395   0.313  23.177  0.00  0.00    +0.162 C 
ENDROOT
BRANCH   2   3
ATOM      3  N   UNL     1       9.453  -0.708  23.752  0.00  0.00    -0.296 NA
ATOM      4  C   UNL     1       9.342  -0.529  25.213  0.00  0.00    +0.105 C 
ATOM      5  C   UNL     1       9.962  -2.076  23.517  0.00  0.00    +0.105 C 
ENDBRANCH   2   3
BRANCH   2   6
ATOM      6  C   UNL     1       9.824   0.908  21.879  0.00  0.00    +0.322 C 
ATOM      7  O   UNL     1       9.135   0.290  21.082  0.00  0.00    -0.249 OA
BRANCH   6   8
ATOM      8  O   UNL     1      10.225   2.189  21.676  0.00  0.00    -0.480 OA
ATOM      9  H   UNL     1      11.063   2.151  21.159  0.00  0.00    +0.295 HD
ENDBRANCH   6   8
ENDBRANCH   2   6
TORSDOF 3
ENDMDL
MODEL 2
REMARK VINA RESULT:      -3.5      1.133      2.224
REMARK  Name = 
REMARK  6 active torsions:
REMARK  status: ('A' for Active; 'I' for Inactive)
REMARK    1  A    between atoms: C_1  and  C_2
REMARK    2  A    between atoms: C_2  and  N_4
REMARK    3  A    between atoms: C_2  and  C_7
REMARK    4  A    between atoms: N_4  and  C_5
REMARK    5  A    between atoms: N_4  and  C_6
REMARK    6  A    between atoms: C_7  and  O_8
REMARK                            x       y       z     vdW  Elec       q    Type
REMARK                         _______ _______ _______ _____ _____    ______ ____
ROOT
ATOM      1  C   UNL     1       9.382  -0.130  21.437  0.00  0.00    +0.036 C 
ATOM      2  C   UNL     1       9.430   0.401  22.879  0.00  0.00    +0.162 C 
ENDROOT
BRANCH   2   3
ATOM      3  N   UNL     1      10.101  -0.561  23.819  0.00  0.00    -0.296 NA
ATOM      4  C   UNL     1      10.114  -1.916  23.234  0.00  0.00    +0.105 C 
ATOM      5  C   UNL     1       9.359  -0.645  25.096  0.00  0.00    +0.105 C 
ENDBRANCH   2   3
BRANCH   2   6
ATOM      6  C   UNL     1      10.211   1.723  22.808  0.00  0.00    +0.322 C 
ATOM      7  O   UNL     1      10.756   2.255  23.763  0.00  0.00    -0.249 OA
BRANCH   6   8
ATOM      8  O   UNL     1      10.177   2.280  21.570  0.00  0.00    -0.480 OA
ATOM      9  H   UNL     1       9.311   2.741  21.484  0.00  0.00    +0.295 HD
ENDBRANCH   6   8
ENDBRANCH   2   6
TORSDOF 3
ENDMDL
MODEL 3
REMARK VINA RESULT:      -3.4      2.020      3.081
REMARK  Name = 
REMARK  6 active torsions:
REMARK  status: ('A' for Active; 'I' for Inactive)
REMARK    1  A    between atoms: C_1  and  C_2
REMARK    2  A    between atoms: C_2  and  N_4
REMARK    3  A    between atoms: C_2  and  C_7
REMARK    4  A    between atoms: N_4  and  C_5
REMARK    5  A    between atoms: N_4  and  C_6
REMARK    6  A    between atoms: C_7  and  O_8
REMARK                            x       y       z     vdW  Elec       q    Type
REMARK                         _______ _______ _______ _____ _____    ______ ____
ROOT
ATOM      1  C   UNL     1      10.602   0.360  24.267  0.00  0.00    +0.036 C 
ATOM      2  C   UNL     1       9.493  -0.147  23.330  0.00  0.00    +0.162 C 
ENDROOT
BRANCH   2   3
ATOM      3  N   UNL     1       9.249   0.788  22.177  0.00  0.00    -0.296 NA
ATOM      4  C   UNL     1      10.193   1.920  22.235  0.00  0.00    +0.105 C 
ATOM      5  C   UNL     1       7.884   1.353  22.246  0.00  0.00    +0.105 C 
ENDBRANCH   2   3
BRANCH   2   6
ATOM      6  C   UNL     1       9.973  -1.518  22.825  0.00  0.00    +0.322 C 
ATOM      7  O   UNL     1      10.191  -2.480  23.544  0.00  0.00    -0.249 OA
BRANCH   6   8
ATOM      8  O   UNL     1      10.193  -1.528  21.485  0.00  0.00    -0.480 OA
ATOM      9  H   UNL     1      10.544  -2.419  21.257  0.00  0.00    +0.295 HD
ENDBRANCH   6   8
ENDBRANCH   2   6
TORSDOF 3
ENDMDL
MODEL 4
REMARK VINA RESULT:      -3.4      4.705      5.894
REMARK  Name = 
REMARK  6 active torsions:
REMARK  status: ('A' for Active; 'I' for Inactive)
REMARK    1  A    between atoms: C_1  and  C_2
REMARK    2  A    between atoms: C_2  and  N_4
REMARK    3  A    between atoms: C_2  and  C_7
REMARK    4  A    between atoms: N_4  and  C_5
REMARK    5  A    between atoms: N_4  and  C_6
REMARK    6  A    between atoms: C_7  and  O_8
REMARK                            x       y       z     vdW  Elec       q    Type
REMARK                         _______ _______ _______ _____ _____    ______ ____
ROOT
ATOM      1  C   UNL     1       7.100  -5.044  24.609  0.00  0.00    +0.036 C 
ATOM      2  C   UNL     1       8.518  -4.516  24.335  0.00  0.00    +0.162 C 
ENDROOT
BRANCH   2   3
ATOM      3  N   UNL     1       8.527  -3.047  24.014  0.00  0.00    -0.296 NA
ATOM      4  C   UNL     1       7.769  -2.795  22.773  0.00  0.00    +0.105 C 
ATOM      5  C   UNL     1       9.909  -2.573  23.785  0.00  0.00    +0.105 C 
ENDBRANCH   2   3
BRANCH   2   6
ATOM      6  C   UNL     1       9.320  -4.797  25.616  0.00  0.00    +0.322 C 
ATOM      7  O   UNL     1       9.063  -4.318  26.709  0.00  0.00    -0.249 OA
BRANCH   6   8
ATOM      8  O   UNL     1      10.397  -5.591  25.389  0.00  0.00    -0.480 OA
ATOM      9  H   UNL     1      10.958  -5.134  24.722  0.00  0.00    +0.295 HD
ENDBRANCH   6   8
ENDBRANCH   2   6
TORSDOF 3
ENDMDL
MODEL 5
REMARK VINA RESULT:      -3.4      5.095      5.975
REMARK  Name = 
REMARK  6 active torsions:
REMARK  status: ('A' for Active; 'I' for Inactive)
REMARK    1  A    between atoms: C_1  and  C_2
REMARK    2  A    between atoms: C_2  and  N_4
REMARK    3  A    between atoms: C_2  and  C_7
REMARK    4  A    between atoms: N_4  and  C_5
REMARK    5  A    between atoms: N_4  and  C_6
REMARK    6  A    between atoms: C_7  and  O_8
REMARK                            x       y       z     vdW  Elec       q    Type
REMARK                         _______ _______ _______ _____ _____    ______ ____
ROOT
ATOM      1  C   UNL     1       9.729  -3.013  24.144  0.00  0.00    +0.036 C 
ATOM      2  C   UNL     1       8.559  -3.827  24.719  0.00  0.00    +0.162 C 
ENDROOT
BRANCH   2   3
ATOM      3  N   UNL     1       7.853  -4.635  23.664  0.00  0.00    -0.296 NA
ATOM      4  C   UNL     1       7.493  -3.772  22.522  0.00  0.00    +0.105 C 
ATOM      5  C   UNL     1       6.596  -5.201  24.197  0.00  0.00    +0.105 C 
ENDBRANCH   2   3
BRANCH   2   6
ATOM      6  C   UNL     1       9.177  -4.748  25.783  0.00  0.00    +0.322 C 
ATOM      7  O   UNL     1       8.929  -4.686  26.977  0.00  0.00    -0.249 OA
BRANCH   6   8
ATOM      8  O   UNL     1      10.090  -5.605  25.259  0.00  0.00    -0.480 OA
ATOM      9  H   UNL     1      10.182  -6.352  25.894  0.00  0.00    +0.295 HD
ENDBRANCH   6   8
ENDBRANCH   2   6
TORSDOF 3
ENDMDL
MODEL 6
REMARK VINA RESULT:      -3.3      2.021      2.647
REMARK  Name = 
REMARK  6 active torsions:
REMARK  status: ('A' for Active; 'I' for Inactive)
REMARK    1  A    between atoms: C_1  and  C_2
REMARK    2  A    between atoms: C_2  and  N_4
REMARK    3  A    between atoms: C_2  and  C_7
REMARK    4  A    between atoms: N_4  and  C_5
REMARK    5  A    between atoms: N_4  and  C_6
REMARK    6  A    between atoms: C_7  and  O_8
REMARK                            x       y       z     vdW  Elec       q    Type
REMARK                         _______ _______ _______ _____ _____    ______ ____
ROOT
ATOM      1  C   UNL     1       8.739   1.473  21.499  0.00  0.00    +0.036 C 
ATOM      2  C   UNL     1       9.714   0.635  22.342  0.00  0.00    +0.162 C 
ENDROOT
BRANCH   2   3
ATOM      3  N   UNL     1       9.633   0.968  23.806  0.00  0.00    -0.296 NA
ATOM      4  C   UNL     1       9.469   2.423  23.987  0.00  0.00    +0.105 C 
ATOM      5  C   UNL     1      10.881   0.580  24.498  0.00  0.00    +0.105 C 
ENDBRANCH   2   3
BRANCH   2   6
ATOM      6  C   UNL     1       9.320  -0.831  22.096  0.00  0.00    +0.322 C 
ATOM      7  O   UNL     1       8.243  -1.317  22.406  0.00  0.00    -0.249 OA
BRANCH   6   8
ATOM      8  O   UNL     1      10.331  -1.554  21.551  0.00  0.00    -0.480 OA
ATOM      9  H   UNL     1      10.410  -2.383  22.078  0.00  0.00    +0.295 HD
ENDBRANCH   6   8
ENDBRANCH   2   6
TORSDOF 3
ENDMDL
MODEL 7
REMARK VINA RESULT:      -3.3      5.444      6.566
REMARK  Name = 
REMARK  6 active torsions:
REMARK  status: ('A' for Active; 'I' for Inactive)
REMARK    1  A    between atoms: C_1  and  C_2
REMARK    2  A    between atoms: C_2  and  N_4
REMARK    3  A    between atoms: C_2  and  C_7
REMARK    4  A    between atoms: N_4  and  C_5
REMARK    5  A    between atoms: N_4  and  C_6
REMARK    6  A    between atoms: C_7  and  O_8
REMARK                            x       y       z     vdW  Elec       q    Type
REMARK                         _______ _______ _______ _____ _____    ______ ____
ROOT
ATOM      1  C   UNL     1       7.520  -3.330  25.402  0.00  0.00    +0.036 C 
ATOM      2  C   UNL     1       8.242  -4.417  26.215  0.00  0.00    +0.162 C 
ENDROOT
BRANCH   2   3
ATOM      3  N   UNL     1       7.359  -5.602  26.493  0.00  0.00    -0.296 NA
ATOM      4  C   UNL     1       6.201  -5.596  25.579  0.00  0.00    +0.105 C 
ATOM      5  C   UNL     1       6.827  -5.542  27.871  0.00  0.00    +0.105 C 
ENDBRANCH   2   3
BRANCH   2   6
ATOM      6  C   UNL     1       9.455  -4.831  25.366  0.00  0.00    +0.322 C 
ATOM      7  O   UNL     1      10.008  -4.107  24.553  0.00  0.00    -0.249 OA
BRANCH   6   8
ATOM      8  O   UNL     1       9.811  -6.126  25.569  0.00  0.00    -0.480 OA
ATOM      9  H   UNL     1       9.339  -6.432  26.376  0.00  0.00    +0.295 HD
ENDBRANCH   6   8
ENDBRANCH   2   6
TORSDOF 3
ENDMDL
MODEL 8
REMARK VINA RESULT:      -3.2      1.848      2.587
REMARK  Name = 
REMARK  6 active torsions:
REMARK  status: ('A' for Active; 'I' for Inactive)
REMARK    1  A    between atoms: C_1  and  C_2
REMARK    2  A    between atoms: C_2  and  N_4
REMARK    3  A    between atoms: C_2  and  C_7
REMARK    4  A    between atoms: N_4  and  C_5
REMARK    5  A    between atoms: N_4  and  C_6
REMARK    6  A    between atoms: C_7  and  O_8
REMARK                            x       y       z     vdW  Elec       q    Type
REMARK                         _______ _______ _______ _____ _____    ______ ____
ROOT
ATOM      1  C   UNL     1       7.474   0.342  23.025  0.00  0.00    +0.036 C 
ATOM      2  C   UNL     1       8.408   1.560  22.933  0.00  0.00    +0.162 C 
ENDROOT
BRANCH   2   3
ATOM      3  N   UNL     1       9.111   1.839  24.233  0.00  0.00    -0.296 NA
ATOM      4  C   UNL     1       9.540   0.572  24.858  0.00  0.00    +0.105 C 
ATOM      5  C   UNL     1       8.200   2.508  25.185  0.00  0.00    +0.105 C 
ENDBRANCH   2   3
BRANCH   2   6
ATOM      6  C   UNL     1       9.422   1.224  21.829  0.00  0.00    +0.322 C 
ATOM      7  O   UNL     1       9.511   0.135  21.282  0.00  0.00    -0.249 OA
BRANCH   6   8
ATOM      8  O   UNL     1      10.264   2.256  21.566  0.00  0.00    -0.480 OA
ATOM      9  H   UNL     1      10.939   1.924  20.931  0.00  0.00    +0.295 HD
ENDBRANCH   6   8
ENDBRANCH   2   6
TORSDOF 3
ENDMDL
MODEL 9
REMARK VINA RESULT:      -3.2      1.549      2.465
REMARK  Name = 
REMARK  6 active torsions:
REMARK  status: ('A' for Active; 'I' for Inactive)
REMARK    1  A    between atoms: C_1  and  C_2
REMARK    2  A    between atoms: C_2  and  N_4
REMARK    3  A    between atoms: C_2  and  C_7
REMARK    4  A    between atoms: N_4  and  C_5
REMARK    5  A    between atoms: N_4  and  C_6
REMARK    6  A    between atoms: C_7  and  O_8
REMARK                            x       y       z     vdW  Elec       q    Type
REMARK                         _______ _______ _______ _____ _____    ______ ____
ROOT
ATOM      1  C   UNL     1       7.836  -1.797  22.969  0.00  0.00    +0.036 C 
ATOM      2  C   UNL     1       8.791  -0.634  23.282  0.00  0.00    +0.162 C 
ENDROOT
BRANCH   2   3
ATOM      3  N   UNL     1       9.692  -0.934  24.448  0.00  0.00    -0.296 NA
ATOM      4  C   UNL     1       8.887  -1.307  25.627  0.00  0.00    +0.105 C 
ATOM      5  C   UNL     1      10.481   0.261  24.817  0.00  0.00    +0.105 C 
ENDBRANCH   2   3
BRANCH   2   6
ATOM      6  C   UNL     1       9.615  -0.419  22.001  0.00  0.00    +0.322 C 
ATOM      7  O   UNL     1       9.641   0.624  21.365  0.00  0.00    -0.249 OA
BRANCH   6   8
ATOM      8  O   UNL     1      10.268  -1.543  21.610  0.00  0.00    -0.480 OA
ATOM      9  H   UNL     1      10.863  -1.804  22.349  0.00  0.00    +0.295 HD
ENDBRANCH   6   8
ENDBRANCH   2   6
TORSDOF 3
ENDMDL
