MODEL 1
REMARK VINA RESULT:      -7.0      0.000      0.000
REMARK  Name = 
REMARK  7 active torsions:
REMARK  status: ('A' for Active; 'I' for Inactive)
REMARK    1  A    between atoms: C_1  and  C_2
REMARK    2  A    between atoms: C_5  and  C_7
REMARK    3  A    between atoms: C_10  and  C_11
REMARK    4  A    between atoms: C_12  and  C_14
REMARK    5  A    between atoms: C_17  and  C_20
REMARK    6  A    between atoms: N_22  and  C_23
REMARK    7  A    between atoms: C_23  and  C_24
REMARK                            x       y       z     vdW  Elec       q    Type
REMARK                         _______ _______ _______ _____ _____    ______ ____
ROOT
ATOM      1  C   UNL     1       7.446  -3.278  23.875  0.00  0.00    -0.018 A 
ATOM      2  C   UNL     1       6.978  -1.996  23.515  0.00  0.00    +0.009 A 
ATOM      3  C   UNL     1       7.819  -0.874  23.476  0.00  0.00    +0.013 A 
ATOM      4  C   UNL     1       9.160  -0.996  23.837  0.00  0.00    +0.037 A 
ATOM      5  C   UNL     1       9.669  -2.262  24.126  0.00  0.00    +0.013 A 
ATOM      6  C   UNL     1       8.827  -3.385  24.110  0.00  0.00    +0.009 A 
ENDROOT
BRANCH   1   9
ATOM      7  C   UNL     1       5.343  -5.983  25.586  0.00  0.00    +0.039 A 
ATOM      8  C   UNL     1       6.105  -4.828  25.332  0.00  0.00    +0.022 A 
ATOM      9  C   UNL     1       6.493  -4.427  24.026  0.00  0.00    -0.014 A 
ATOM     10  C   UNL     1       6.024  -5.225  22.949  0.00  0.00    -0.043 A 
ATOM     11  C   UNL     1       6.389  -4.997  21.503  0.00  0.00    +0.044 C 
ATOM     12  C   UNL     1       5.183  -6.328  23.203  0.00  0.00    +0.005 A 
ATOM     13  C   UNL     1       4.862  -6.712  24.501  0.00  0.00    +0.013 A 
BRANCH   7  17
ATOM     14  C   UNL     1       2.759  -7.075  29.495  0.00  0.00    +0.111 C 
ATOM     15  C   UNL     1       3.974  -6.929  28.679  0.00  0.00    +0.215 A 
ATOM     16  O   UNL     1       3.809  -6.532  27.380  0.00  0.00    -0.421 OA
ATOM     17  C   UNL     1       5.109  -6.481  26.938  0.00  0.00    +0.248 A 
ATOM     18  N   UNL     1       5.971  -6.820  27.877  0.00  0.00    -0.107 NA
ATOM     19  N   UNL     1       5.234  -7.111  29.006  0.00  0.00    -0.112 NA
ENDBRANCH   7  17
ENDBRANCH   1   9
BRANCH   4  20
ATOM     20  C   UNL     1      10.061   0.180  23.941  0.00  0.00    +0.244 C 
ATOM     21  N   UNL     1       9.809   1.223  23.069  0.00  0.00    -0.311 N 
ATOM     22  H   UNL     1       8.929   1.233  22.572  0.00  0.00    +0.149 HD
ATOM     23  O   UNL     1      10.939   0.221  24.798  0.00  0.00    -0.270 OA
BRANCH  21  24
ATOM     24  C   UNL     1      10.492   2.485  23.225  0.00  0.00    +0.108 C 
BRANCH  24  25
ATOM     25  C   UNL     1       9.671   3.395  24.081  0.00  0.00    +0.006 C 
ATOM     26  C   UNL     1       8.452   4.079  23.516  0.00  0.00    +0.005 C 
ATOM     27  C   UNL     1       9.672   4.887  23.851  0.00  0.00    +0.005 C 
ENDBRANCH  24  25
ENDBRANCH  21  24
ENDBRANCH   4  20
TORSDOF 5
ENDMDL
MODEL 2
REMARK VINA RESULT:      -7.0      3.803      9.997
REMARK  Name = 
REMARK  7 active torsions:
REMARK  status: ('A' for Active; 'I' for Inactive)
REMARK    1  A    between atoms: C_1  and  C_2
REMARK    2  A    between atoms: C_5  and  C_7
REMARK    3  A    between atoms: C_10  and  C_11
REMARK    4  A    between atoms: C_12  and  C_14
REMARK    5  A    between atoms: C_17  and  C_20
REMARK    6  A    between atoms: N_22  and  C_23
REMARK    7  A    between atoms: C_23  and  C_24
REMARK                            x       y       z     vdW  Elec       q    Type
REMARK                         _______ _______ _______ _____ _____    ______ ____
ROOT
ATOM      1  C   UNL     1       9.650   2.213  23.568  0.00  0.00    -0.018 A 
ATOM      2  C   UNL     1       9.645   1.479  24.774  0.00  0.00    +0.009 A 
ATOM      3  C   UNL     1       9.686   0.077  24.800  0.00  0.00    +0.013 A 
ATOM      4  C   UNL     1       9.695  -0.641  23.606  0.00  0.00    +0.037 A 
ATOM      5  C   UNL     1       9.775   0.055  22.400  0.00  0.00    +0.013 A 
ATOM      6  C   UNL     1       9.786   1.459  22.391  0.00  0.00    +0.009 A 
ENDROOT
BRANCH   1   9
ATOM      7  C   UNL     1       7.911   5.617  23.357  0.00  0.00    +0.039 A 
ATOM      8  C   UNL     1       8.169   4.243  23.509  0.00  0.00    +0.022 A 
ATOM      9  C   UNL     1       9.480   3.703  23.578  0.00  0.00    -0.014 A 
ATOM     10  C   UNL     1      10.554   4.632  23.542  0.00  0.00    -0.043 A 
ATOM     11  C   UNL     1      12.012   4.243  23.534  0.00  0.00    +0.044 C 
ATOM     12  C   UNL     1      10.287   6.015  23.484  0.00  0.00    +0.005 A 
ATOM     13  C   UNL     1       8.989   6.501  23.374  0.00  0.00    +0.013 A 
BRANCH   7  17
ATOM     14  C   UNL     1       3.177   6.126  24.054  0.00  0.00    +0.111 C 
ATOM     15  C   UNL     1       4.472   6.333  23.388  0.00  0.00    +0.215 A 
ATOM     16  O   UNL     1       5.573   5.774  23.977  0.00  0.00    -0.421 OA
ATOM     17  C   UNL     1       6.570   6.136  23.104  0.00  0.00    +0.248 A 
ATOM     18  N   UNL     1       6.115   6.850  22.092  0.00  0.00    -0.107 NA
ATOM     19  N   UNL     1       4.754   6.977  22.277  0.00  0.00    -0.112 NA
ENDBRANCH   7  17
ENDBRANCH   1   9
BRANCH   4  20
ATOM     20  C   UNL     1       9.605  -2.124  23.574  0.00  0.00    +0.244 C 
ATOM     21  N   UNL     1       8.360  -2.667  23.832  0.00  0.00    -0.311 N 
ATOM     22  H   UNL     1       7.556  -2.056  23.815  0.00  0.00    +0.149 HD
ATOM     23  O   UNL     1      10.585  -2.802  23.279  0.00  0.00    -0.270 OA
BRANCH  21  24
ATOM     24  C   UNL     1       8.124  -4.075  23.625  0.00  0.00    +0.108 C 
BRANCH  24  25
ATOM     25  C   UNL     1       7.194  -4.261  22.469  0.00  0.00    +0.006 C 
ATOM     26  C   UNL     1       6.002  -5.177  22.588  0.00  0.00    +0.005 C 
ATOM     27  C   UNL     1       7.154  -5.565  21.707  0.00  0.00    +0.005 C 
ENDBRANCH  24  25
ENDBRANCH  21  24
ENDBRANCH   4  20
TORSDOF 5
ENDMDL
MODEL 3
REMARK VINA RESULT:      -7.0      2.536      3.432
REMARK  Name = 
REMARK  7 active torsions:
REMARK  status: ('A' for Active; 'I' for Inactive)
REMARK    1  A    between atoms: C_1  and  C_2
REMARK    2  A    between atoms: C_5  and  C_7
REMARK    3  A    between atoms: C_10  and  C_11
REMARK    4  A    between atoms: C_12  and  C_14
REMARK    5  A    between atoms: C_17  and  C_20
REMARK    6  A    between atoms: N_22  and  C_23
REMARK    7  A    between atoms: C_23  and  C_24
REMARK                            x       y       z     vdW  Elec       q    Type
REMARK                         _______ _______ _______ _____ _____    ______ ____
ROOT
ATOM      1  C   UNL     1       6.691  -3.525  23.904  0.00  0.00    -0.018 A 
ATOM      2  C   UNL     1       6.069  -2.259  23.956  0.00  0.00    +0.009 A 
ATOM      3  C   UNL     1       6.638  -1.119  23.369  0.00  0.00    +0.013 A 
ATOM      4  C   UNL     1       7.878  -1.205  22.739  0.00  0.00    +0.037 A 
ATOM      5  C   UNL     1       8.482  -2.456  22.607  0.00  0.00    +0.013 A 
ATOM      6  C   UNL     1       7.876  -3.598  23.153  0.00  0.00    +0.009 A 
ENDROOT
BRANCH   1   9
ATOM      7  C   UNL     1       4.400  -6.492  24.687  0.00  0.00    +0.039 A 
ATOM      8  C   UNL     1       5.110  -5.476  24.021  0.00  0.00    +0.022 A 
ATOM      9  C   UNL     1       6.114  -4.693  24.648  0.00  0.00    -0.014 A 
ATOM     10  C   UNL     1       6.425  -5.016  25.996  0.00  0.00    -0.043 A 
ATOM     11  C   UNL     1       7.410  -4.252  26.846  0.00  0.00    +0.044 C 
ATOM     12  C   UNL     1       5.776  -6.096  26.629  0.00  0.00    +0.005 A 
ATOM     13  C   UNL     1       4.767  -6.811  25.993  0.00  0.00    +0.013 A 
BRANCH   7  17
ATOM     14  C   UNL     1       0.469  -6.890  21.941  0.00  0.00    +0.111 C 
ATOM     15  C   UNL     1       1.492  -7.326  22.903  0.00  0.00    +0.215 A 
ATOM     16  O   UNL     1       2.519  -6.460  23.159  0.00  0.00    -0.421 OA
ATOM     17  C   UNL     1       3.250  -7.161  24.087  0.00  0.00    +0.248 A 
ATOM     18  N   UNL     1       2.718  -8.337  24.359  0.00  0.00    -0.107 NA
ATOM     19  N   UNL     1       1.577  -8.444  23.591  0.00  0.00    -0.112 NA
ENDBRANCH   7  17
ENDBRANCH   1   9
BRANCH   4  20
ATOM     20  C   UNL     1       8.586  -0.008  22.218  0.00  0.00    +0.244 C 
ATOM     21  N   UNL     1       8.088   1.219  22.616  0.00  0.00    -0.311 N 
ATOM     22  H   UNL     1       7.430   1.246  23.382  0.00  0.00    +0.149 HD
ATOM     23  O   UNL     1       9.589  -0.130  21.520  0.00  0.00    -0.270 OA
BRANCH  21  24
ATOM     24  C   UNL     1       8.821   2.429  22.333  0.00  0.00    +0.108 C 
BRANCH  24  25
ATOM     25  C   UNL     1       9.625   2.818  23.532  0.00  0.00    +0.006 C 
ATOM     26  C   UNL     1       9.869   4.272  23.848  0.00  0.00    +0.005 C 
ATOM     27  C   UNL     1      11.006   3.409  23.382  0.00  0.00    +0.005 C 
ENDBRANCH  24  25
ENDBRANCH  21  24
ENDBRANCH   4  20
TORSDOF 5
ENDMDL
MODEL 4
REMARK VINA RESULT:      -6.8      3.215      4.180
REMARK  Name = 
REMARK  7 active torsions:
REMARK  status: ('A' for Active; 'I' for Inactive)
REMARK    1  A    between atoms: C_1  and  C_2
REMARK    2  A    between atoms: C_5  and  C_7
REMARK    3  A    between atoms: C_10  and  C_11
REMARK    4  A    between atoms: C_12  and  C_14
REMARK    5  A    between atoms: C_17  and  C_20
REMARK    6  A    between atoms: N_22  and  C_23
REMARK    7  A    between atoms: C_23  and  C_24
REMARK                            x       y       z     vdW  Elec       q    Type
REMARK                         _______ _______ _______ _____ _____    ______ ____
ROOT
ATOM      1  C   UNL     1       7.555  -0.271  23.184  0.00  0.00    -0.018 A 
ATOM      2  C   UNL     1       6.996   0.538  24.197  0.00  0.00    +0.009 A 
ATOM      3  C   UNL     1       7.178   1.929  24.233  0.00  0.00    +0.013 A 
ATOM      4  C   UNL     1       7.966   2.552  23.267  0.00  0.00    +0.037 A 
ATOM      5  C   UNL     1       8.470   1.791  22.212  0.00  0.00    +0.013 A 
ATOM      6  C   UNL     1       8.236   0.409  22.160  0.00  0.00    +0.009 A 
ENDROOT
BRANCH   1   9
ATOM      7  C   UNL     1       5.930  -3.737  23.273  0.00  0.00    +0.039 A 
ATOM      8  C   UNL     1       6.166  -2.364  23.079  0.00  0.00    +0.022 A 
ATOM      9  C   UNL     1       7.443  -1.766  23.248  0.00  0.00    -0.014 A 
ATOM     10  C   UNL     1       8.516  -2.636  23.576  0.00  0.00    -0.043 A 
ATOM     11  C   UNL     1       9.924  -2.176  23.862  0.00  0.00    +0.044 C 
ATOM     12  C   UNL     1       8.291  -4.024  23.677  0.00  0.00    +0.005 A 
ATOM     13  C   UNL     1       7.016  -4.565  23.547  0.00  0.00    +0.013 A 
BRANCH   7  17
ATOM     14  C   UNL     1       1.471  -4.501  24.913  0.00  0.00    +0.111 C 
ATOM     15  C   UNL     1       2.627  -4.671  24.020  0.00  0.00    +0.215 A 
ATOM     16  O   UNL     1       3.716  -3.875  24.249  0.00  0.00    -0.421 OA
ATOM     17  C   UNL     1       4.585  -4.304  23.275  0.00  0.00    +0.248 A 
ATOM     18  N   UNL     1       4.067  -5.260  22.529  0.00  0.00    -0.107 NA
ATOM     19  N   UNL     1       2.798  -5.498  23.012  0.00  0.00    -0.112 NA
ENDBRANCH   7  17
ENDBRANCH   1   9
BRANCH   4  20
ATOM     20  C   UNL     1       8.300   3.999  23.332  0.00  0.00    +0.244 C 
ATOM     21  N   UNL     1       9.318   4.353  24.197  0.00  0.00    -0.311 N 
ATOM     22  H   UNL     1       9.911   3.623  24.567  0.00  0.00    +0.149 HD
ATOM     23  O   UNL     1       7.724   4.806  22.607  0.00  0.00    -0.270 OA
BRANCH  21  24
ATOM     24  C   UNL     1       9.852   5.694  24.183  0.00  0.00    +0.108 C 
BRANCH  24  25
ATOM     25  C   UNL     1      11.087   5.730  23.342  0.00  0.00    +0.006 C 
ATOM     26  C   UNL     1      12.050   4.569  23.350  0.00  0.00    +0.005 C 
ATOM     27  C   UNL     1      12.452   5.876  23.972  0.00  0.00    +0.005 C 
ENDBRANCH  24  25
ENDBRANCH  21  24
ENDBRANCH   4  20
TORSDOF 5
ENDMDL
MODEL 5
REMARK VINA RESULT:      -6.7      3.821      9.945
REMARK  Name = 
REMARK  7 active torsions:
REMARK  status: ('A' for Active; 'I' for Inactive)
REMARK    1  A    between atoms: C_1  and  C_2
REMARK    2  A    between atoms: C_5  and  C_7
REMARK    3  A    between atoms: C_10  and  C_11
REMARK    4  A    between atoms: C_12  and  C_14
REMARK    5  A    between atoms: C_17  and  C_20
REMARK    6  A    between atoms: N_22  and  C_23
REMARK    7  A    between atoms: C_23  and  C_24
REMARK                            x       y       z     vdW  Elec       q    Type
REMARK                         _______ _______ _______ _____ _____    ______ ____
ROOT
ATOM      1  C   UNL     1       9.132   2.852  23.423  0.00  0.00    -0.018 A 
ATOM      2  C   UNL     1       9.240   2.112  24.620  0.00  0.00    +0.009 A 
ATOM      3  C   UNL     1       9.574   0.749  24.632  0.00  0.00    +0.013 A 
ATOM      4  C   UNL     1       9.775   0.071  23.432  0.00  0.00    +0.037 A 
ATOM      5  C   UNL     1       9.749   0.791  22.237  0.00  0.00    +0.013 A 
ATOM      6  C   UNL     1       9.465   2.166  22.243  0.00  0.00    +0.009 A 
ENDROOT
BRANCH   1   9
ATOM      7  C   UNL     1       6.752   5.831  23.070  0.00  0.00    +0.039 A 
ATOM      8  C   UNL     1       7.274   4.534  23.224  0.00  0.00    +0.022 A 
ATOM      9  C   UNL     1       8.653   4.274  23.442  0.00  0.00    -0.014 A 
ATOM     10  C   UNL     1       9.505   5.405  23.557  0.00  0.00    -0.043 A 
ATOM     11  C   UNL     1      11.002   5.326  23.718  0.00  0.00    +0.044 C 
ATOM     12  C   UNL     1       8.961   6.704  23.495  0.00  0.00    +0.005 A 
ATOM     13  C   UNL     1       7.611   6.916  23.237  0.00  0.00    +0.013 A 
BRANCH   7  17
ATOM     14  C   UNL     1       2.134   4.735  22.281  0.00  0.00    +0.111 C 
ATOM     15  C   UNL     1       3.339   5.579  22.282  0.00  0.00    +0.215 A 
ATOM     16  O   UNL     1       4.466   5.057  22.856  0.00  0.00    -0.421 OA
ATOM     17  C   UNL     1       5.371   6.073  22.666  0.00  0.00    +0.248 A 
ATOM     18  N   UNL     1       4.839   7.108  22.044  0.00  0.00    -0.107 NA
ATOM     19  N   UNL     1       3.521   6.787  21.795  0.00  0.00    -0.112 NA
ENDBRANCH   7  17
ENDBRANCH   1   9
BRANCH   4  20
ATOM     20  C   UNL     1      10.000  -1.396  23.380  0.00  0.00    +0.244 C 
ATOM     21  N   UNL     1       9.476  -2.133  24.426  0.00  0.00    -0.311 N 
ATOM     22  H   UNL     1       8.805  -1.689  25.039  0.00  0.00    +0.149 HD
ATOM     23  O   UNL     1      10.575  -1.907  22.423  0.00  0.00    -0.270 OA
BRANCH  21  24
ATOM     24  C   UNL     1       9.462  -3.574  24.367  0.00  0.00    +0.108 C 
BRANCH  24  25
ATOM     25  C   UNL     1       8.196  -4.036  23.721  0.00  0.00    +0.006 C 
ATOM     26  C   UNL     1       6.863  -3.756  24.369  0.00  0.00    +0.005 C 
ATOM     27  C   UNL     1       7.386  -5.162  24.317  0.00  0.00    +0.005 C 
ENDBRANCH  24  25
ENDBRANCH  21  24
ENDBRANCH   4  20
TORSDOF 5
ENDMDL
MODEL 6
REMARK VINA RESULT:      -6.6      2.334      9.325
REMARK  Name = 
REMARK  7 active torsions:
REMARK  status: ('A' for Active; 'I' for Inactive)
REMARK    1  A    between atoms: C_1  and  C_2
REMARK    2  A    between atoms: C_5  and  C_7
REMARK    3  A    between atoms: C_10  and  C_11
REMARK    4  A    between atoms: C_12  and  C_14
REMARK    5  A    between atoms: C_17  and  C_20
REMARK    6  A    between atoms: N_22  and  C_23
REMARK    7  A    between atoms: C_23  and  C_24
REMARK                            x       y       z     vdW  Elec       q    Type
REMARK                         _______ _______ _______ _____ _____    ______ ____
ROOT
ATOM      1  C   UNL     1       8.256  -1.294  24.549  0.00  0.00    -0.018 A 
ATOM      2  C   UNL     1       6.884  -1.588  24.393  0.00  0.00    +0.009 A 
ATOM      3  C   UNL     1       6.308  -2.766  24.892  0.00  0.00    +0.013 A 
ATOM      4  C   UNL     1       7.104  -3.711  25.536  0.00  0.00    +0.037 A 
ATOM      5  C   UNL     1       8.447  -3.416  25.771  0.00  0.00    +0.013 A 
ATOM      6  C   UNL     1       8.999  -2.210  25.312  0.00  0.00    +0.009 A 
ENDROOT
BRANCH   1   9
ATOM      7  C   UNL     1       9.168   2.379  23.964  0.00  0.00    +0.039 A 
ATOM      8  C   UNL     1       8.773   1.166  24.558  0.00  0.00    +0.022 A 
ATOM      9  C   UNL     1       8.860  -0.086  23.895  0.00  0.00    -0.014 A 
ATOM     10  C   UNL     1       9.427  -0.080  22.593  0.00  0.00    -0.043 A 
ATOM     11  C   UNL     1       9.537  -1.298  21.710  0.00  0.00    +0.044 C 
ATOM     12  C   UNL     1       9.907   1.125  22.040  0.00  0.00    +0.005 A 
ATOM     13  C   UNL     1       9.764   2.338  22.705  0.00  0.00    +0.013 A 
BRANCH   7  17
ATOM     14  C   UNL     1       9.927   7.024  24.963  0.00  0.00    +0.111 C 
ATOM     15  C   UNL     1       9.260   5.716  25.055  0.00  0.00    +0.215 A 
ATOM     16  O   UNL     1       9.711   4.726  24.225  0.00  0.00    -0.421 OA
ATOM     17  C   UNL     1       8.904   3.673  24.584  0.00  0.00    +0.248 A 
ATOM     18  N   UNL     1       8.048   4.000  25.533  0.00  0.00    -0.107 NA
ATOM     19  N   UNL     1       8.279   5.325  25.838  0.00  0.00    -0.112 NA
ENDBRANCH   7  17
ENDBRANCH   1   9
BRANCH   4  20
ATOM     20  C   UNL     1       6.573  -5.031  25.966  0.00  0.00    +0.244 C 
ATOM     21  N   UNL     1       5.206  -5.205  25.859  0.00  0.00    -0.311 N 
ATOM     22  H   UNL     1       4.677  -4.538  25.314  0.00  0.00    +0.149 HD
ATOM     23  O   UNL     1       7.335  -5.919  26.339  0.00  0.00    -0.270 OA
BRANCH  21  24
ATOM     24  C   UNL     1       4.620  -6.509  26.056  0.00  0.00    +0.108 C 
BRANCH  24  25
ATOM     25  C   UNL     1       4.318  -7.126  24.728  0.00  0.00    +0.006 C 
ATOM     26  C   UNL     1       3.840  -6.271  23.581  0.00  0.00    +0.005 C 
ATOM     27  C   UNL     1       2.896  -7.241  24.231  0.00  0.00    +0.005 C 
ENDBRANCH  24  25
ENDBRANCH  21  24
ENDBRANCH   4  20
TORSDOF 5
ENDMDL
MODEL 7
REMARK VINA RESULT:      -6.6      2.887      9.448
REMARK  Name = 
REMARK  7 active torsions:
REMARK  status: ('A' for Active; 'I' for Inactive)
REMARK    1  A    between atoms: C_1  and  C_2
REMARK    2  A    between atoms: C_5  and  C_7
REMARK    3  A    between atoms: C_10  and  C_11
REMARK    4  A    between atoms: C_12  and  C_14
REMARK    5  A    between atoms: C_17  and  C_20
REMARK    6  A    between atoms: N_22  and  C_23
REMARK    7  A    between atoms: C_23  and  C_24
REMARK                            x       y       z     vdW  Elec       q    Type
REMARK                         _______ _______ _______ _____ _____    ______ ____
ROOT
ATOM      1  C   UNL     1       7.180  -1.644  23.946  0.00  0.00    -0.018 A 
ATOM      2  C   UNL     1       6.715  -1.889  22.635  0.00  0.00    +0.009 A 
ATOM      3  C   UNL     1       5.734  -2.852  22.355  0.00  0.00    +0.013 A 
ATOM      4  C   UNL     1       5.211  -3.633  23.383  0.00  0.00    +0.037 A 
ATOM      5  C   UNL     1       5.595  -3.364  24.697  0.00  0.00    +0.013 A 
ATOM      6  C   UNL     1       6.539  -2.362  24.969  0.00  0.00    +0.009 A 
ENDROOT
BRANCH   1   9
ATOM      7  C   UNL     1       9.011   1.656  24.592  0.00  0.00    +0.039 A 
ATOM      8  C   UNL     1       8.023   0.659  24.497  0.00  0.00    +0.022 A 
ATOM      9  C   UNL     1       8.316  -0.696  24.191  0.00  0.00    -0.014 A 
ATOM     10  C   UNL     1       9.687  -1.031  24.033  0.00  0.00    -0.043 A 
ATOM     11  C   UNL     1      10.186  -2.400  23.639  0.00  0.00    +0.044 C 
ATOM     12  C   UNL     1      10.679  -0.047  24.222  0.00  0.00    +0.005 A 
ATOM     13  C   UNL     1      10.347   1.279  24.479  0.00  0.00    +0.013 A 
BRANCH   7  17
ATOM     14  C   UNL     1       9.383   6.372  23.709  0.00  0.00    +0.111 C 
ATOM     15  C   UNL     1       8.869   5.158  24.363  0.00  0.00    +0.215 A 
ATOM     16  O   UNL     1       9.330   3.957  23.900  0.00  0.00    -0.421 OA
ATOM     17  C   UNL     1       8.680   3.072  24.725  0.00  0.00    +0.248 A 
ATOM     18  N   UNL     1       7.899   3.681  25.596  0.00  0.00    -0.107 NA
ATOM     19  N   UNL     1       8.022   5.035  25.361  0.00  0.00    -0.112 NA
ENDBRANCH   7  17
ENDBRANCH   1   9
BRANCH   4  20
ATOM     20  C   UNL     1       4.270  -4.754  23.125  0.00  0.00    +0.244 C 
ATOM     21  N   UNL     1       3.086  -4.734  23.837  0.00  0.00    -0.311 N 
ATOM     22  H   UNL     1       2.827  -3.884  24.317  0.00  0.00    +0.149 HD
ATOM     23  O   UNL     1       4.532  -5.606  22.281  0.00  0.00    -0.270 OA
BRANCH  21  24
ATOM     24  C   UNL     1       2.026  -5.658  23.512  0.00  0.00    +0.108 C 
BRANCH  24  25
ATOM     25  C   UNL     1       1.925  -6.698  24.581  0.00  0.00    +0.006 C 
ATOM     26  C   UNL     1       3.128  -7.530  24.950  0.00  0.00    +0.005 C 
ATOM     27  C   UNL     1       1.970  -8.169  24.238  0.00  0.00    +0.005 C 
ENDBRANCH  24  25
ENDBRANCH  21  24
ENDBRANCH   4  20
TORSDOF 5
ENDMDL
MODEL 8
REMARK VINA RESULT:      -6.5      3.435     10.075
REMARK  Name = 
REMARK  7 active torsions:
REMARK  status: ('A' for Active; 'I' for Inactive)
REMARK    1  A    between atoms: C_1  and  C_2
REMARK    2  A    between atoms: C_5  and  C_7
REMARK    3  A    between atoms: C_10  and  C_11
REMARK    4  A    between atoms: C_12  and  C_14
REMARK    5  A    between atoms: C_17  and  C_20
REMARK    6  A    between atoms: N_22  and  C_23
REMARK    7  A    between atoms: C_23  and  C_24
REMARK                            x       y       z     vdW  Elec       q    Type
REMARK                         _______ _______ _______ _____ _____    ______ ____
ROOT
ATOM      1  C   UNL     1       8.337   0.711  24.134  0.00  0.00    -0.018 A 
ATOM      2  C   UNL     1       9.243  -0.181  24.747  0.00  0.00    +0.009 A 
ATOM      3  C   UNL     1       9.231  -1.560  24.487  0.00  0.00    +0.013 A 
ATOM      4  C   UNL     1       8.276  -2.097  23.626  0.00  0.00    +0.037 A 
ATOM      5  C   UNL     1       7.415  -1.233  22.949  0.00  0.00    +0.013 A 
ATOM      6  C   UNL     1       7.473   0.150  23.178  0.00  0.00    +0.009 A 
ENDROOT
BRANCH   1   9
ATOM      7  C   UNL     1       9.471   4.349  24.507  0.00  0.00    +0.039 A 
ATOM      8  C   UNL     1       9.329   3.020  24.070  0.00  0.00    +0.022 A 
ATOM      9  C   UNL     1       8.300   2.158  24.530  0.00  0.00    -0.014 A 
ATOM     10  C   UNL     1       7.356   2.717  25.432  0.00  0.00    -0.043 A 
ATOM     11  C   UNL     1       6.237   1.939  26.080  0.00  0.00    +0.044 C 
ATOM     12  C   UNL     1       7.448   4.076  25.794  0.00  0.00    +0.005 A 
ATOM     13  C   UNL     1       8.498   4.876  25.355  0.00  0.00    +0.013 A 
BRANCH   7  17
ATOM     14  C   UNL     1      13.472   5.538  22.114  0.00  0.00    +0.111 C 
ATOM     15  C   UNL     1      12.423   5.669  23.136  0.00  0.00    +0.215 A 
ATOM     16  O   UNL     1      11.392   4.771  23.091  0.00  0.00    -0.421 OA
ATOM     17  C   UNL     1      10.634   5.163  24.168  0.00  0.00    +0.248 A 
ATOM     18  N   UNL     1      11.156   6.199  24.797  0.00  0.00    -0.107 NA
ATOM     19  N   UNL     1      12.316   6.527  24.127  0.00  0.00    -0.112 NA
ENDBRANCH   7  17
ENDBRANCH   1   9
BRANCH   4  20
ATOM     20  C   UNL     1       8.133  -3.561  23.418  0.00  0.00    +0.244 C 
ATOM     21  N   UNL     1       7.251  -3.956  22.430  0.00  0.00    -0.311 N 
ATOM     22  H   UNL     1       6.921  -3.261  21.774  0.00  0.00    +0.149 HD
ATOM     23  O   UNL     1       8.814  -4.353  24.065  0.00  0.00    -0.270 OA
BRANCH  21  24
ATOM     24  C   UNL     1       7.193  -5.336  22.014  0.00  0.00    +0.108 C 
BRANCH  24  25
ATOM     25  C   UNL     1       5.786  -5.831  22.119  0.00  0.00    +0.006 C 
ATOM     26  C   UNL     1       4.746  -5.023  22.854  0.00  0.00    +0.005 C 
ATOM     27  C   UNL     1       5.231  -6.320  23.436  0.00  0.00    +0.005 C 
ENDBRANCH  24  25
ENDBRANCH  21  24
ENDBRANCH   4  20
TORSDOF 5
ENDMDL
MODEL 9
REMARK VINA RESULT:      -6.4      2.914      4.416
REMARK  Name = 
REMARK  7 active torsions:
REMARK  status: ('A' for Active; 'I' for Inactive)
REMARK    1  A    between atoms: C_1  and  C_2
REMARK    2  A    between atoms: C_5  and  C_7
REMARK    3  A    between atoms: C_10  and  C_11
REMARK    4  A    between atoms: C_12  and  C_14
REMARK    5  A    between atoms: C_17  and  C_20
REMARK    6  A    between atoms: N_22  and  C_23
REMARK    7  A    between atoms: C_23  and  C_24
REMARK                            x       y       z     vdW  Elec       q    Type
REMARK                         _______ _______ _______ _____ _____    ______ ____
ROOT
ATOM      1  C   UNL     1       6.021  -4.829  25.515  0.00  0.00    -0.018 A 
ATOM      2  C   UNL     1       7.353  -5.291  25.437  0.00  0.00    +0.009 A 
ATOM      3  C   UNL     1       8.367  -4.554  24.808  0.00  0.00    +0.013 A 
ATOM      4  C   UNL     1       8.067  -3.337  24.198  0.00  0.00    +0.037 A 
ATOM      5  C   UNL     1       6.778  -2.819  24.323  0.00  0.00    +0.013 A 
ATOM      6  C   UNL     1       5.785  -3.544  25.001  0.00  0.00    +0.009 A 
ENDROOT
BRANCH   1   9
ATOM      7  C   UNL     1       3.088  -7.288  25.618  0.00  0.00    +0.039 A 
ATOM      8  C   UNL     1       4.215  -6.551  25.212  0.00  0.00    +0.022 A 
ATOM      9  C   UNL     1       4.941  -5.700  26.086  0.00  0.00    -0.014 A 
ATOM     10  C   UNL     1       4.510  -5.659  27.439  0.00  0.00    -0.043 A 
ATOM     11  C   UNL     1       5.111  -4.763  28.494  0.00  0.00    +0.044 C 
ATOM     12  C   UNL     1       3.437  -6.471  27.861  0.00  0.00    +0.005 A 
ATOM     13  C   UNL     1       2.725  -7.258  26.963  0.00  0.00    +0.013 A 
BRANCH   7  17
ATOM     14  C   UNL     1       0.801  -8.071  21.457  0.00  0.00    +0.111 C 
ATOM     15  C   UNL     1       1.205  -8.340  22.846  0.00  0.00    +0.215 A 
ATOM     16  O   UNL     1       2.122  -7.492  23.405  0.00  0.00    -0.421 OA
ATOM     17  C   UNL     1       2.246  -8.012  24.670  0.00  0.00    +0.248 A 
ATOM     18  N   UNL     1       1.483  -9.073  24.853  0.00  0.00    -0.107 NA
ATOM     19  N   UNL     1       0.808  -9.285  23.669  0.00  0.00    -0.112 NA
ENDBRANCH   7  17
ENDBRANCH   1   9
BRANCH   4  20
ATOM     20  C   UNL     1       9.071  -2.581  23.406  0.00  0.00    +0.244 C 
ATOM     21  N   UNL     1       8.571  -1.711  22.455  0.00  0.00    -0.311 N 
ATOM     22  H   UNL     1       7.589  -1.476  22.487  0.00  0.00    +0.149 HD
ATOM     23  O   UNL     1      10.270  -2.699  23.641  0.00  0.00    -0.270 OA
BRANCH  21  24
ATOM     24  C   UNL     1       9.449  -0.787  21.779  0.00  0.00    +0.108 C 
BRANCH  24  25
ATOM     25  C   UNL     1       9.317   0.568  22.396  0.00  0.00    +0.006 C 
ATOM     26  C   UNL     1       8.683   1.699  21.624  0.00  0.00    +0.005 C 
ATOM     27  C   UNL     1      10.157   1.727  21.912  0.00  0.00    +0.005 C 
ENDBRANCH  24  25
ENDBRANCH  21  24
ENDBRANCH   4  20
TORSDOF 5
ENDMDL
