MODEL 1
REMARK VINA RESULT:      -5.0      0.000      0.000
REMARK  Name = 
REMARK  32 active torsions:
REMARK  status: ('A' for Active; 'I' for Inactive)
REMARK    1  A    between atoms: C_1  and  C_2
REMARK    2  A    between atoms: C_2  and  C_3
REMARK    3  A    between atoms: C_3  and  C_4
REMARK    4  A    between atoms: C_4  and  C_5
REMARK    5  A    between atoms: C_5  and  C_6
REMARK    6  A    between atoms: C_6  and  C_7
REMARK    7  A    between atoms: C_7  and  C_8
REMARK    8  A    between atoms: C_8  and  C_9
REMARK    9  A    between atoms: C_9  and  C_10
REMARK   10  A    between atoms: C_10  and  C_11
REMARK   11  A    between atoms: C_11  and  C_12
REMARK   12  A    between atoms: C_12  and  C_13
REMARK   13  A    between atoms: C_13  and  C_14
REMARK   14  A    between atoms: C_14  and  C_15
REMARK   15  A    between atoms: C_15  and  C_16
REMARK   16  A    between atoms: C_16  and  C_17
REMARK   17  A    between atoms: C_17  and  C_18
REMARK   18  A    between atoms: C_18  and  O_19
REMARK   19  A    between atoms: O_19  and  C_20
REMARK   20  A    between atoms: C_20  and  C_21
REMARK   21  A    between atoms: C_21  and  O_23
REMARK   22  A    between atoms: C_21  and  C_24
REMARK   23  A    between atoms: C_24  and  O_25
REMARK   24  A    between atoms: O_25  and  P_26
REMARK   25  A    between atoms: P_26  and  O_27
REMARK   26  A    between atoms: P_26  and  O_29
REMARK   27  A    between atoms: O_29  and  C_30
REMARK   28  A    between atoms: C_30  and  C_31
REMARK   29  A    between atoms: C_31  and  N_32
REMARK   30  A    between atoms: N_32  and  C_33
REMARK   31  A    between atoms: N_32  and  C_34
REMARK   32  A    between atoms: N_32  and  C_35
REMARK                            x       y       z     vdW  Elec       q    Type
REMARK                         _______ _______ _______ _____ _____    ______ ____
ROOT
ATOM      1  C   UNL     1      10.037  -2.119  23.444  0.00  0.00    +0.160 C 
ENDROOT
BRANCH   1   2
ATOM      2  O   UNL     1      10.120  -3.374  24.112  0.00  0.00    -0.377 OA
BRANCH   2   3
ATOM      3  C   UNL     1       8.795  -3.827  24.409  0.00  0.00    +0.193 C 
BRANCH   3   4
ATOM      4  C   UNL     1       8.881  -5.076  25.281  0.00  0.00    +0.166 C 
BRANCH   4   5
ATOM      5  O   UNL     1      10.235  -5.531  25.326  0.00  0.00    -0.387 OA
ATOM      6  H   UNL     1      10.244  -6.349  24.786  0.00  0.00    +0.210 HD
ENDBRANCH   4   5
BRANCH   4   7
ATOM      7  C   UNL     1       8.417  -4.757  26.693  0.00  0.00    +0.206 C 
BRANCH   7   8
ATOM      8  O   UNL     1       7.676  -5.853  27.210  0.00  0.00    -0.284 OA
BRANCH   8   9
ATOM      9  P   UNL     1       5.972  -5.556  27.219  0.00  0.00    +0.475 P 
ATOM     10  O   UNL     1       6.110  -4.751  28.513  0.00  0.00    -0.227 OA
BRANCH   9  11
ATOM     11  O   UNL     1       5.702  -7.106  27.638  0.00  0.00    -0.302 OA
ATOM     12  H   UNL     1       5.883  -7.747  26.931  0.00  0.00    +0.222 HD
ENDBRANCH   9  11
BRANCH   9  13
ATOM     13  O   UNL     1       4.268  -5.259  27.230  0.00  0.00    -0.281 OA
BRANCH  13  14
ATOM     14  C   UNL     1       3.844  -4.479  26.116  0.00  0.00    +0.223 C 
BRANCH  14  15
ATOM     15  C   UNL     1       5.015  -4.182  25.179  0.00  0.00    +0.161 C 
BRANCH  15  16
ATOM     16  N   UNL     1       4.798  -4.583  23.703  0.00  0.00    +0.239 N 
ATOM     17  C   UNL     1       5.640  -5.827  23.433  0.00  0.00    +0.192 C 
ATOM     18  C   UNL     1       5.232  -3.472  22.755  0.00  0.00    +0.192 C 
ATOM     19  C   UNL     1       3.333  -4.925  23.422  0.00  0.00    +0.192 C 
ENDBRANCH  15  16
ENDBRANCH  14  15
ENDBRANCH  13  14
ENDBRANCH   9  13
ENDBRANCH   8   9
ENDBRANCH   7   8
ENDBRANCH   4   7
ENDBRANCH   3   4
ENDBRANCH   2   3
ENDBRANCH   1   2
BRANCH   1  20
ATOM     20  C   UNL     1       9.725  -1.017  24.443  0.00  0.00    +0.028 C 
BRANCH  20  21
ATOM     21  C   UNL     1      10.301   0.325  23.995  0.00  0.00    +0.002 C 
BRANCH  21  22
ATOM     22  C   UNL     1       9.899   0.668  22.562  0.00  0.00    +0.000 C 
BRANCH  22  23
ATOM     23  C   UNL     1      10.136   2.135  22.247  0.00  0.00    +0.000 C 
BRANCH  23  24
ATOM     24  C   UNL     1      10.464   2.885  23.532  0.00  0.00    +0.000 C 
BRANCH  24  25
ATOM     25  C   UNL     1      11.503   3.960  23.269  0.00  0.00    -0.000 C 
BRANCH  25  26
ATOM     26  C   UNL     1      10.959   5.327  23.656  0.00  0.00    -0.000 C 
BRANCH  26  27
ATOM     27  C   UNL     1       9.618   5.174  24.356  0.00  0.00    -0.000 C 
BRANCH  27  28
ATOM     28  C   UNL     1       8.740   6.387  24.096  0.00  0.00    -0.000 C 
BRANCH  28  29
ATOM     29  C   UNL     1       8.188   6.345  22.680  0.00  0.00    -0.000 C 
BRANCH  29  30
ATOM     30  C   UNL     1       7.501   5.014  22.417  0.00  0.00    -0.000 C 
BRANCH  30  31
ATOM     31  C   UNL     1       6.067   5.044  22.929  0.00  0.00    -0.000 C 
BRANCH  31  32
ATOM     32  C   UNL     1       5.895   4.074  24.092  0.00  0.00    -0.000 C 
BRANCH  32  33
ATOM     33  C   UNL     1       6.732   2.819  23.875  0.00  0.00    -0.000 C 
BRANCH  33  34
ATOM     34  C   UNL     1       7.357   2.354  25.187  0.00  0.00    -0.000 C 
BRANCH  34  36
ATOM     35  C   UNL     1       7.320   0.588  26.969  0.00  0.00    +0.004 C 
ATOM     36  C   UNL     1       6.852   0.969  25.575  0.00  0.00    -0.003 C 
ENDBRANCH  34  36
ENDBRANCH  33  34
ENDBRANCH  32  33
ENDBRANCH  31  32
ENDBRANCH  30  31
ENDBRANCH  29  30
ENDBRANCH  28  29
ENDBRANCH  27  28
ENDBRANCH  26  27
ENDBRANCH  25  26
ENDBRANCH  24  25
ENDBRANCH  23  24
ENDBRANCH  22  23
ENDBRANCH  21  22
ENDBRANCH  20  21
ENDBRANCH   1  20
TORSDOF 28
ENDMDL
MODEL 2
REMARK VINA RESULT:      -5.0      1.392      3.460
REMARK  Name = 
REMARK  32 active torsions:
REMARK  status: ('A' for Active; 'I' for Inactive)
REMARK    1  A    between atoms: C_1  and  C_2
REMARK    2  A    between atoms: C_2  and  C_3
REMARK    3  A    between atoms: C_3  and  C_4
REMARK    4  A    between atoms: C_4  and  C_5
REMARK    5  A    between atoms: C_5  and  C_6
REMARK    6  A    between atoms: C_6  and  C_7
REMARK    7  A    between atoms: C_7  and  C_8
REMARK    8  A    between atoms: C_8  and  C_9
REMARK    9  A    between atoms: C_9  and  C_10
REMARK   10  A    between atoms: C_10  and  C_11
REMARK   11  A    between atoms: C_11  and  C_12
REMARK   12  A    between atoms: C_12  and  C_13
REMARK   13  A    between atoms: C_13  and  C_14
REMARK   14  A    between atoms: C_14  and  C_15
REMARK   15  A    between atoms: C_15  and  C_16
REMARK   16  A    between atoms: C_16  and  C_17
REMARK   17  A    between atoms: C_17  and  C_18
REMARK   18  A    between atoms: C_18  and  O_19
REMARK   19  A    between atoms: O_19  and  C_20
REMARK   20  A    between atoms: C_20  and  C_21
REMARK   21  A    between atoms: C_21  and  O_23
REMARK   22  A    between atoms: C_21  and  C_24
REMARK   23  A    between atoms: C_24  and  O_25
REMARK   24  A    between atoms: O_25  and  P_26
REMARK   25  A    between atoms: P_26  and  O_27
REMARK   26  A    between atoms: P_26  and  O_29
REMARK   27  A    between atoms: O_29  and  C_30
REMARK   28  A    between atoms: C_30  and  C_31
REMARK   29  A    between atoms: C_31  and  N_32
REMARK   30  A    between atoms: N_32  and  C_33
REMARK   31  A    between atoms: N_32  and  C_34
REMARK   32  A    between atoms: N_32  and  C_35
REMARK                            x       y       z     vdW  Elec       q    Type
REMARK                         _______ _______ _______ _____ _____    ______ ____
ROOT
ATOM      1  C   UNL     1       8.608  -0.980  24.555  0.00  0.00    +0.160 C 
ENDROOT
BRANCH   1   2
ATOM      2  O   UNL     1       8.134  -2.310  24.368  0.00  0.00    -0.377 OA
BRANCH   2   3
ATOM      3  C   UNL     1       9.257  -3.195  24.301  0.00  0.00    +0.193 C 
BRANCH   3   4
ATOM      4  C   UNL     1       8.922  -4.480  25.052  0.00  0.00    +0.166 C 
BRANCH   4   5
ATOM      5  O   UNL     1       9.961  -5.438  24.841  0.00  0.00    -0.387 OA
ATOM      6  H   UNL     1      10.785  -4.909  24.791  0.00  0.00    +0.210 HD
ENDBRANCH   4   5
BRANCH   4   7
ATOM      7  C   UNL     1       8.803  -4.196  26.541  0.00  0.00    +0.206 C 
BRANCH   7   8
ATOM      8  O   UNL     1       7.446  -3.930  26.867  0.00  0.00    -0.284 OA
BRANCH   8   9
ATOM      9  P   UNL     1       6.514  -5.376  27.050  0.00  0.00    +0.475 P 
ATOM     10  O   UNL     1       5.662  -4.702  28.128  0.00  0.00    -0.227 OA
BRANCH   9  11
ATOM     11  O   UNL     1       7.768  -6.093  27.800  0.00  0.00    -0.302 OA
ATOM     12  H   UNL     1       8.146  -5.573  28.529  0.00  0.00    +0.222 HD
ENDBRANCH   9  11
BRANCH   9  13
ATOM     13  O   UNL     1       5.581  -6.821  27.234  0.00  0.00    -0.281 OA
BRANCH  13  14
ATOM     14  C   UNL     1       4.509  -6.901  26.299  0.00  0.00    +0.223 C 
BRANCH  14  15
ATOM     15  C   UNL     1       4.902  -6.271  24.962  0.00  0.00    +0.161 C 
BRANCH  15  16
ATOM     16  N   UNL     1       3.824  -5.376  24.312  0.00  0.00    +0.239 N 
ATOM     17  C   UNL     1       2.718  -5.161  25.342  0.00  0.00    +0.192 C 
ATOM     18  C   UNL     1       3.229  -6.033  23.073  0.00  0.00    +0.192 C 
ATOM     19  C   UNL     1       4.387  -4.009  23.920  0.00  0.00    +0.192 C 
ENDBRANCH  15  16
ENDBRANCH  14  15
ENDBRANCH  13  14
ENDBRANCH   9  13
ENDBRANCH   8   9
ENDBRANCH   7   8
ENDBRANCH   4   7
ENDBRANCH   3   4
ENDBRANCH   2   3
ENDBRANCH   1   2
BRANCH   1  20
ATOM     20  C   UNL     1      10.042  -0.864  24.067  0.00  0.00    +0.028 C 
BRANCH  20  21
ATOM     21  C   UNL     1      10.640   0.500  24.403  0.00  0.00    +0.002 C 
BRANCH  21  22
ATOM     22  C   UNL     1       9.821   1.644  23.811  0.00  0.00    +0.000 C 
BRANCH  22  23
ATOM     23  C   UNL     1      10.086   1.815  22.325  0.00  0.00    +0.000 C 
BRANCH  23  24
ATOM     24  C   UNL     1       8.796   1.585  21.548  0.00  0.00    +0.000 C 
BRANCH  24  25
ATOM     25  C   UNL     1       7.590   1.848  22.433  0.00  0.00    -0.000 C 
BRANCH  25  26
ATOM     26  C   UNL     1       6.985   3.206  22.110  0.00  0.00    -0.000 C 
BRANCH  26  27
ATOM     27  C   UNL     1       6.177   3.711  23.296  0.00  0.00    -0.000 C 
BRANCH  27  28
ATOM     28  C   UNL     1       6.526   2.927  24.550  0.00  0.00    -0.000 C 
BRANCH  28  29
ATOM     29  C   UNL     1       6.935   3.876  25.667  0.00  0.00    -0.000 C 
BRANCH  29  30
ATOM     30  C   UNL     1       7.488   5.170  25.089  0.00  0.00    -0.000 C 
BRANCH  30  31
ATOM     31  C   UNL     1       9.000   5.078  24.926  0.00  0.00    -0.000 C 
BRANCH  31  32
ATOM     32  C   UNL     1       9.432   5.702  23.604  0.00  0.00    -0.000 C 
BRANCH  32  33
ATOM     33  C   UNL     1      10.926   6.003  23.615  0.00  0.00    -0.000 C 
BRANCH  33  34
ATOM     34  C   UNL     1      11.738   4.711  23.599  0.00  0.00    -0.000 C 
BRANCH  34  36
ATOM     35  C   UNL     1      13.269   5.726  21.890  0.00  0.00    +0.004 C 
ATOM     36  C   UNL     1      13.187   4.978  23.210  0.00  0.00    -0.003 C 
ENDBRANCH  34  36
ENDBRANCH  33  34
ENDBRANCH  32  33
ENDBRANCH  31  32
ENDBRANCH  30  31
ENDBRANCH  29  30
ENDBRANCH  28  29
ENDBRANCH  27  28
ENDBRANCH  26  27
ENDBRANCH  25  26
ENDBRANCH  24  25
ENDBRANCH  23  24
ENDBRANCH  22  23
ENDBRANCH  21  22
ENDBRANCH  20  21
ENDBRANCH   1  20
TORSDOF 28
ENDMDL
MODEL 3
REMARK VINA RESULT:      -5.0      1.675      3.698
REMARK  Name = 
REMARK  32 active torsions:
REMARK  status: ('A' for Active; 'I' for Inactive)
REMARK    1  A    between atoms: C_1  and  C_2
REMARK    2  A    between atoms: C_2  and  C_3
REMARK    3  A    between atoms: C_3  and  C_4
REMARK    4  A    between atoms: C_4  and  C_5
REMARK    5  A    between atoms: C_5  and  C_6
REMARK    6  A    between atoms: C_6  and  C_7
REMARK    7  A    between atoms: C_7  and  C_8
REMARK    8  A    between atoms: C_8  and  C_9
REMARK    9  A    between atoms: C_9  and  C_10
REMARK   10  A    between atoms: C_10  and  C_11
REMARK   11  A    between atoms: C_11  and  C_12
REMARK   12  A    between atoms: C_12  and  C_13
REMARK   13  A    between atoms: C_13  and  C_14
REMARK   14  A    between atoms: C_14  and  C_15
REMARK   15  A    between atoms: C_15  and  C_16
REMARK   16  A    between atoms: C_16  and  C_17
REMARK   17  A    between atoms: C_17  and  C_18
REMARK   18  A    between atoms: C_18  and  O_19
REMARK   19  A    between atoms: O_19  and  C_20
REMARK   20  A    between atoms: C_20  and  C_21
REMARK   21  A    between atoms: C_21  and  O_23
REMARK   22  A    between atoms: C_21  and  C_24
REMARK   23  A    between atoms: C_24  and  O_25
REMARK   24  A    between atoms: O_25  and  P_26
REMARK   25  A    between atoms: P_26  and  O_27
REMARK   26  A    between atoms: P_26  and  O_29
REMARK   27  A    between atoms: O_29  and  C_30
REMARK   28  A    between atoms: C_30  and  C_31
REMARK   29  A    between atoms: C_31  and  N_32
REMARK   30  A    between atoms: N_32  and  C_33
REMARK   31  A    between atoms: N_32  and  C_34
REMARK   32  A    between atoms: N_32  and  C_35
REMARK                            x       y       z     vdW  Elec       q    Type
REMARK                         _______ _______ _______ _____ _____    ______ ____
ROOT
ATOM      1  C   UNL     1       7.924  -1.755  24.718  0.00  0.00    +0.160 C 
ENDROOT
BRANCH   1   2
ATOM      2  O   UNL     1       7.526  -2.335  25.957  0.00  0.00    -0.377 OA
BRANCH   2   3
ATOM      3  C   UNL     1       8.285  -3.530  26.171  0.00  0.00    +0.193 C 
BRANCH   3   4
ATOM      4  C   UNL     1       7.339  -4.650  26.593  0.00  0.00    +0.166 C 
BRANCH   4   5
ATOM      5  O   UNL     1       8.038  -5.569  27.436  0.00  0.00    -0.387 OA
ATOM      6  H   UNL     1       8.389  -6.252  26.826  0.00  0.00    +0.210 HD
ENDBRANCH   4   5
BRANCH   4   7
ATOM      7  C   UNL     1       6.159  -4.072  27.358  0.00  0.00    +0.206 C 
BRANCH   7   8
ATOM      8  O   UNL     1       5.185  -5.084  27.567  0.00  0.00    -0.284 OA
BRANCH   8   9
ATOM      9  P   UNL     1       4.849  -5.986  26.129  0.00  0.00    +0.475 P 
ATOM     10  O   UNL     1       3.369  -5.612  26.229  0.00  0.00    -0.227 OA
BRANCH   9  11
ATOM     11  O   UNL     1       5.056  -7.377  26.950  0.00  0.00    -0.302 OA
ATOM     12  H   UNL     1       4.270  -7.668  27.443  0.00  0.00    +0.222 HD
ENDBRANCH   9  11
BRANCH   9  13
ATOM     13  O   UNL     1       4.513  -6.888  24.692  0.00  0.00    -0.281 OA
BRANCH  13  14
ATOM     14  C   UNL     1       4.242  -6.050  23.573  0.00  0.00    +0.223 C 
BRANCH  14  15
ATOM     15  C   UNL     1       5.185  -4.846  23.551  0.00  0.00    +0.161 C 
BRANCH  15  16
ATOM     16  N   UNL     1       6.282  -4.886  22.465  0.00  0.00    +0.239 N 
ATOM     17  C   UNL     1       6.386  -3.489  21.860  0.00  0.00    +0.192 C 
ATOM     18  C   UNL     1       5.938  -5.882  21.364  0.00  0.00    +0.192 C 
ATOM     19  C   UNL     1       7.645  -5.257  23.054  0.00  0.00    +0.192 C 
ENDBRANCH  15  16
ENDBRANCH  14  15
ENDBRANCH  13  14
ENDBRANCH   9  13
ENDBRANCH   8   9
ENDBRANCH   7   8
ENDBRANCH   4   7
ENDBRANCH   3   4
ENDBRANCH   2   3
ENDBRANCH   1   2
BRANCH   1  20
ATOM     20  C   UNL     1       9.412  -1.451  24.739  0.00  0.00    +0.028 C 
BRANCH  20  21
ATOM     21  C   UNL     1       9.685  -0.012  25.170  0.00  0.00    +0.002 C 
BRANCH  21  22
ATOM     22  C   UNL     1      10.811   0.624  24.358  0.00  0.00    +0.000 C 
BRANCH  22  23
ATOM     23  C   UNL     1      10.282   1.646  23.366  0.00  0.00    +0.000 C 
BRANCH  23  24
ATOM     24  C   UNL     1      10.040   0.972  22.022  0.00  0.00    +0.000 C 
BRANCH  24  25
ATOM     25  C   UNL     1       8.565   1.020  21.662  0.00  0.00    -0.000 C 
BRANCH  25  26
ATOM     26  C   UNL     1       8.027   2.433  21.824  0.00  0.00    -0.000 C 
BRANCH  26  27
ATOM     27  C   UNL     1       6.660   2.397  22.490  0.00  0.00    -0.000 C 
BRANCH  27  28
ATOM     28  C   UNL     1       6.573   3.445  23.587  0.00  0.00    -0.000 C 
BRANCH  28  29
ATOM     29  C   UNL     1       7.230   2.932  24.859  0.00  0.00    -0.000 C 
BRANCH  29  30
ATOM     30  C   UNL     1       8.202   3.965  25.409  0.00  0.00    -0.000 C 
BRANCH  30  31
ATOM     31  C   UNL     1       8.384   5.108  24.419  0.00  0.00    -0.000 C 
BRANCH  31  32
ATOM     32  C   UNL     1       9.815   5.137  23.895  0.00  0.00    -0.000 C 
BRANCH  32  33
ATOM     33  C   UNL     1      10.567   6.342  24.449  0.00  0.00    -0.000 C 
BRANCH  33  34
ATOM     34  C   UNL     1      12.074   6.141  24.322  0.00  0.00    -0.000 C 
BRANCH  34  36
ATOM     35  C   UNL     1      13.253   5.567  22.182  0.00  0.00    +0.004 C 
ATOM     36  C   UNL     1      12.399   5.038  23.321  0.00  0.00    -0.003 C 
ENDBRANCH  34  36
ENDBRANCH  33  34
ENDBRANCH  32  33
ENDBRANCH  31  32
ENDBRANCH  30  31
ENDBRANCH  29  30
ENDBRANCH  28  29
ENDBRANCH  27  28
ENDBRANCH  26  27
ENDBRANCH  25  26
ENDBRANCH  24  25
ENDBRANCH  23  24
ENDBRANCH  22  23
ENDBRANCH  21  22
ENDBRANCH  20  21
ENDBRANCH   1  20
TORSDOF 28
ENDMDL
MODEL 4
REMARK VINA RESULT:      -4.9      1.491      3.501
REMARK  Name = 
REMARK  32 active torsions:
REMARK  status: ('A' for Active; 'I' for Inactive)
REMARK    1  A    between atoms: C_1  and  C_2
REMARK    2  A    between atoms: C_2  and  C_3
REMARK    3  A    between atoms: C_3  and  C_4
REMARK    4  A    between atoms: C_4  and  C_5
REMARK    5  A    between atoms: C_5  and  C_6
REMARK    6  A    between atoms: C_6  and  C_7
REMARK    7  A    between atoms: C_7  and  C_8
REMARK    8  A    between atoms: C_8  and  C_9
REMARK    9  A    between atoms: C_9  and  C_10
REMARK   10  A    between atoms: C_10  and  C_11
REMARK   11  A    between atoms: C_11  and  C_12
REMARK   12  A    between atoms: C_12  and  C_13
REMARK   13  A    between atoms: C_13  and  C_14
REMARK   14  A    between atoms: C_14  and  C_15
REMARK   15  A    between atoms: C_15  and  C_16
REMARK   16  A    between atoms: C_16  and  C_17
REMARK   17  A    between atoms: C_17  and  C_18
REMARK   18  A    between atoms: C_18  and  O_19
REMARK   19  A    between atoms: O_19  and  C_20
REMARK   20  A    between atoms: C_20  and  C_21
REMARK   21  A    between atoms: C_21  and  O_23
REMARK   22  A    between atoms: C_21  and  C_24
REMARK   23  A    between atoms: C_24  and  O_25
REMARK   24  A    between atoms: O_25  and  P_26
REMARK   25  A    between atoms: P_26  and  O_27
REMARK   26  A    between atoms: P_26  and  O_29
REMARK   27  A    between atoms: O_29  and  C_30
REMARK   28  A    between atoms: C_30  and  C_31
REMARK   29  A    between atoms: C_31  and  N_32
REMARK   30  A    between atoms: N_32  and  C_33
REMARK   31  A    between atoms: N_32  and  C_34
REMARK   32  A    between atoms: N_32  and  C_35
REMARK                            x       y       z     vdW  Elec       q    Type
REMARK                         _______ _______ _______ _____ _____    ______ ____
ROOT
ATOM      1  C   UNL     1       8.669  -2.810  23.020  0.00  0.00    +0.160 C 
ENDROOT
BRANCH   1   2
ATOM      2  O   UNL     1       9.256  -3.772  23.892  0.00  0.00    -0.377 OA
BRANCH   2   3
ATOM      3  C   UNL     1       8.318  -4.831  24.110  0.00  0.00    +0.193 C 
BRANCH   3   4
ATOM      4  C   UNL     1       8.281  -5.162  25.598  0.00  0.00    +0.166 C 
BRANCH   4   5
ATOM      5  O   UNL     1       9.579  -5.580  26.024  0.00  0.00    -0.387 OA
ATOM      6  H   UNL     1       9.725  -5.118  26.877  0.00  0.00    +0.210 HD
ENDBRANCH   4   5
BRANCH   4   7
ATOM      7  C   UNL     1       7.868  -3.933  26.393  0.00  0.00    +0.206 C 
BRANCH   7   8
ATOM      8  O   UNL     1       7.269  -4.337  27.616  0.00  0.00    -0.284 OA
BRANCH   8   9
ATOM      9  P   UNL     1       6.101  -5.594  27.399  0.00  0.00    +0.475 P 
ATOM     10  O   UNL     1       5.026  -4.721  28.050  0.00  0.00    -0.227 OA
BRANCH   9  11
ATOM     11  O   UNL     1       6.808  -6.459  28.583  0.00  0.00    -0.302 OA
ATOM     12  H   UNL     1       7.776  -6.377  28.612  0.00  0.00    +0.222 HD
ENDBRANCH   9  11
BRANCH   9  13
ATOM     13  O   UNL     1       4.933  -6.851  27.182  0.00  0.00    -0.281 OA
BRANCH  13  14
ATOM     14  C   UNL     1       4.573  -7.032  25.815  0.00  0.00    +0.223 C 
BRANCH  14  15
ATOM     15  C   UNL     1       3.296  -6.260  25.479  0.00  0.00    +0.161 C 
BRANCH  15  16
ATOM     16  N   UNL     1       3.414  -5.273  24.297  0.00  0.00    +0.239 N 
ATOM     17  C   UNL     1       4.635  -5.677  23.476  0.00  0.00    +0.192 C 
ATOM     18  C   UNL     1       3.593  -3.840  24.785  0.00  0.00    +0.192 C 
ATOM     19  C   UNL     1       2.184  -5.332  23.389  0.00  0.00    +0.192 C 
ENDBRANCH  15  16
ENDBRANCH  14  15
ENDBRANCH  13  14
ENDBRANCH   9  13
ENDBRANCH   8   9
ENDBRANCH   7   8
ENDBRANCH   4   7
ENDBRANCH   3   4
ENDBRANCH   2   3
ENDBRANCH   1   2
BRANCH   1  20
ATOM     20  C   UNL     1       7.338  -3.325  22.497  0.00  0.00    +0.028 C 
BRANCH  20  21
ATOM     21  C   UNL     1       6.232  -2.283  22.658  0.00  0.00    +0.002 C 
BRANCH  21  22
ATOM     22  C   UNL     1       6.736  -1.019  23.351  0.00  0.00    +0.000 C 
BRANCH  22  23
ATOM     23  C   UNL     1       6.033  -0.786  24.677  0.00  0.00    +0.000 C 
BRANCH  23  24
ATOM     24  C   UNL     1       7.062  -0.423  25.741  0.00  0.00    +0.000 C 
BRANCH  24  25
ATOM     25  C   UNL     1       8.019   0.633  25.215  0.00  0.00    -0.000 C 
BRANCH  25  26
ATOM     26  C   UNL     1       9.455   0.143  25.321  0.00  0.00    -0.000 C 
BRANCH  26  27
ATOM     27  C   UNL     1      10.357   0.981  24.429  0.00  0.00    -0.000 C 
BRANCH  27  28
ATOM     28  C   UNL     1      10.306   0.477  22.995  0.00  0.00    -0.000 C 
BRANCH  28  29
ATOM     29  C   UNL     1       9.926   1.609  22.053  0.00  0.00    -0.000 C 
BRANCH  29  30
ATOM     30  C   UNL     1       8.596   1.313  21.376  0.00  0.00    -0.000 C 
BRANCH  30  31
ATOM     31  C   UNL     1       7.509   2.239  21.907  0.00  0.00    -0.000 C 
BRANCH  31  32
ATOM     32  C   UNL     1       8.111   3.565  22.358  0.00  0.00    -0.000 C 
BRANCH  32  33
ATOM     33  C   UNL     1       7.542   3.983  23.709  0.00  0.00    -0.000 C 
BRANCH  33  34
ATOM     34  C   UNL     1       8.664   4.269  24.702  0.00  0.00    -0.000 C 
BRANCH  34  36
ATOM     35  C   UNL     1       9.417   6.514  23.871  0.00  0.00    +0.004 C 
ATOM     36  C   UNL     1       9.794   5.052  24.042  0.00  0.00    -0.003 C 
ENDBRANCH  34  36
ENDBRANCH  33  34
ENDBRANCH  32  33
ENDBRANCH  31  32
ENDBRANCH  30  31
ENDBRANCH  29  30
ENDBRANCH  28  29
ENDBRANCH  27  28
ENDBRANCH  26  27
ENDBRANCH  25  26
ENDBRANCH  24  25
ENDBRANCH  23  24
ENDBRANCH  22  23
ENDBRANCH  21  22
ENDBRANCH  20  21
ENDBRANCH   1  20
TORSDOF 28
ENDMDL
MODEL 5
REMARK VINA RESULT:      -4.8      1.277      2.688
REMARK  Name = 
REMARK  32 active torsions:
REMARK  status: ('A' for Active; 'I' for Inactive)
REMARK    1  A    between atoms: C_1  and  C_2
REMARK    2  A    between atoms: C_2  and  C_3
REMARK    3  A    between atoms: C_3  and  C_4
REMARK    4  A    between atoms: C_4  and  C_5
REMARK    5  A    between atoms: C_5  and  C_6
REMARK    6  A    between atoms: C_6  and  C_7
REMARK    7  A    between atoms: C_7  and  C_8
REMARK    8  A    between atoms: C_8  and  C_9
REMARK    9  A    between atoms: C_9  and  C_10
REMARK   10  A    between atoms: C_10  and  C_11
REMARK   11  A    between atoms: C_11  and  C_12
REMARK   12  A    between atoms: C_12  and  C_13
REMARK   13  A    between atoms: C_13  and  C_14
REMARK   14  A    between atoms: C_14  and  C_15
REMARK   15  A    between atoms: C_15  and  C_16
REMARK   16  A    between atoms: C_16  and  C_17
REMARK   17  A    between atoms: C_17  and  C_18
REMARK   18  A    between atoms: C_18  and  O_19
REMARK   19  A    between atoms: O_19  and  C_20
REMARK   20  A    between atoms: C_20  and  C_21
REMARK   21  A    between atoms: C_21  and  O_23
REMARK   22  A    between atoms: C_21  and  C_24
REMARK   23  A    between atoms: C_24  and  O_25
REMARK   24  A    between atoms: O_25  and  P_26
REMARK   25  A    between atoms: P_26  and  O_27
REMARK   26  A    between atoms: P_26  and  O_29
REMARK   27  A    between atoms: O_29  and  C_30
REMARK   28  A    between atoms: C_30  and  C_31
REMARK   29  A    between atoms: C_31  and  N_32
REMARK   30  A    between atoms: N_32  and  C_33
REMARK   31  A    between atoms: N_32  and  C_34
REMARK   32  A    between atoms: N_32  and  C_35
REMARK                            x       y       z     vdW  Elec       q    Type
REMARK                         _______ _______ _______ _____ _____    ______ ____
ROOT
ATOM      1  C   UNL     1       9.361  -1.925  24.600  0.00  0.00    +0.160 C 
ENDROOT
BRANCH   1   2
ATOM      2  O   UNL     1       8.696  -2.975  25.297  0.00  0.00    -0.377 OA
BRANCH   2   3
ATOM      3  C   UNL     1       8.787  -4.174  24.520  0.00  0.00    +0.193 C 
BRANCH   3   4
ATOM      4  C   UNL     1       8.510  -5.372  25.423  0.00  0.00    +0.166 C 
BRANCH   4   5
ATOM      5  O   UNL     1       9.732  -6.068  25.678  0.00  0.00    -0.387 OA
ATOM      6  H   UNL     1       9.997  -5.789  26.579  0.00  0.00    +0.210 HD
ENDBRANCH   4   5
BRANCH   4   7
ATOM      7  C   UNL     1       7.921  -4.901  26.744  0.00  0.00    +0.206 C 
BRANCH   7   8
ATOM      8  O   UNL     1       7.422  -6.017  27.467  0.00  0.00    -0.284 OA
BRANCH   8   9
ATOM      9  P   UNL     1       5.717  -5.915  27.747  0.00  0.00    +0.475 P 
ATOM     10  O   UNL     1       5.964  -5.073  29.001  0.00  0.00    -0.227 OA
BRANCH   9  11
ATOM     11  O   UNL     1       5.697  -7.477  28.206  0.00  0.00    -0.302 OA
ATOM     12  H   UNL     1       6.278  -8.053  27.683  0.00  0.00    +0.222 HD
ENDBRANCH   9  11
BRANCH   9  13
ATOM     13  O   UNL     1       4.014  -5.813  28.028  0.00  0.00    -0.281 OA
BRANCH  13  14
ATOM     14  C   UNL     1       3.255  -5.918  26.826  0.00  0.00    +0.223 C 
BRANCH  14  15
ATOM     15  C   UNL     1       4.142  -5.695  25.600  0.00  0.00    +0.161 C 
BRANCH  15  16
ATOM     16  N   UNL     1       3.760  -4.484  24.722  0.00  0.00    +0.239 N 
ATOM     17  C   UNL     1       3.037  -5.016  23.487  0.00  0.00    +0.192 C 
ATOM     18  C   UNL     1       4.993  -3.706  24.280  0.00  0.00    +0.192 C 
ATOM     19  C   UNL     1       2.815  -3.530  25.457  0.00  0.00    +0.192 C 
ENDBRANCH  15  16
ENDBRANCH  14  15
ENDBRANCH  13  14
ENDBRANCH   9  13
ENDBRANCH   8   9
ENDBRANCH   7   8
ENDBRANCH   4   7
ENDBRANCH   3   4
ENDBRANCH   2   3
ENDBRANCH   1   2
BRANCH   1  20
ATOM     20  C   UNL     1       9.434  -2.250  23.117  0.00  0.00    +0.028 C 
BRANCH  20  21
ATOM     21  C   UNL     1       8.536  -1.326  22.296  0.00  0.00    +0.002 C 
BRANCH  21  22
ATOM     22  C   UNL     1       9.346  -0.402  21.389  0.00  0.00    +0.000 C 
BRANCH  22  23
ATOM     23  C   UNL     1       8.954   1.054  21.576  0.00  0.00    +0.000 C 
BRANCH  23  24
ATOM     24  C   UNL     1      10.163   1.849  22.052  0.00  0.00    +0.000 C 
BRANCH  24  25
ATOM     25  C   UNL     1      10.391   1.631  23.537  0.00  0.00    -0.000 C 
BRANCH  25  26
ATOM     26  C   UNL     1       9.597   2.644  24.348  0.00  0.00    -0.000 C 
BRANCH  26  27
ATOM     27  C   UNL     1       8.435   1.956  25.046  0.00  0.00    -0.000 C 
BRANCH  27  28
ATOM     28  C   UNL     1       7.558   2.977  25.753  0.00  0.00    -0.000 C 
BRANCH  28  29
ATOM     29  C   UNL     1       6.130   2.891  25.238  0.00  0.00    -0.000 C 
BRANCH  29  30
ATOM     30  C   UNL     1       6.119   2.588  23.747  0.00  0.00    -0.000 C 
BRANCH  30  31
ATOM     31  C   UNL     1       5.903   3.864  22.945  0.00  0.00    -0.000 C 
BRANCH  31  32
ATOM     32  C   UNL     1       7.115   4.154  22.067  0.00  0.00    -0.000 C 
BRANCH  32  33
ATOM     33  C   UNL     1       7.477   5.634  22.120  0.00  0.00    -0.000 C 
BRANCH  33  34
ATOM     34  C   UNL     1       7.803   6.058  23.549  0.00  0.00    -0.000 C 
BRANCH  34  36
ATOM     35  C   UNL     1       9.664   6.340  25.209  0.00  0.00    +0.004 C 
ATOM     36  C   UNL     1       9.305   6.246  23.736  0.00  0.00    -0.003 C 
ENDBRANCH  34  36
ENDBRANCH  33  34
ENDBRANCH  32  33
ENDBRANCH  31  32
ENDBRANCH  30  31
ENDBRANCH  29  30
ENDBRANCH  28  29
ENDBRANCH  27  28
ENDBRANCH  26  27
ENDBRANCH  25  26
ENDBRANCH  24  25
ENDBRANCH  23  24
ENDBRANCH  22  23
ENDBRANCH  21  22
ENDBRANCH  20  21
ENDBRANCH   1  20
TORSDOF 28
ENDMDL
MODEL 6
REMARK VINA RESULT:      -4.8      1.710      2.592
REMARK  Name = 
REMARK  32 active torsions:
REMARK  status: ('A' for Active; 'I' for Inactive)
REMARK    1  A    between atoms: C_1  and  C_2
REMARK    2  A    between atoms: C_2  and  C_3
REMARK    3  A    between atoms: C_3  and  C_4
REMARK    4  A    between atoms: C_4  and  C_5
REMARK    5  A    between atoms: C_5  and  C_6
REMARK    6  A    between atoms: C_6  and  C_7
REMARK    7  A    between atoms: C_7  and  C_8
REMARK    8  A    between atoms: C_8  and  C_9
REMARK    9  A    between atoms: C_9  and  C_10
REMARK   10  A    between atoms: C_10  and  C_11
REMARK   11  A    between atoms: C_11  and  C_12
REMARK   12  A    between atoms: C_12  and  C_13
REMARK   13  A    between atoms: C_13  and  C_14
REMARK   14  A    between atoms: C_14  and  C_15
REMARK   15  A    between atoms: C_15  and  C_16
REMARK   16  A    between atoms: C_16  and  C_17
REMARK   17  A    between atoms: C_17  and  C_18
REMARK   18  A    between atoms: C_18  and  O_19
REMARK   19  A    between atoms: O_19  and  C_20
REMARK   20  A    between atoms: C_20  and  C_21
REMARK   21  A    between atoms: C_21  and  O_23
REMARK   22  A    between atoms: C_21  and  C_24
REMARK   23  A    between atoms: C_24  and  O_25
REMARK   24  A    between atoms: O_25  and  P_26
REMARK   25  A    between atoms: P_26  and  O_27
REMARK   26  A    between atoms: P_26  and  O_29
REMARK   27  A    between atoms: O_29  and  C_30
REMARK   28  A    between atoms: C_30  and  C_31
REMARK   29  A    between atoms: C_31  and  N_32
REMARK   30  A    between atoms: N_32  and  C_33
REMARK   31  A    between atoms: N_32  and  C_34
REMARK   32  A    between atoms: N_32  and  C_35
REMARK                            x       y       z     vdW  Elec       q    Type
REMARK                         _______ _______ _______ _____ _____    ______ ____
ROOT
ATOM      1  C   UNL     1       8.673  -1.911  25.918  0.00  0.00    +0.160 C 
ENDROOT
BRANCH   1   2
ATOM      2  O   UNL     1       8.628  -3.270  26.343  0.00  0.00    -0.377 OA
BRANCH   2   3
ATOM      3  C   UNL     1       7.260  -3.656  26.513  0.00  0.00    +0.193 C 
BRANCH   3   4
ATOM      4  C   UNL     1       7.179  -5.177  26.587  0.00  0.00    +0.166 C 
BRANCH   4   5
ATOM      5  O   UNL     1       8.347  -5.684  27.236  0.00  0.00    -0.387 OA
ATOM      6  H   UNL     1       9.049  -5.649  26.553  0.00  0.00    +0.210 HD
ENDBRANCH   4   5
BRANCH   4   7
ATOM      7  C   UNL     1       5.950  -5.593  27.380  0.00  0.00    +0.206 C 
BRANCH   7   8
ATOM      8  O   UNL     1       5.422  -6.798  26.844  0.00  0.00    -0.284 OA
BRANCH   8   9
ATOM      9  P   UNL     1       4.331  -6.516  25.531  0.00  0.00    +0.475 P 
ATOM     10  O   UNL     1       3.438  -5.671  26.443  0.00  0.00    -0.227 OA
BRANCH   9  11
ATOM     11  O   UNL     1       3.809  -8.055  25.631  0.00  0.00    -0.302 OA
ATOM     12  H   UNL     1       4.391  -8.701  25.197  0.00  0.00    +0.222 HD
ENDBRANCH   9  11
BRANCH   9  13
ATOM     13  O   UNL     1       3.239  -6.234  24.220  0.00  0.00    -0.281 OA
BRANCH  13  14
ATOM     14  C   UNL     1       3.867  -5.589  23.116  0.00  0.00    +0.223 C 
BRANCH  14  15
ATOM     15  C   UNL     1       5.185  -4.940  23.540  0.00  0.00    +0.161 C 
BRANCH  15  16
ATOM     16  N   UNL     1       6.265  -4.860  22.439  0.00  0.00    +0.239 N 
ATOM     17  C   UNL     1       5.900  -5.872  21.357  0.00  0.00    +0.192 C 
ATOM     18  C   UNL     1       7.646  -5.195  22.989  0.00  0.00    +0.192 C 
ATOM     19  C   UNL     1       6.315  -3.471  21.799  0.00  0.00    +0.192 C 
ENDBRANCH  15  16
ENDBRANCH  14  15
ENDBRANCH  13  14
ENDBRANCH   9  13
ENDBRANCH   8   9
ENDBRANCH   7   8
ENDBRANCH   4   7
ENDBRANCH   3   4
ENDBRANCH   2   3
ENDBRANCH   1   2
BRANCH   1  20
ATOM     20  C   UNL     1       8.566  -1.836  24.404  0.00  0.00    +0.028 C 
BRANCH  20  21
ATOM     21  C   UNL     1       9.833  -2.352  23.726  0.00  0.00    +0.002 C 
BRANCH  21  22
ATOM     22  C   UNL     1      10.237  -1.485  22.536  0.00  0.00    +0.000 C 
BRANCH  22  23
ATOM     23  C   UNL     1       9.028  -0.862  21.858  0.00  0.00    +0.000 C 
BRANCH  23  24
ATOM     24  C   UNL     1       9.290   0.618  21.612  0.00  0.00    +0.000 C 
BRANCH  24  25
ATOM     25  C   UNL     1      10.251   1.167  22.651  0.00  0.00    -0.000 C 
BRANCH  25  26
ATOM     26  C   UNL     1       9.786   2.533  23.132  0.00  0.00    -0.000 C 
BRANCH  26  27
ATOM     27  C   UNL     1       9.351   2.452  24.587  0.00  0.00    -0.000 C 
BRANCH  27  28
ATOM     28  C   UNL     1       8.655   3.737  25.007  0.00  0.00    -0.000 C 
BRANCH  28  29
ATOM     29  C   UNL     1       8.651   4.733  23.858  0.00  0.00    -0.000 C 
BRANCH  29  30
ATOM     30  C   UNL     1       7.341   5.507  23.831  0.00  0.00    -0.000 C 
BRANCH  30  31
ATOM     31  C   UNL     1       6.632   5.309  22.498  0.00  0.00    -0.000 C 
BRANCH  31  32
ATOM     32  C   UNL     1       6.810   3.878  22.006  0.00  0.00    -0.000 C 
BRANCH  32  33
ATOM     33  C   UNL     1       5.606   3.024  22.384  0.00  0.00    -0.000 C 
BRANCH  33  34
ATOM     34  C   UNL     1       6.043   1.794  23.175  0.00  0.00    -0.000 C 
BRANCH  34  36
ATOM     35  C   UNL     1       6.145   0.809  25.481  0.00  0.00    +0.004 C 
ATOM     36  C   UNL     1       5.430   1.793  24.571  0.00  0.00    -0.003 C 
ENDBRANCH  34  36
ENDBRANCH  33  34
ENDBRANCH  32  33
ENDBRANCH  31  32
ENDBRANCH  30  31
ENDBRANCH  29  30
ENDBRANCH  28  29
ENDBRANCH  27  28
ENDBRANCH  26  27
ENDBRANCH  25  26
ENDBRANCH  24  25
ENDBRANCH  23  24
ENDBRANCH  22  23
ENDBRANCH  21  22
ENDBRANCH  20  21
ENDBRANCH   1  20
TORSDOF 28
ENDMDL
MODEL 7
REMARK VINA RESULT:      -4.8      3.548      8.419
REMARK  Name = 
REMARK  32 active torsions:
REMARK  status: ('A' for Active; 'I' for Inactive)
REMARK    1  A    between atoms: C_1  and  C_2
REMARK    2  A    between atoms: C_2  and  C_3
REMARK    3  A    between atoms: C_3  and  C_4
REMARK    4  A    between atoms: C_4  and  C_5
REMARK    5  A    between atoms: C_5  and  C_6
REMARK    6  A    between atoms: C_6  and  C_7
REMARK    7  A    between atoms: C_7  and  C_8
REMARK    8  A    between atoms: C_8  and  C_9
REMARK    9  A    between atoms: C_9  and  C_10
REMARK   10  A    between atoms: C_10  and  C_11
REMARK   11  A    between atoms: C_11  and  C_12
REMARK   12  A    between atoms: C_12  and  C_13
REMARK   13  A    between atoms: C_13  and  C_14
REMARK   14  A    between atoms: C_14  and  C_15
REMARK   15  A    between atoms: C_15  and  C_16
REMARK   16  A    between atoms: C_16  and  C_17
REMARK   17  A    between atoms: C_17  and  C_18
REMARK   18  A    between atoms: C_18  and  O_19
REMARK   19  A    between atoms: O_19  and  C_20
REMARK   20  A    between atoms: C_20  and  C_21
REMARK   21  A    between atoms: C_21  and  O_23
REMARK   22  A    between atoms: C_21  and  C_24
REMARK   23  A    between atoms: C_24  and  O_25
REMARK   24  A    between atoms: O_25  and  P_26
REMARK   25  A    between atoms: P_26  and  O_27
REMARK   26  A    between atoms: P_26  and  O_29
REMARK   27  A    between atoms: O_29  and  C_30
REMARK   28  A    between atoms: C_30  and  C_31
REMARK   29  A    between atoms: C_31  and  N_32
REMARK   30  A    between atoms: N_32  and  C_33
REMARK   31  A    between atoms: N_32  and  C_34
REMARK   32  A    between atoms: N_32  and  C_35
REMARK                            x       y       z     vdW  Elec       q    Type
REMARK                         _______ _______ _______ _____ _____    ______ ____
ROOT
ATOM      1  C   UNL     1       9.647  -4.953  25.514  0.00  0.00    +0.160 C 
ENDROOT
BRANCH   1   2
ATOM      2  O   UNL     1       9.932  -4.179  24.353  0.00  0.00    -0.377 OA
BRANCH   2   3
ATOM      3  C   UNL     1       9.435  -2.851  24.550  0.00  0.00    +0.193 C 
BRANCH   3   4
ATOM      4  C   UNL     1      10.180  -1.899  23.620  0.00  0.00    +0.166 C 
BRANCH   4   5
ATOM      5  O   UNL     1       9.598  -1.957  22.316  0.00  0.00    -0.387 OA
ATOM      6  H   UNL     1       9.508  -1.020  22.039  0.00  0.00    +0.210 HD
ENDBRANCH   4   5
BRANCH   4   7
ATOM      7  C   UNL     1      10.081  -0.476  24.146  0.00  0.00    +0.206 C 
BRANCH   7   8
ATOM      8  O   UNL     1      10.508   0.433  23.142  0.00  0.00    -0.284 OA
BRANCH   8   9
ATOM      9  P   UNL     1       9.377   1.717  22.888  0.00  0.00    +0.475 P 
ATOM     10  O   UNL     1       8.348   0.718  22.355  0.00  0.00    -0.227 OA
BRANCH   9  11
ATOM     11  O   UNL     1      10.251   2.239  21.617  0.00  0.00    -0.302 OA
ATOM     12  H   UNL     1      10.705   3.085  21.767  0.00  0.00    +0.222 HD
ENDBRANCH   9  11
BRANCH   9  13
ATOM     13  O   UNL     1       8.246   3.001  22.632  0.00  0.00    -0.281 OA
BRANCH  13  14
ATOM     14  C   UNL     1       7.009   2.539  22.097  0.00  0.00    +0.223 C 
BRANCH  14  15
ATOM     15  C   UNL     1       5.850   3.425  22.557  0.00  0.00    +0.161 C 
BRANCH  15  16
ATOM     16  N   UNL     1       5.297   3.111  23.964  0.00  0.00    +0.239 N 
ATOM     17  C   UNL     1       3.803   3.421  23.954  0.00  0.00    +0.192 C 
ATOM     18  C   UNL     1       5.976   3.961  25.031  0.00  0.00    +0.192 C 
ATOM     19  C   UNL     1       5.479   1.634  24.324  0.00  0.00    +0.192 C 
ENDBRANCH  15  16
ENDBRANCH  14  15
ENDBRANCH  13  14
ENDBRANCH   9  13
ENDBRANCH   8   9
ENDBRANCH   7   8
ENDBRANCH   4   7
ENDBRANCH   3   4
ENDBRANCH   2   3
ENDBRANCH   1   2
BRANCH   1  20
ATOM     20  C   UNL     1       8.735  -4.175  26.448  0.00  0.00    +0.028 C 
BRANCH  20  21
ATOM     21  C   UNL     1       7.735  -5.092  27.149  0.00  0.00    +0.002 C 
BRANCH  21  22
ATOM     22  C   UNL     1       6.714  -5.674  26.174  0.00  0.00    +0.000 C 
BRANCH  22  23
ATOM     23  C   UNL     1       5.293  -5.513  26.686  0.00  0.00    +0.000 C 
BRANCH  23  24
ATOM     24  C   UNL     1       4.558  -6.842  26.571  0.00  0.00    +0.000 C 
BRANCH  24  25
ATOM     25  C   UNL     1       4.125  -7.087  25.136  0.00  0.00    -0.000 C 
BRANCH  25  26
ATOM     26  C   UNL     1       3.428  -5.856  24.578  0.00  0.00    -0.000 C 
BRANCH  26  27
ATOM     27  C   UNL     1       3.923  -5.573  23.168  0.00  0.00    -0.000 C 
BRANCH  27  28
ATOM     28  C   UNL     1       5.245  -6.280  22.915  0.00  0.00    -0.000 C 
BRANCH  28  29
ATOM     29  C   UNL     1       6.035  -5.552  21.839  0.00  0.00    -0.000 C 
BRANCH  29  30
ATOM     30  C   UNL     1       6.808  -4.389  22.441  0.00  0.00    -0.000 C 
BRANCH  30  31
ATOM     31  C   UNL     1       6.263  -3.063  21.927  0.00  0.00    -0.000 C 
BRANCH  31  32
ATOM     32  C   UNL     1       6.121  -2.064  23.070  0.00  0.00    -0.000 C 
BRANCH  32  33
ATOM     33  C   UNL     1       5.876  -2.787  24.389  0.00  0.00    -0.000 C 
BRANCH  33  34
ATOM     34  C   UNL     1       4.976  -1.956  25.300  0.00  0.00    -0.000 C 
BRANCH  34  36
ATOM     35  C   UNL     1       6.841  -0.971  26.658  0.00  0.00    +0.004 C 
ATOM     36  C   UNL     1       5.581  -1.819  26.692  0.00  0.00    -0.003 C 
ENDBRANCH  34  36
ENDBRANCH  33  34
ENDBRANCH  32  33
ENDBRANCH  31  32
ENDBRANCH  30  31
ENDBRANCH  29  30
ENDBRANCH  28  29
ENDBRANCH  27  28
ENDBRANCH  26  27
ENDBRANCH  25  26
ENDBRANCH  24  25
ENDBRANCH  23  24
ENDBRANCH  22  23
ENDBRANCH  21  22
ENDBRANCH  20  21
ENDBRANCH   1  20
TORSDOF 28
ENDMDL
MODEL 8
REMARK VINA RESULT:      -4.7      2.175      4.149
REMARK  Name = 
REMARK  32 active torsions:
REMARK  status: ('A' for Active; 'I' for Inactive)
REMARK    1  A    between atoms: C_1  and  C_2
REMARK    2  A    between atoms: C_2  and  C_3
REMARK    3  A    between atoms: C_3  and  C_4
REMARK    4  A    between atoms: C_4  and  C_5
REMARK    5  A    between atoms: C_5  and  C_6
REMARK    6  A    between atoms: C_6  and  C_7
REMARK    7  A    between atoms: C_7  and  C_8
REMARK    8  A    between atoms: C_8  and  C_9
REMARK    9  A    between atoms: C_9  and  C_10
REMARK   10  A    between atoms: C_10  and  C_11
REMARK   11  A    between atoms: C_11  and  C_12
REMARK   12  A    between atoms: C_12  and  C_13
REMARK   13  A    between atoms: C_13  and  C_14
REMARK   14  A    between atoms: C_14  and  C_15
REMARK   15  A    between atoms: C_15  and  C_16
REMARK   16  A    between atoms: C_16  and  C_17
REMARK   17  A    between atoms: C_17  and  C_18
REMARK   18  A    between atoms: C_18  and  O_19
REMARK   19  A    between atoms: O_19  and  C_20
REMARK   20  A    between atoms: C_20  and  C_21
REMARK   21  A    between atoms: C_21  and  O_23
REMARK   22  A    between atoms: C_21  and  C_24
REMARK   23  A    between atoms: C_24  and  O_25
REMARK   24  A    between atoms: O_25  and  P_26
REMARK   25  A    between atoms: P_26  and  O_27
REMARK   26  A    between atoms: P_26  and  O_29
REMARK   27  A    between atoms: O_29  and  C_30
REMARK   28  A    between atoms: C_30  and  C_31
REMARK   29  A    between atoms: C_31  and  N_32
REMARK   30  A    between atoms: N_32  and  C_33
REMARK   31  A    between atoms: N_32  and  C_34
REMARK   32  A    between atoms: N_32  and  C_35
REMARK                            x       y       z     vdW  Elec       q    Type
REMARK                         _______ _______ _______ _____ _____    ______ ____
ROOT
ATOM      1  C   UNL     1       7.943  -2.860  26.276  0.00  0.00    +0.160 C 
ENDROOT
BRANCH   1   2
ATOM      2  O   UNL     1       7.400  -4.102  26.714  0.00  0.00    -0.377 OA
BRANCH   2   3
ATOM      3  C   UNL     1       8.249  -5.163  26.261  0.00  0.00    +0.193 C 
BRANCH   3   4
ATOM      4  C   UNL     1       8.904  -4.747  24.947  0.00  0.00    +0.166 C 
BRANCH   4   5
ATOM      5  O   UNL     1      10.250  -5.227  24.915  0.00  0.00    -0.387 OA
ATOM      6  H   UNL     1      10.436  -5.389  23.967  0.00  0.00    +0.210 HD
ENDBRANCH   4   5
BRANCH   4   7
ATOM      7  C   UNL     1       8.137  -5.338  23.775  0.00  0.00    +0.206 C 
BRANCH   7   8
ATOM      8  O   UNL     1       7.624  -4.290  22.965  0.00  0.00    -0.284 OA
BRANCH   8   9
ATOM      9  P   UNL     1       5.898  -4.331  22.845  0.00  0.00    +0.475 P 
ATOM     10  O   UNL     1       5.882  -5.751  23.415  0.00  0.00    -0.227 OA
BRANCH   9  11
ATOM     11  O   UNL     1       6.011  -4.458  21.226  0.00  0.00    -0.302 OA
ATOM     12  H   UNL     1       5.158  -4.409  20.763  0.00  0.00    +0.222 HD
ENDBRANCH   9  11
BRANCH   9  13
ATOM     13  O   UNL     1       4.173  -4.373  22.726  0.00  0.00    -0.281 OA
BRANCH  13  14
ATOM     14  C   UNL     1       3.621  -5.591  23.216  0.00  0.00    +0.223 C 
BRANCH  14  15
ATOM     15  C   UNL     1       2.309  -5.337  23.959  0.00  0.00    +0.161 C 
BRANCH  15  16
ATOM     16  N   UNL     1       2.452  -5.050  25.469  0.00  0.00    +0.239 N 
ATOM     17  C   UNL     1       1.168  -5.514  26.152  0.00  0.00    +0.192 C 
ATOM     18  C   UNL     1       2.649  -3.563  25.737  0.00  0.00    +0.192 C 
ATOM     19  C   UNL     1       3.625  -5.819  26.081  0.00  0.00    +0.192 C 
ENDBRANCH  15  16
ENDBRANCH  14  15
ENDBRANCH  13  14
ENDBRANCH   9  13
ENDBRANCH   8   9
ENDBRANCH   7   8
ENDBRANCH   4   7
ENDBRANCH   3   4
ENDBRANCH   2   3
ENDBRANCH   1   2
BRANCH   1  20
ATOM     20  C   UNL     1       6.824  -1.864  26.020  0.00  0.00    +0.028 C 
BRANCH  20  21
ATOM     21  C   UNL     1       7.262  -0.764  25.056  0.00  0.00    +0.002 C 
BRANCH  21  22
ATOM     22  C   UNL     1       7.212   0.617  25.706  0.00  0.00    +0.000 C 
BRANCH  22  23
ATOM     23  C   UNL     1       8.443   1.441  25.370  0.00  0.00    +0.000 C 
BRANCH  23  24
ATOM     24  C   UNL     1       9.553   0.521  24.879  0.00  0.00    +0.000 C 
BRANCH  24  25
ATOM     25  C   UNL     1      10.245   1.124  23.669  0.00  0.00    -0.000 C 
BRANCH  25  26
ATOM     26  C   UNL     1      10.191   0.161  22.494  0.00  0.00    -0.000 C 
BRANCH  26  27
ATOM     27  C   UNL     1       9.080   0.568  21.538  0.00  0.00    -0.000 C 
BRANCH  27  28
ATOM     28  C   UNL     1       8.650   2.002  21.802  0.00  0.00    -0.000 C 
BRANCH  28  29
ATOM     29  C   UNL     1       7.138   2.079  21.952  0.00  0.00    -0.000 C 
BRANCH  29  30
ATOM     30  C   UNL     1       6.743   3.332  22.717  0.00  0.00    -0.000 C 
BRANCH  30  31
ATOM     31  C   UNL     1       7.775   4.432  22.509  0.00  0.00    -0.000 C 
BRANCH  31  32
ATOM     32  C   UNL     1       8.024   5.184  23.812  0.00  0.00    -0.000 C 
BRANCH  32  33
ATOM     33  C   UNL     1       9.342   4.747  24.442  0.00  0.00    -0.000 C 
BRANCH  33  34
ATOM     34  C   UNL     1      10.516   5.475  23.793  0.00  0.00    -0.000 C 
BRANCH  34  36
ATOM     35  C   UNL     1      12.937   5.169  23.207  0.00  0.00    +0.004 C 
ATOM     36  C   UNL     1      11.584   4.489  23.332  0.00  0.00    -0.003 C 
ENDBRANCH  34  36
ENDBRANCH  33  34
ENDBRANCH  32  33
ENDBRANCH  31  32
ENDBRANCH  30  31
ENDBRANCH  29  30
ENDBRANCH  28  29
ENDBRANCH  27  28
ENDBRANCH  26  27
ENDBRANCH  25  26
ENDBRANCH  24  25
ENDBRANCH  23  24
ENDBRANCH  22  23
ENDBRANCH  21  22
ENDBRANCH  20  21
ENDBRANCH   1  20
TORSDOF 28
ENDMDL
MODEL 9
REMARK VINA RESULT:      -4.7      1.232      1.943
REMARK  Name = 
REMARK  32 active torsions:
REMARK  status: ('A' for Active; 'I' for Inactive)
REMARK    1  A    between atoms: C_1  and  C_2
REMARK    2  A    between atoms: C_2  and  C_3
REMARK    3  A    between atoms: C_3  and  C_4
REMARK    4  A    between atoms: C_4  and  C_5
REMARK    5  A    between atoms: C_5  and  C_6
REMARK    6  A    between atoms: C_6  and  C_7
REMARK    7  A    between atoms: C_7  and  C_8
REMARK    8  A    between atoms: C_8  and  C_9
REMARK    9  A    between atoms: C_9  and  C_10
REMARK   10  A    between atoms: C_10  and  C_11
REMARK   11  A    between atoms: C_11  and  C_12
REMARK   12  A    between atoms: C_12  and  C_13
REMARK   13  A    between atoms: C_13  and  C_14
REMARK   14  A    between atoms: C_14  and  C_15
REMARK   15  A    between atoms: C_15  and  C_16
REMARK   16  A    between atoms: C_16  and  C_17
REMARK   17  A    between atoms: C_17  and  C_18
REMARK   18  A    between atoms: C_18  and  O_19
REMARK   19  A    between atoms: O_19  and  C_20
REMARK   20  A    between atoms: C_20  and  C_21
REMARK   21  A    between atoms: C_21  and  O_23
REMARK   22  A    between atoms: C_21  and  C_24
REMARK   23  A    between atoms: C_24  and  O_25
REMARK   24  A    between atoms: O_25  and  P_26
REMARK   25  A    between atoms: P_26  and  O_27
REMARK   26  A    between atoms: P_26  and  O_29
REMARK   27  A    between atoms: O_29  and  C_30
REMARK   28  A    between atoms: C_30  and  C_31
REMARK   29  A    between atoms: C_31  and  N_32
REMARK   30  A    between atoms: N_32  and  C_33
REMARK   31  A    between atoms: N_32  and  C_34
REMARK   32  A    between atoms: N_32  and  C_35
REMARK                            x       y       z     vdW  Elec       q    Type
REMARK                         _______ _______ _______ _____ _____    ______ ____
ROOT
ATOM      1  C   UNL     1       9.194  -1.619  24.468  0.00  0.00    +0.160 C 
ENDROOT
BRANCH   1   2
ATOM      2  O   UNL     1       8.782  -2.769  25.201  0.00  0.00    -0.377 OA
BRANCH   2   3
ATOM      3  C   UNL     1       8.995  -3.931  24.394  0.00  0.00    +0.193 C 
BRANCH   3   4
ATOM      4  C   UNL     1       9.118  -5.150  25.303  0.00  0.00    +0.166 C 
BRANCH   4   5
ATOM      5  O   UNL     1      10.493  -5.527  25.408  0.00  0.00    -0.387 OA
ATOM      6  H   UNL     1      10.841  -5.000  26.158  0.00  0.00    +0.210 HD
ENDBRANCH   4   5
BRANCH   4   7
ATOM      7  C   UNL     1       8.586  -4.821  26.688  0.00  0.00    +0.206 C 
BRANCH   7   8
ATOM      8  O   UNL     1       7.723  -5.861  27.126  0.00  0.00    -0.284 OA
BRANCH   8   9
ATOM      9  P   UNL     1       6.056  -5.401  27.086  0.00  0.00    +0.475 P 
ATOM     10  O   UNL     1       6.188  -4.767  28.472  0.00  0.00    -0.227 OA
BRANCH   9  11
ATOM     11  O   UNL     1       5.619  -6.955  27.301  0.00  0.00    -0.302 OA
ATOM     12  H   UNL     1       5.035  -7.102  28.064  0.00  0.00    +0.222 HD
ENDBRANCH   9  11
BRANCH   9  13
ATOM     13  O   UNL     1       4.389  -4.941  27.046  0.00  0.00    -0.281 OA
BRANCH  13  14
ATOM     14  C   UNL     1       4.075  -4.126  25.921  0.00  0.00    +0.223 C 
BRANCH  14  15
ATOM     15  C   UNL     1       5.270  -4.020  24.972  0.00  0.00    +0.161 C 
BRANCH  15  16
ATOM     16  N   UNL     1       5.005  -4.485  23.524  0.00  0.00    +0.239 N 
ATOM     17  C   UNL     1       5.893  -5.698  23.257  0.00  0.00    +0.192 C 
ATOM     18  C   UNL     1       5.341  -3.391  22.518  0.00  0.00    +0.192 C 
ATOM     19  C   UNL     1       3.547  -4.905  23.324  0.00  0.00    +0.192 C 
ENDBRANCH  15  16
ENDBRANCH  14  15
ENDBRANCH  13  14
ENDBRANCH   9  13
ENDBRANCH   8   9
ENDBRANCH   7   8
ENDBRANCH   4   7
ENDBRANCH   3   4
ENDBRANCH   2   3
ENDBRANCH   1   2
BRANCH   1  20
ATOM     20  C   UNL     1      10.113  -2.028  23.330  0.00  0.00    +0.028 C 
BRANCH  20  21
ATOM     21  C   UNL     1       9.707  -1.366  22.015  0.00  0.00    +0.002 C 
BRANCH  21  22
ATOM     22  C   UNL     1       9.872   0.151  22.066  0.00  0.00    +0.000 C 
BRANCH  22  23
ATOM     23  C   UNL     1       8.567   0.869  21.770  0.00  0.00    +0.000 C 
BRANCH  23  24
ATOM     24  C   UNL     1       8.742   2.363  22.010  0.00  0.00    +0.000 C 
BRANCH  24  25
ATOM     25  C   UNL     1       9.607   2.605  23.234  0.00  0.00    -0.000 C 
BRANCH  25  26
ATOM     26  C   UNL     1       8.739   2.771  24.472  0.00  0.00    -0.000 C 
BRANCH  26  27
ATOM     27  C   UNL     1       8.713   4.230  24.899  0.00  0.00    -0.000 C 
BRANCH  27  28
ATOM     28  C   UNL     1       9.612   5.064  24.000  0.00  0.00    -0.000 C 
BRANCH  28  29
ATOM     29  C   UNL     1       8.919   6.364  23.622  0.00  0.00    -0.000 C 
BRANCH  29  30
ATOM     30  C   UNL     1       8.041   6.162  22.397  0.00  0.00    -0.000 C 
BRANCH  30  31
ATOM     31  C   UNL     1       6.777   7.006  22.501  0.00  0.00    -0.000 C 
BRANCH  31  32
ATOM     32  C   UNL     1       6.083   6.765  23.836  0.00  0.00    -0.000 C 
BRANCH  32  33
ATOM     33  C   UNL     1       4.966   5.739  23.684  0.00  0.00    -0.000 C 
BRANCH  33  34
ATOM     34  C   UNL     1       5.162   4.581  24.660  0.00  0.00    -0.000 C 
BRANCH  34  36
ATOM     35  C   UNL     1       5.332   3.378  22.464  0.00  0.00    +0.004 C 
ATOM     36  C   UNL     1       5.040   3.238  23.948  0.00  0.00    -0.003 C 
ENDBRANCH  34  36
ENDBRANCH  33  34
ENDBRANCH  32  33
ENDBRANCH  31  32
ENDBRANCH  30  31
ENDBRANCH  29  30
ENDBRANCH  28  29
ENDBRANCH  27  28
ENDBRANCH  26  27
ENDBRANCH  25  26
ENDBRANCH  24  25
ENDBRANCH  23  24
ENDBRANCH  22  23
ENDBRANCH  21  22
ENDBRANCH  20  21
ENDBRANCH   1  20
TORSDOF 28
ENDMDL
