MODEL 1
REMARK VINA RESULT:      -5.2      0.000      0.000
REMARK  Name = 
REMARK  5 active torsions:
REMARK  status: ('A' for Active; 'I' for Inactive)
REMARK    1  A    between atoms: O_1  and  C_2
REMARK    2  A    between atoms: C_5  and  O_6
REMARK    3  A    between atoms: C_5  and  C_13
REMARK    4  A    between atoms: C_10  and  O_12
REMARK    5  A    between atoms: C_13  and  O_14
REMARK                            x       y       z     vdW  Elec       q    Type
REMARK                         _______ _______ _______ _____ _____    ______ ____
ROOT
ATOM      1  C   UNL     1      10.107   1.806  24.072  0.00  0.00    +0.154 C 
ATOM      2  C   UNL     1       9.421   2.352  22.815  0.00  0.00    +0.209 C 
ATOM      3  C   UNL     1       8.357   1.380  22.321  0.00  0.00    +0.167 C 
ATOM      4  O   UNL     1       7.281   1.790  21.883  0.00  0.00    -0.294 OA
ATOM      5  C   UNL     1       8.737  -0.078  22.207  0.00  0.00    +0.123 C 
ATOM      6  C   UNL     1       9.494  -0.559  23.438  0.00  0.00    +0.171 C 
ATOM      7  C   UNL     1      10.624   0.383  23.868  0.00  0.00    +0.081 C 
ENDROOT
BRANCH   1   8
ATOM      8  O   UNL     1       9.189   1.793  25.171  0.00  0.00    -0.389 OA
ATOM      9  H   UNL     1       9.536   2.417  25.839  0.00  0.00    +0.210 HD
ENDBRANCH   1   8
BRANCH   2  10
ATOM     10  O   UNL     1      10.381   2.550  21.783  0.00  0.00    -0.382 OA
ATOM     11  H   UNL     1      11.261   2.468  22.199  0.00  0.00    +0.210 HD
ENDBRANCH   2  10
BRANCH   6  12
ATOM     12  C   UNL     1      10.101  -1.938  23.131  0.00  0.00    +0.337 C 
ATOM     13  O   UNL     1      10.089  -2.894  23.888  0.00  0.00    -0.248 OA
BRANCH  12  14
ATOM     14  O   UNL     1      10.661  -1.973  21.897  0.00  0.00    -0.479 OA
ATOM     15  H   UNL     1      10.601  -2.909  21.578  0.00  0.00    +0.295 HD
ENDBRANCH  12  14
ENDBRANCH   6  12
BRANCH   6  16
ATOM     16  O   UNL     1       8.565  -0.756  24.528  0.00  0.00    -0.377 OA
ATOM     17  H   UNL     1       9.025  -0.484  25.355  0.00  0.00    +0.211 HD
ENDBRANCH   6  16
TORSDOF 5
ENDMDL
MODEL 2
REMARK VINA RESULT:      -4.9      1.519      3.091
REMARK  Name = 
REMARK  5 active torsions:
REMARK  status: ('A' for Active; 'I' for Inactive)
REMARK    1  A    between atoms: O_1  and  C_2
REMARK    2  A    between atoms: C_5  and  O_6
REMARK    3  A    between atoms: C_5  and  C_13
REMARK    4  A    between atoms: C_10  and  O_12
REMARK    5  A    between atoms: C_13  and  O_14
REMARK                            x       y       z     vdW  Elec       q    Type
REMARK                         _______ _______ _______ _____ _____    ______ ____
ROOT
ATOM      1  C   UNL     1       9.123   2.193  22.629  0.00  0.00    +0.154 C 
ATOM      2  C   UNL     1       9.866   2.122  23.967  0.00  0.00    +0.209 C 
ATOM      3  C   UNL     1      10.493   0.748  24.159  0.00  0.00    +0.167 C 
ATOM      4  O   UNL     1      11.612   0.627  24.662  0.00  0.00    -0.294 OA
ATOM      5  C   UNL     1       9.628  -0.462  23.893  0.00  0.00    +0.123 C 
ATOM      6  C   UNL     1       8.839  -0.315  22.599  0.00  0.00    +0.171 C 
ATOM      7  C   UNL     1       8.135   1.040  22.462  0.00  0.00    +0.081 C 
ENDROOT
BRANCH   1   8
ATOM      8  O   UNL     1      10.054   2.141  21.542  0.00  0.00    -0.389 OA
ATOM      9  H   UNL     1      10.753   1.506  21.795  0.00  0.00    +0.210 HD
ENDBRANCH   1   8
BRANCH   2  10
ATOM     10  O   UNL     1       8.964   2.372  25.039  0.00  0.00    -0.382 OA
ATOM     11  H   UNL     1       8.467   1.544  25.185  0.00  0.00    +0.210 HD
ENDBRANCH   2  10
BRANCH   6  12
ATOM     12  C   UNL     1       7.775  -1.424  22.545  0.00  0.00    +0.337 C 
ATOM     13  O   UNL     1       7.983  -2.581  22.224  0.00  0.00    -0.248 OA
BRANCH  12  14
ATOM     14  O   UNL     1       6.553  -0.959  22.906  0.00  0.00    -0.479 OA
ATOM     15  H   UNL     1       6.500  -1.019  23.893  0.00  0.00    +0.295 HD
ENDBRANCH  12  14
ENDBRANCH   6  12
BRANCH   6  16
ATOM     16  O   UNL     1       9.717  -0.538  21.472  0.00  0.00    -0.377 OA
ATOM     17  H   UNL     1      10.149   0.322  21.265  0.00  0.00    +0.211 HD
ENDBRANCH   6  16
TORSDOF 5
ENDMDL
MODEL 3
REMARK VINA RESULT:      -4.9      1.526      3.840
REMARK  Name = 
REMARK  5 active torsions:
REMARK  status: ('A' for Active; 'I' for Inactive)
REMARK    1  A    between atoms: O_1  and  C_2
REMARK    2  A    between atoms: C_5  and  O_6
REMARK    3  A    between atoms: C_5  and  C_13
REMARK    4  A    between atoms: C_10  and  O_12
REMARK    5  A    between atoms: C_13  and  O_14
REMARK                            x       y       z     vdW  Elec       q    Type
REMARK                         _______ _______ _______ _____ _____    ______ ____
ROOT
ATOM      1  C   UNL     1       8.463  -0.104  25.246  0.00  0.00    +0.154 C 
ATOM      2  C   UNL     1       8.426  -1.365  24.376  0.00  0.00    +0.209 C 
ATOM      3  C   UNL     1       9.716  -1.503  23.578  0.00  0.00    +0.167 C 
ATOM      4  O   UNL     1      10.243  -2.605  23.413  0.00  0.00    -0.294 OA
ATOM      5  C   UNL     1      10.217  -0.284  22.839  0.00  0.00    +0.123 C 
ATOM      6  C   UNL     1      10.156   0.965  23.708  0.00  0.00    +0.171 C 
ATOM      7  C   UNL     1       8.816   1.140  24.433  0.00  0.00    +0.081 C 
ENDROOT
BRANCH   1   8
ATOM      8  O   UNL     1       9.438  -0.247  26.286  0.00  0.00    -0.389 OA
ATOM      9  H   UNL     1       9.382   0.556  26.841  0.00  0.00    +0.210 HD
ENDBRANCH   1   8
BRANCH   2  10
ATOM     10  O   UNL     1       7.328  -1.302  23.473  0.00  0.00    -0.382 OA
ATOM     11  H   UNL     1       6.522  -1.216  24.018  0.00  0.00    +0.210 HD
ENDBRANCH   2  10
BRANCH   6  12
ATOM     12  C   UNL     1      10.390   2.195  22.816  0.00  0.00    +0.337 C 
ATOM     13  O   UNL     1      10.932   3.227  23.173  0.00  0.00    -0.248 OA
BRANCH  12  14
ATOM     14  O   UNL     1       9.919   1.996  21.559  0.00  0.00    -0.479 OA
ATOM     15  H   UNL     1       9.553   1.077  21.530  0.00  0.00    +0.295 HD
ENDBRANCH  12  14
ENDBRANCH   6  12
BRANCH   6  16
ATOM     16  O   UNL     1      11.241   0.941  24.663  0.00  0.00    -0.377 OA
ATOM     17  H   UNL     1      11.828   0.190  24.418  0.00  0.00    +0.211 HD
ENDBRANCH   6  16
TORSDOF 5
ENDMDL
MODEL 4
REMARK VINA RESULT:      -4.8      4.431      6.404
REMARK  Name = 
REMARK  5 active torsions:
REMARK  status: ('A' for Active; 'I' for Inactive)
REMARK    1  A    between atoms: O_1  and  C_2
REMARK    2  A    between atoms: C_5  and  O_6
REMARK    3  A    between atoms: C_5  and  C_13
REMARK    4  A    between atoms: C_10  and  O_12
REMARK    5  A    between atoms: C_13  and  O_14
REMARK                            x       y       z     vdW  Elec       q    Type
REMARK                         _______ _______ _______ _____ _____    ______ ____
ROOT
ATOM      1  C   UNL     1       9.358  -4.760  25.587  0.00  0.00    +0.154 C 
ATOM      2  C   UNL     1       8.182  -4.934  26.555  0.00  0.00    +0.209 C 
ATOM      3  C   UNL     1       6.955  -5.452  25.817  0.00  0.00    +0.167 C 
ATOM      4  O   UNL     1       6.216  -6.294  26.332  0.00  0.00    -0.294 OA
ATOM      5  C   UNL     1       6.569  -4.766  24.527  0.00  0.00    +0.123 C 
ATOM      6  C   UNL     1       7.778  -4.532  23.632  0.00  0.00    +0.171 C 
ATOM      7  C   UNL     1       8.976  -3.922  24.369  0.00  0.00    +0.081 C 
ENDROOT
BRANCH   1   8
ATOM      8  O   UNL     1       9.812  -6.037  25.124  0.00  0.00    -0.389 OA
ATOM      9  H   UNL     1      10.444  -5.869  24.398  0.00  0.00    +0.210 HD
ENDBRANCH   1   8
BRANCH   2  10
ATOM     10  O   UNL     1       7.863  -3.688  27.163  0.00  0.00    -0.382 OA
ATOM     11  H   UNL     1       7.441  -3.894  28.019  0.00  0.00    +0.210 HD
ENDBRANCH   2  10
BRANCH   6  12
ATOM     12  C   UNL     1       7.370  -3.580  22.496  0.00  0.00    +0.337 C 
ATOM     13  O   UNL     1       6.337  -3.658  21.853  0.00  0.00    -0.248 OA
BRANCH  12  14
ATOM     14  O   UNL     1       8.307  -2.622  22.288  0.00  0.00    -0.479 OA
ATOM     15  H   UNL     1       8.390  -2.110  23.131  0.00  0.00    +0.295 HD
ENDBRANCH  12  14
ENDBRANCH   6  12
BRANCH   6  16
ATOM     16  O   UNL     1       8.160  -5.777  23.003  0.00  0.00    -0.377 OA
ATOM     17  H   UNL     1       8.847  -5.565  22.331  0.00  0.00    +0.211 HD
ENDBRANCH   6  16
TORSDOF 5
ENDMDL
MODEL 5
REMARK VINA RESULT:      -4.8      1.515      4.041
REMARK  Name = 
REMARK  5 active torsions:
REMARK  status: ('A' for Active; 'I' for Inactive)
REMARK    1  A    between atoms: O_1  and  C_2
REMARK    2  A    between atoms: C_5  and  O_6
REMARK    3  A    between atoms: C_5  and  C_13
REMARK    4  A    between atoms: C_10  and  O_12
REMARK    5  A    between atoms: C_13  and  O_14
REMARK                            x       y       z     vdW  Elec       q    Type
REMARK                         _______ _______ _______ _____ _____    ______ ____
ROOT
ATOM      1  C   UNL     1      10.145  -1.297  22.776  0.00  0.00    +0.154 C 
ATOM      2  C   UNL     1       8.865  -1.823  23.437  0.00  0.00    +0.209 C 
ATOM      3  C   UNL     1       7.661  -0.998  23.003  0.00  0.00    +0.167 C 
ATOM      4  O   UNL     1       6.577  -1.535  22.767  0.00  0.00    -0.294 OA
ATOM      5  C   UNL     1       7.785   0.507  23.057  0.00  0.00    +0.123 C 
ATOM      6  C   UNL     1       9.108   0.984  22.472  0.00  0.00    +0.171 C 
ATOM      7  C   UNL     1      10.322   0.205  22.990  0.00  0.00    +0.081 C 
ENDROOT
BRANCH   1   8
ATOM      8  O   UNL     1      10.112  -1.545  21.366  0.00  0.00    -0.389 OA
ATOM      9  H   UNL     1      10.415  -0.727  20.926  0.00  0.00    +0.210 HD
ENDBRANCH   1   8
BRANCH   2  10
ATOM     10  O   UNL     1       8.985  -1.756  24.853  0.00  0.00    -0.382 OA
ATOM     11  H   UNL     1       9.938  -1.812  25.057  0.00  0.00    +0.210 HD
ENDBRANCH   2  10
BRANCH   6  12
ATOM     12  C   UNL     1       9.294   2.468  22.827  0.00  0.00    +0.337 C 
ATOM     13  O   UNL     1      10.071   2.896  23.664  0.00  0.00    -0.248 OA
BRANCH  12  14
ATOM     14  O   UNL     1       8.483   3.264  22.087  0.00  0.00    -0.479 OA
ATOM     15  H   UNL     1       8.336   4.092  22.608  0.00  0.00    +0.295 HD
ENDBRANCH  12  14
ENDBRANCH   6  12
BRANCH   6  16
ATOM     16  O   UNL     1       9.048   0.915  21.029  0.00  0.00    -0.377 OA
ATOM     17  H   UNL     1       8.599   0.070  20.796  0.00  0.00    +0.211 HD
ENDBRANCH   6  16
TORSDOF 5
ENDMDL
MODEL 6
REMARK VINA RESULT:      -4.7      1.440      4.072
REMARK  Name = 
REMARK  5 active torsions:
REMARK  status: ('A' for Active; 'I' for Inactive)
REMARK    1  A    between atoms: O_1  and  C_2
REMARK    2  A    between atoms: C_5  and  O_6
REMARK    3  A    between atoms: C_5  and  C_13
REMARK    4  A    between atoms: C_10  and  O_12
REMARK    5  A    between atoms: C_13  and  O_14
REMARK                            x       y       z     vdW  Elec       q    Type
REMARK                         _______ _______ _______ _____ _____    ______ ____
ROOT
ATOM      1  C   UNL     1       8.523  -1.587  22.532  0.00  0.00    +0.154 C 
ATOM      2  C   UNL     1       9.067  -2.218  23.819  0.00  0.00    +0.209 C 
ATOM      3  C   UNL     1       9.143  -1.181  24.932  0.00  0.00    +0.167 C 
ATOM      4  O   UNL     1       8.843  -1.475  26.091  0.00  0.00    -0.294 OA
ATOM      5  C   UNL     1       9.775   0.152  24.608  0.00  0.00    +0.123 C 
ATOM      6  C   UNL     1       9.274   0.703  23.280  0.00  0.00    +0.171 C 
ATOM      7  C   UNL     1       9.293  -0.327  22.144  0.00  0.00    +0.081 C 
ENDROOT
BRANCH   1   8
ATOM      8  O   UNL     1       7.145  -1.234  22.698  0.00  0.00    -0.389 OA
ATOM      9  H   UNL     1       6.663  -1.601  21.931  0.00  0.00    +0.210 HD
ENDBRANCH   1   8
BRANCH   2  10
ATOM     10  O   UNL     1      10.368  -2.746  23.590  0.00  0.00    -0.382 OA
ATOM     11  H   UNL     1      10.435  -3.566  24.116  0.00  0.00    +0.210 HD
ENDBRANCH   2  10
BRANCH   6  12
ATOM     12  C   UNL     1      10.165   1.890  22.875  0.00  0.00    +0.337 C 
ATOM     13  O   UNL     1      10.862   2.536  23.638  0.00  0.00    -0.248 OA
BRANCH  12  14
ATOM     14  O   UNL     1      10.089   2.138  21.543  0.00  0.00    -0.479 OA
ATOM     15  H   UNL     1       9.330   1.607  21.193  0.00  0.00    +0.295 HD
ENDBRANCH  12  14
ENDBRANCH   6  12
BRANCH   6  16
ATOM     16  O   UNL     1       7.941   1.235  23.451  0.00  0.00    -0.377 OA
ATOM     17  H   UNL     1       7.334   0.468  23.562  0.00  0.00    +0.211 HD
ENDBRANCH   6  16
TORSDOF 5
ENDMDL
MODEL 7
REMARK VINA RESULT:      -4.7      3.945      5.861
REMARK  Name = 
REMARK  5 active torsions:
REMARK  status: ('A' for Active; 'I' for Inactive)
REMARK    1  A    between atoms: O_1  and  C_2
REMARK    2  A    between atoms: C_5  and  O_6
REMARK    3  A    between atoms: C_5  and  C_13
REMARK    4  A    between atoms: C_10  and  O_12
REMARK    5  A    between atoms: C_13  and  O_14
REMARK                            x       y       z     vdW  Elec       q    Type
REMARK                         _______ _______ _______ _____ _____    ______ ____
ROOT
ATOM      1  C   UNL     1       6.760  -5.028  23.132  0.00  0.00    +0.154 C 
ATOM      2  C   UNL     1       6.966  -3.575  22.691  0.00  0.00    +0.209 C 
ATOM      3  C   UNL     1       8.307  -3.049  23.188  0.00  0.00    +0.167 C 
ATOM      4  O   UNL     1       9.004  -2.323  22.477  0.00  0.00    -0.294 OA
ATOM      5  C   UNL     1       8.660  -3.287  24.638  0.00  0.00    +0.123 C 
ATOM      6  C   UNL     1       8.358  -4.719  25.061  0.00  0.00    +0.171 C 
ATOM      7  C   UNL     1       6.967  -5.203  24.635  0.00  0.00    +0.081 C 
ENDROOT
BRANCH   1   8
ATOM      8  O   UNL     1       7.682  -5.888  22.453  0.00  0.00    -0.389 OA
ATOM      9  H   UNL     1       7.478  -5.828  21.499  0.00  0.00    +0.210 HD
ENDBRANCH   1   8
BRANCH   2  10
ATOM     10  O   UNL     1       5.927  -2.755  23.212  0.00  0.00    -0.382 OA
ATOM     11  H   UNL     1       5.460  -2.372  22.444  0.00  0.00    +0.210 HD
ENDBRANCH   2  10
BRANCH   6  12
ATOM     12  C   UNL     1       8.456  -4.807  26.593  0.00  0.00    +0.337 C 
ATOM     13  O   UNL     1       7.505  -4.846  27.355  0.00  0.00    -0.248 OA
BRANCH  12  14
ATOM     14  O   UNL     1       9.746  -4.840  27.010  0.00  0.00    -0.479 OA
ATOM     15  H   UNL     1       9.731  -5.015  27.984  0.00  0.00    +0.295 HD
ENDBRANCH  12  14
ENDBRANCH   6  12
BRANCH   6  16
ATOM     16  O   UNL     1       9.377  -5.601  24.537  0.00  0.00    -0.377 OA
ATOM     17  H   UNL     1       9.883  -5.951  25.305  0.00  0.00    +0.211 HD
ENDBRANCH   6  16
TORSDOF 5
ENDMDL
MODEL 8
REMARK VINA RESULT:      -4.7      1.193      3.983
REMARK  Name = 
REMARK  5 active torsions:
REMARK  status: ('A' for Active; 'I' for Inactive)
REMARK    1  A    between atoms: O_1  and  C_2
REMARK    2  A    between atoms: C_5  and  O_6
REMARK    3  A    between atoms: C_5  and  C_13
REMARK    4  A    between atoms: C_10  and  O_12
REMARK    5  A    between atoms: C_13  and  O_14
REMARK                            x       y       z     vdW  Elec       q    Type
REMARK                         _______ _______ _______ _____ _____    ______ ____
ROOT
ATOM      1  C   UNL     1      10.273   0.799  24.630  0.00  0.00    +0.154 C 
ATOM      2  C   UNL     1      10.072  -0.657  24.196  0.00  0.00    +0.209 C 
ATOM      3  C   UNL     1       9.912  -0.747  22.683  0.00  0.00    +0.167 C 
ATOM      4  O   UNL     1      10.428  -1.667  22.046  0.00  0.00    -0.294 OA
ATOM      5  C   UNL     1       8.949   0.211  22.021  0.00  0.00    +0.123 C 
ATOM      6  C   UNL     1       9.121   1.631  22.544  0.00  0.00    +0.171 C 
ATOM      7  C   UNL     1       9.186   1.716  24.073  0.00  0.00    +0.081 C 
ENDROOT
BRANCH   1   8
ATOM      8  O   UNL     1      11.541   1.283  24.172  0.00  0.00    -0.389 OA
ATOM      9  H   UNL     1      11.659   0.952  23.259  0.00  0.00    +0.210 HD
ENDBRANCH   1   8
BRANCH   2  10
ATOM     10  O   UNL     1       8.910  -1.195  24.816  0.00  0.00    -0.382 OA
ATOM     11  H   UNL     1       8.302  -0.445  24.970  0.00  0.00    +0.210 HD
ENDBRANCH   2  10
BRANCH   6  12
ATOM     12  C   UNL     1       7.932   2.478  22.060  0.00  0.00    +0.337 C 
ATOM     13  O   UNL     1       6.850   2.035  21.715  0.00  0.00    -0.248 OA
BRANCH  12  14
ATOM     14  O   UNL     1       8.229   3.801  22.063  0.00  0.00    -0.479 OA
ATOM     15  H   UNL     1       8.267   4.092  21.118  0.00  0.00    +0.295 HD
ENDBRANCH  12  14
ENDBRANCH   6  12
BRANCH   6  16
ATOM     16  O   UNL     1      10.305   2.219  21.959  0.00  0.00    -0.377 OA
ATOM     17  H   UNL     1      10.017   2.726  21.166  0.00  0.00    +0.211 HD
ENDBRANCH   6  16
TORSDOF 5
ENDMDL
MODEL 9
REMARK VINA RESULT:      -4.7      1.278      2.432
REMARK  Name = 
REMARK  5 active torsions:
REMARK  status: ('A' for Active; 'I' for Inactive)
REMARK    1  A    between atoms: O_1  and  C_2
REMARK    2  A    between atoms: C_5  and  O_6
REMARK    3  A    between atoms: C_5  and  C_13
REMARK    4  A    between atoms: C_10  and  O_12
REMARK    5  A    between atoms: C_13  and  O_14
REMARK                            x       y       z     vdW  Elec       q    Type
REMARK                         _______ _______ _______ _____ _____    ______ ____
ROOT
ATOM      1  C   UNL     1       8.733   1.356  21.552  0.00  0.00    +0.154 C 
ATOM      2  C   UNL     1       7.680   1.919  22.513  0.00  0.00    +0.209 C 
ATOM      3  C   UNL     1       8.115   1.720  23.959  0.00  0.00    +0.167 C 
ATOM      4  O   UNL     1       7.917   2.595  24.805  0.00  0.00    -0.294 OA
ATOM      5  C   UNL     1       8.616   0.352  24.359  0.00  0.00    +0.123 C 
ATOM      6  C   UNL     1       9.593  -0.210  23.335  0.00  0.00    +0.171 C 
ATOM      7  C   UNL     1       9.099  -0.088  21.888  0.00  0.00    +0.081 C 
ENDROOT
BRANCH   1   8
ATOM      8  O   UNL     1       9.928   2.143  21.609  0.00  0.00    -0.389 OA
ATOM      9  H   UNL     1       9.688   2.995  22.026  0.00  0.00    +0.210 HD
ENDBRANCH   1   8
BRANCH   2  10
ATOM     10  O   UNL     1       6.435   1.262  22.311  0.00  0.00    -0.382 OA
ATOM     11  H   UNL     1       6.571   0.618  21.588  0.00  0.00    +0.210 HD
ENDBRANCH   2  10
BRANCH   6  12
ATOM     12  C   UNL     1       9.825  -1.698  23.645  0.00  0.00    +0.337 C 
ATOM     13  O   UNL     1       9.373  -2.292  24.609  0.00  0.00    -0.248 OA
BRANCH  12  14
ATOM     14  O   UNL     1      10.604  -2.287  22.704  0.00  0.00    -0.479 OA
ATOM     15  H   UNL     1      11.308  -2.791  23.185  0.00  0.00    +0.295 HD
ENDBRANCH  12  14
ENDBRANCH   6  12
BRANCH   6  16
ATOM     16  O   UNL     1      10.875   0.442  23.483  0.00  0.00    -0.377 OA
ATOM     17  H   UNL     1      11.494  -0.217  23.869  0.00  0.00    +0.211 HD
ENDBRANCH   6  16
TORSDOF 5
ENDMDL
