MODEL 1
REMARK VINA RESULT:      -6.5      0.000      0.000
REMARK  Name = 
REMARK  4 active torsions:
REMARK  status: ('A' for Active; 'I' for Inactive)
REMARK    1  A    between atoms: C_2  and  C_3
REMARK    2  A    between atoms: C_3  and  N_4
REMARK    3  A    between atoms: C_13  and  O_14
REMARK    4  A    between atoms: O_14  and  C_15
REMARK                            x       y       z     vdW  Elec       q    Type
REMARK                         _______ _______ _______ _____ _____    ______ ____
ROOT
ATOM      1  C   UNL     1       6.014  -4.543  23.595  0.00  0.00    +0.104 C 
ATOM      2  N   UNL     1       7.444  -4.824  23.434  0.00  0.00    -0.305 N 
ATOM      3  H   UNL     1       7.679  -5.792  23.615  0.00  0.00    +0.149 HD
ATOM      4  C   UNL     1       8.480  -4.068  23.933  0.00  0.00    +0.253 C 
ATOM      5  O   UNL     1       9.417  -4.688  24.443  0.00  0.00    -0.270 OA
ATOM      6  C   UNL     1       8.472  -2.654  23.667  0.00  0.00    +0.096 A 
ATOM      7  S   UNL     1       9.972  -1.914  23.312  0.00  0.00    -0.082 S 
ATOM      8  C   UNL     1       9.222  -0.456  22.814  0.00  0.00    +0.022 A 
ATOM      9  C   UNL     1       9.856   0.641  22.205  0.00  0.00    +0.019 A 
ATOM     10  C   UNL     1       9.089   1.743  21.825  0.00  0.00    +0.047 A 
ATOM     11  C   UNL     1       7.724   1.779  22.081  0.00  0.00    +0.121 A 
ATOM     12  C   UNL     1       7.110   0.691  22.720  0.00  0.00    +0.056 A 
ATOM     13  C   UNL     1       7.852  -0.467  23.077  0.00  0.00    +0.014 A 
ATOM     14  C   UNL     1       7.440  -1.746  23.607  0.00  0.00    +0.055 A 
ATOM     15  N   UNL     1       6.153  -2.042  23.944  0.00  0.00    -0.341 N 
ATOM     16  H   UNL     1       5.522  -1.243  24.008  0.00  0.00    +0.146 HD
ATOM     17  C   UNL     1       5.510  -3.132  23.213  0.00  0.00    +0.125 C 
ENDROOT
BRANCH  11  18
ATOM     18  O   UNL     1       6.877   2.799  21.743  0.00  0.00    -0.495 OA
ATOM     19  C   UNL     1       7.213   4.093  22.229  0.00  0.00    +0.277 C 
ENDBRANCH  11  18
BRANCH   1  20
ATOM     20  C   UNL     1       5.206  -5.576  22.760  0.00  0.00    +0.101 C 
BRANCH  20  21
ATOM     21  N   UNL     1       6.018  -6.397  21.858  0.00  0.00    -0.328 NA
ATOM     22  H   UNL     1       6.458  -5.804  21.154  0.00  0.00    +0.118 HD
ATOM     23  H   UNL     1       6.768  -6.856  22.370  0.00  0.00    +0.118 HD
ENDBRANCH  20  21
ENDBRANCH   1  20
TORSDOF 3
ENDMDL
MODEL 2
REMARK VINA RESULT:      -6.2      1.990      2.568
REMARK  Name = 
REMARK  4 active torsions:
REMARK  status: ('A' for Active; 'I' for Inactive)
REMARK    1  A    between atoms: C_2  and  C_3
REMARK    2  A    between atoms: C_3  and  N_4
REMARK    3  A    between atoms: C_13  and  O_14
REMARK    4  A    between atoms: O_14  and  C_15
REMARK                            x       y       z     vdW  Elec       q    Type
REMARK                         _______ _______ _______ _____ _____    ______ ____
ROOT
ATOM      1  C   UNL     1       4.473  -5.118  24.207  0.00  0.00    +0.104 C 
ATOM      2  N   UNL     1       5.611  -5.838  24.791  0.00  0.00    -0.305 N 
ATOM      3  H   UNL     1       5.334  -6.674  25.290  0.00  0.00    +0.149 HD
ATOM      4  C   UNL     1       6.643  -5.277  25.506  0.00  0.00    +0.253 C 
ATOM      5  O   UNL     1       7.000  -5.880  26.522  0.00  0.00    -0.270 OA
ATOM      6  C   UNL     1       7.330  -4.151  24.930  0.00  0.00    +0.096 A 
ATOM      7  S   UNL     1       9.027  -4.081  25.130  0.00  0.00    -0.082 S 
ATOM      8  C   UNL     1       9.183  -2.797  24.005  0.00  0.00    +0.022 A 
ATOM      9  C   UNL     1      10.387  -2.270  23.506  0.00  0.00    +0.019 A 
ATOM     10  C   UNL     1      10.338  -1.245  22.560  0.00  0.00    +0.047 A 
ATOM     11  C   UNL     1       9.120  -0.720  22.147  0.00  0.00    +0.121 A 
ATOM     12  C   UNL     1       7.927  -1.233  22.679  0.00  0.00    +0.056 A 
ATOM     13  C   UNL     1       7.939  -2.309  23.607  0.00  0.00    +0.014 A 
ATOM     14  C   UNL     1       6.870  -3.091  24.184  0.00  0.00    +0.055 A 
ATOM     15  N   UNL     1       5.549  -2.844  23.957  0.00  0.00    -0.341 N 
ATOM     16  H   UNL     1       5.340  -1.942  23.527  0.00  0.00    +0.146 HD
ATOM     17  C   UNL     1       4.780  -3.901  23.304  0.00  0.00    +0.125 C 
ENDROOT
BRANCH  11  18
ATOM     18  O   UNL     1       8.955   0.274  21.222  0.00  0.00    -0.495 OA
ATOM     19  C   UNL     1       8.817   1.598  21.725  0.00  0.00    +0.277 C 
ENDBRANCH  11  18
BRANCH   1  20
ATOM     20  C   UNL     1       3.624  -6.121  23.376  0.00  0.00    +0.101 C 
BRANCH  20  21
ATOM     21  N   UNL     1       3.680  -7.506  23.852  0.00  0.00    -0.328 NA
ATOM     22  H   UNL     1       3.819  -8.137  23.063  0.00  0.00    +0.118 HD
ATOM     23  H   UNL     1       4.470  -7.636  24.480  0.00  0.00    +0.118 HD
ENDBRANCH  20  21
ENDBRANCH   1  20
TORSDOF 3
ENDMDL
MODEL 3
REMARK VINA RESULT:      -6.1      2.925      6.314
REMARK  Name = 
REMARK  4 active torsions:
REMARK  status: ('A' for Active; 'I' for Inactive)
REMARK    1  A    between atoms: C_2  and  C_3
REMARK    2  A    between atoms: C_3  and  N_4
REMARK    3  A    between atoms: C_13  and  O_14
REMARK    4  A    between atoms: O_14  and  C_15
REMARK                            x       y       z     vdW  Elec       q    Type
REMARK                         _______ _______ _______ _____ _____    ______ ____
ROOT
ATOM      1  C   UNL     1       9.812   0.221  22.716  0.00  0.00    +0.104 C 
ATOM      2  N   UNL     1       9.316   0.446  24.079  0.00  0.00    -0.305 N 
ATOM      3  H   UNL     1       9.633   1.322  24.474  0.00  0.00    +0.149 HD
ATOM      4  C   UNL     1       9.319  -0.471  25.103  0.00  0.00    +0.253 C 
ATOM      5  O   UNL     1       9.665  -0.056  26.213  0.00  0.00    -0.270 OA
ATOM      6  C   UNL     1       8.760  -1.773  24.847  0.00  0.00    +0.096 A 
ATOM      7  S   UNL     1       7.837  -2.491  26.094  0.00  0.00    -0.082 S 
ATOM      8  C   UNL     1       7.264  -3.731  25.060  0.00  0.00    +0.022 A 
ATOM      9  C   UNL     1       6.272  -4.679  25.367  0.00  0.00    +0.019 A 
ATOM     10  C   UNL     1       5.891  -5.604  24.393  0.00  0.00    +0.047 A 
ATOM     11  C   UNL     1       6.511  -5.618  23.150  0.00  0.00    +0.121 A 
ATOM     12  C   UNL     1       7.523  -4.688  22.868  0.00  0.00    +0.056 A 
ATOM     13  C   UNL     1       7.902  -3.702  23.820  0.00  0.00    +0.014 A 
ATOM     14  C   UNL     1       8.796  -2.572  23.727  0.00  0.00    +0.055 A 
ATOM     15  N   UNL     1       9.543  -2.291  22.623  0.00  0.00    -0.341 N 
ATOM     16  H   UNL     1       9.604  -3.041  21.933  0.00  0.00    +0.146 HD
ATOM     17  C   UNL     1       9.285  -1.017  21.955  0.00  0.00    +0.125 C 
ENDROOT
BRANCH  11  18
ATOM     18  O   UNL     1       6.211  -6.469  22.121  0.00  0.00    -0.495 OA
ATOM     19  C   UNL     1       6.131  -5.894  20.822  0.00  0.00    +0.277 C 
ENDBRANCH  11  18
BRANCH   1  20
ATOM     20  C   UNL     1       9.492   1.477  21.857  0.00  0.00    +0.101 C 
BRANCH  20  21
ATOM     21  N   UNL     1      10.506   2.533  21.922  0.00  0.00    -0.328 NA
ATOM     22  H   UNL     1      10.463   3.104  21.078  0.00  0.00    +0.118 HD
ATOM     23  H   UNL     1      10.327   3.152  22.710  0.00  0.00    +0.118 HD
ENDBRANCH  20  21
ENDBRANCH   1  20
TORSDOF 3
ENDMDL
MODEL 4
REMARK VINA RESULT:      -6.1      2.689      3.596
REMARK  Name = 
REMARK  4 active torsions:
REMARK  status: ('A' for Active; 'I' for Inactive)
REMARK    1  A    between atoms: C_2  and  C_3
REMARK    2  A    between atoms: C_3  and  N_4
REMARK    3  A    between atoms: C_13  and  O_14
REMARK    4  A    between atoms: O_14  and  C_15
REMARK                            x       y       z     vdW  Elec       q    Type
REMARK                         _______ _______ _______ _____ _____    ______ ____
ROOT
ATOM      1  C   UNL     1       8.781  -3.652  24.141  0.00  0.00    +0.104 C 
ATOM      2  N   UNL     1       7.403  -3.154  24.216  0.00  0.00    -0.305 N 
ATOM      3  H   UNL     1       6.721  -3.895  24.320  0.00  0.00    +0.149 HD
ATOM      4  C   UNL     1       6.837  -2.212  23.389  0.00  0.00    +0.253 C 
ATOM      5  O   UNL     1       5.691  -2.445  22.994  0.00  0.00    -0.270 OA
ATOM      6  C   UNL     1       7.540  -0.971  23.196  0.00  0.00    +0.096 A 
ATOM      7  S   UNL     1       6.606   0.459  23.126  0.00  0.00    -0.082 S 
ATOM      8  C   UNL     1       7.992   1.461  23.225  0.00  0.00    +0.022 A 
ATOM      9  C   UNL     1       8.000   2.858  23.382  0.00  0.00    +0.019 A 
ATOM     10  C   UNL     1       9.222   3.523  23.484  0.00  0.00    +0.047 A 
ATOM     11  C   UNL     1      10.419   2.823  23.389  0.00  0.00    +0.121 A 
ATOM     12  C   UNL     1      10.397   1.433  23.199  0.00  0.00    +0.056 A 
ATOM     13  C   UNL     1       9.170   0.718  23.139  0.00  0.00    +0.014 A 
ATOM     14  C   UNL     1       8.884  -0.696  23.089  0.00  0.00    +0.055 A 
ATOM     15  N   UNL     1       9.848  -1.657  23.012  0.00  0.00    -0.341 N 
ATOM     16  H   UNL     1      10.782  -1.322  22.775  0.00  0.00    +0.146 HD
ATOM     17  C   UNL     1       9.923  -2.610  24.117  0.00  0.00    +0.125 C 
ENDROOT
BRANCH  11  18
ATOM     18  O   UNL     1      11.670   3.369  23.486  0.00  0.00    -0.495 OA
ATOM     19  C   UNL     1      11.752   4.789  23.431  0.00  0.00    +0.277 C 
ENDBRANCH  11  18
BRANCH   1  20
ATOM     20  C   UNL     1       9.032  -4.603  25.345  0.00  0.00    +0.101 C 
BRANCH  20  21
ATOM     21  N   UNL     1      10.205  -5.469  25.202  0.00  0.00    -0.328 NA
ATOM     22  H   UNL     1      10.586  -5.381  24.260  0.00  0.00    +0.118 HD
ATOM     23  H   UNL     1      10.940  -5.185  25.847  0.00  0.00    +0.118 HD
ENDBRANCH  20  21
ENDBRANCH   1  20
TORSDOF 3
ENDMDL
MODEL 5
REMARK VINA RESULT:      -6.1      3.239      6.536
REMARK  Name = 
REMARK  4 active torsions:
REMARK  status: ('A' for Active; 'I' for Inactive)
REMARK    1  A    between atoms: C_2  and  C_3
REMARK    2  A    between atoms: C_3  and  N_4
REMARK    3  A    between atoms: C_13  and  O_14
REMARK    4  A    between atoms: O_14  and  C_15
REMARK                            x       y       z     vdW  Elec       q    Type
REMARK                         _______ _______ _______ _____ _____    ______ ____
ROOT
ATOM      1  C   UNL     1       8.015   3.852  22.140  0.00  0.00    +0.104 C 
ATOM      2  N   UNL     1       9.024   3.822  23.204  0.00  0.00    -0.305 N 
ATOM      3  H   UNL     1       9.369   4.743  23.446  0.00  0.00    +0.149 HD
ATOM      4  C   UNL     1      10.099   2.968  23.277  0.00  0.00    +0.253 C 
ATOM      5  O   UNL     1      11.176   3.466  23.617  0.00  0.00    -0.270 OA
ATOM      6  C   UNL     1       9.853   1.557  23.129  0.00  0.00    +0.096 A 
ATOM      7  S   UNL     1      10.739   0.495  24.133  0.00  0.00    -0.082 S 
ATOM      8  C   UNL     1       9.771  -0.850  23.694  0.00  0.00    +0.022 A 
ATOM      9  C   UNL     1       9.813  -2.130  24.273  0.00  0.00    +0.019 A 
ATOM     10  C   UNL     1       8.926  -3.108  23.823  0.00  0.00    +0.047 A 
ATOM     11  C   UNL     1       8.040  -2.838  22.788  0.00  0.00    +0.121 A 
ATOM     12  C   UNL     1       8.032  -1.566  22.195  0.00  0.00    +0.056 A 
ATOM     13  C   UNL     1       8.889  -0.532  22.662  0.00  0.00    +0.014 A 
ATOM     14  C   UNL     1       8.975   0.869  22.323  0.00  0.00    +0.055 A 
ATOM     15  N   UNL     1       8.218   1.457  21.354  0.00  0.00    -0.341 N 
ATOM     16  H   UNL     1       7.734   0.816  20.726  0.00  0.00    +0.146 HD
ATOM     17  C   UNL     1       7.313   2.523  21.777  0.00  0.00    +0.125 C 
ENDROOT
BRANCH  11  18
ATOM     18  O   UNL     1       7.122  -3.715  22.276  0.00  0.00    -0.495 OA
ATOM     19  C   UNL     1       5.819  -3.201  22.029  0.00  0.00    +0.277 C 
ENDBRANCH  11  18
BRANCH   1  20
ATOM     20  C   UNL     1       6.914   4.880  22.527  0.00  0.00    +0.101 C 
BRANCH  20  21
ATOM     21  N   UNL     1       6.863   6.067  21.671  0.00  0.00    -0.328 NA
ATOM     22  H   UNL     1       6.330   6.804  22.135  0.00  0.00    +0.118 HD
ATOM     23  H   UNL     1       7.799   6.434  21.511  0.00  0.00    +0.118 HD
ENDBRANCH  20  21
ENDBRANCH   1  20
TORSDOF 3
ENDMDL
MODEL 6
REMARK VINA RESULT:      -5.9      2.755      3.793
REMARK  Name = 
REMARK  4 active torsions:
REMARK  status: ('A' for Active; 'I' for Inactive)
REMARK    1  A    between atoms: C_2  and  C_3
REMARK    2  A    between atoms: C_3  and  N_4
REMARK    3  A    between atoms: C_13  and  O_14
REMARK    4  A    between atoms: O_14  and  C_15
REMARK                            x       y       z     vdW  Elec       q    Type
REMARK                         _______ _______ _______ _____ _____    ______ ____
ROOT
ATOM      1  C   UNL     1       3.431  -5.830  24.427  0.00  0.00    +0.104 C 
ATOM      2  N   UNL     1       4.454  -6.633  25.105  0.00  0.00    -0.305 N 
ATOM      3  H   UNL     1       4.075  -7.460  25.550  0.00  0.00    +0.149 HD
ATOM      4  C   UNL     1       5.439  -6.156  25.937  0.00  0.00    +0.253 C 
ATOM      5  O   UNL     1       5.649  -6.801  26.968  0.00  0.00    -0.270 OA
ATOM      6  C   UNL     1       6.251  -5.065  25.466  0.00  0.00    +0.096 A 
ATOM      7  S   UNL     1       7.919  -5.109  25.841  0.00  0.00    -0.082 S 
ATOM      8  C   UNL     1       8.271  -3.815  24.774  0.00  0.00    +0.022 A 
ATOM      9  C   UNL     1       9.551  -3.357  24.415  0.00  0.00    +0.019 A 
ATOM     10  C   UNL     1       9.665  -2.311  23.498  0.00  0.00    +0.047 A 
ATOM     11  C   UNL     1       8.532  -1.700  22.976  0.00  0.00    +0.121 A 
ATOM     12  C   UNL     1       7.260  -2.145  23.369  0.00  0.00    +0.056 A 
ATOM     13  C   UNL     1       7.108  -3.239  24.263  0.00  0.00    +0.014 A 
ATOM     14  C   UNL     1       5.938  -3.962  24.706  0.00  0.00    +0.055 A 
ATOM     15  N   UNL     1       4.667  -3.625  24.351  0.00  0.00    -0.341 N 
ATOM     16  H   UNL     1       4.559  -2.703  23.927  0.00  0.00    +0.146 HD
ATOM     17  C   UNL     1       3.905  -4.616  23.594  0.00  0.00    +0.125 C 
ENDROOT
BRANCH  11  18
ATOM     18  O   UNL     1       8.527  -0.678  22.066  0.00  0.00    -0.495 OA
ATOM     19  C   UNL     1       9.781  -0.067  21.787  0.00  0.00    +0.277 C 
ENDBRANCH  11  18
BRANCH   1  20
ATOM     20  C   UNL     1       2.612  -6.758  23.486  0.00  0.00    +0.101 C 
BRANCH  20  21
ATOM     21  N   UNL     1       2.724  -8.186  23.793  0.00  0.00    -0.328 NA
ATOM     22  H   UNL     1       3.395  -8.624  23.161  0.00  0.00    +0.118 HD
ATOM     23  H   UNL     1       3.074  -8.323  24.739  0.00  0.00    +0.118 HD
ENDBRANCH  20  21
ENDBRANCH   1  20
TORSDOF 3
ENDMDL
MODEL 7
REMARK VINA RESULT:      -5.9      2.521      2.995
REMARK  Name = 
REMARK  4 active torsions:
REMARK  status: ('A' for Active; 'I' for Inactive)
REMARK    1  A    between atoms: C_2  and  C_3
REMARK    2  A    between atoms: C_3  and  N_4
REMARK    3  A    between atoms: C_13  and  O_14
REMARK    4  A    between atoms: O_14  and  C_15
REMARK                            x       y       z     vdW  Elec       q    Type
REMARK                         _______ _______ _______ _____ _____    ______ ____
ROOT
ATOM      1  C   UNL     1       7.249  -3.006  26.648  0.00  0.00    +0.104 C 
ATOM      2  N   UNL     1       7.512  -3.650  25.357  0.00  0.00    -0.305 N 
ATOM      3  H   UNL     1       7.283  -4.636  25.354  0.00  0.00    +0.149 HD
ATOM      4  C   UNL     1       8.651  -3.510  24.599  0.00  0.00    +0.253 C 
ATOM      5  O   UNL     1       9.108  -4.540  24.096  0.00  0.00    -0.270 OA
ATOM      6  C   UNL     1       9.110  -2.177  24.309  0.00  0.00    +0.096 A 
ATOM      7  S   UNL     1       9.730  -1.882  22.743  0.00  0.00    -0.082 S 
ATOM      8  C   UNL     1       9.751  -0.186  22.988  0.00  0.00    +0.022 A 
ATOM      9  C   UNL     1      10.020   0.792  22.014  0.00  0.00    +0.019 A 
ATOM     10  C   UNL     1       9.960   2.139  22.371  0.00  0.00    +0.047 A 
ATOM     11  C   UNL     1       9.679   2.513  23.680  0.00  0.00    +0.121 A 
ATOM     12  C   UNL     1       9.446   1.526  24.649  0.00  0.00    +0.056 A 
ATOM     13  C   UNL     1       9.452   0.146  24.309  0.00  0.00    +0.014 A 
ATOM     14  C   UNL     1       9.115  -1.032  25.073  0.00  0.00    +0.055 A 
ATOM     15  N   UNL     1       8.770  -1.002  26.391  0.00  0.00    -0.341 N 
ATOM     16  H   UNL     1       8.970  -0.127  26.876  0.00  0.00    +0.146 HD
ATOM     17  C   UNL     1       7.431  -1.473  26.737  0.00  0.00    +0.125 C 
ENDROOT
BRANCH  11  18
ATOM     18  O   UNL     1       9.584   3.800  24.136  0.00  0.00    -0.495 OA
ATOM     19  C   UNL     1       8.404   4.134  24.858  0.00  0.00    +0.277 C 
ENDBRANCH  11  18
BRANCH   1  20
ATOM     20  C   UNL     1       5.793  -3.336  27.082  0.00  0.00    +0.101 C 
BRANCH  20  21
ATOM     21  N   UNL     1       5.679  -4.445  28.033  0.00  0.00    -0.328 NA
ATOM     22  H   UNL     1       6.413  -4.373  28.737  0.00  0.00    +0.118 HD
ATOM     23  H   UNL     1       4.790  -4.403  28.526  0.00  0.00    +0.118 HD
ENDBRANCH  20  21
ENDBRANCH   1  20
TORSDOF 3
ENDMDL
MODEL 8
REMARK VINA RESULT:      -5.9      2.216      2.272
REMARK  Name = 
REMARK  4 active torsions:
REMARK  status: ('A' for Active; 'I' for Inactive)
REMARK    1  A    between atoms: C_2  and  C_3
REMARK    2  A    between atoms: C_3  and  N_4
REMARK    3  A    between atoms: C_13  and  O_14
REMARK    4  A    between atoms: O_14  and  C_15
REMARK                            x       y       z     vdW  Elec       q    Type
REMARK                         _______ _______ _______ _____ _____    ______ ____
ROOT
ATOM      1  C   UNL     1       7.388  -3.691  26.466  0.00  0.00    +0.104 C 
ATOM      2  N   UNL     1       8.172  -4.282  25.377  0.00  0.00    -0.305 N 
ATOM      3  H   UNL     1       8.322  -5.276  25.494  0.00  0.00    +0.149 HD
ATOM      4  C   UNL     1       9.331  -3.770  24.842  0.00  0.00    +0.253 C 
ATOM      5  O   UNL     1      10.237  -4.577  24.617  0.00  0.00    -0.270 OA
ATOM      6  C   UNL     1       9.332  -2.391  24.429  0.00  0.00    +0.096 A 
ATOM      7  S   UNL     1      10.165  -2.004  22.987  0.00  0.00    -0.082 S 
ATOM      8  C   UNL     1       9.511  -0.420  22.944  0.00  0.00    +0.022 A 
ATOM      9  C   UNL     1       9.636   0.504  21.893  0.00  0.00    +0.019 A 
ATOM     10  C   UNL     1       9.007   1.745  22.001  0.00  0.00    +0.047 A 
ATOM     11  C   UNL     1       8.301   2.083  23.148  0.00  0.00    +0.121 A 
ATOM     12  C   UNL     1       8.212   1.164  24.205  0.00  0.00    +0.056 A 
ATOM     13  C   UNL     1       8.800  -0.127  24.108  0.00  0.00    +0.014 A 
ATOM     14  C   UNL     1       8.736  -1.278  24.977  0.00  0.00    +0.055 A 
ATOM     15  N   UNL     1       8.094  -1.280  26.179  0.00  0.00    -0.341 N 
ATOM     16  H   UNL     1       7.839  -0.361  26.540  0.00  0.00    +0.146 HD
ATOM     17  C   UNL     1       6.975  -2.207  26.332  0.00  0.00    +0.125 C 
ENDROOT
BRANCH  11  18
ATOM     18  O   UNL     1       7.639   3.262  23.357  0.00  0.00    -0.495 OA
ATOM     19  C   UNL     1       6.980   3.831  22.231  0.00  0.00    +0.277 C 
ENDBRANCH  11  18
BRANCH   1  20
ATOM     20  C   UNL     1       6.091  -4.527  26.658  0.00  0.00    +0.101 C 
BRANCH  20  21
ATOM     21  N   UNL     1       6.313  -5.968  26.804  0.00  0.00    -0.328 NA
ATOM     22  H   UNL     1       7.129  -6.249  26.259  0.00  0.00    +0.118 HD
ATOM     23  H   UNL     1       6.510  -6.203  27.775  0.00  0.00    +0.118 HD
ENDBRANCH  20  21
ENDBRANCH   1  20
TORSDOF 3
ENDMDL
MODEL 9
REMARK VINA RESULT:      -5.8      1.974      1.993
REMARK  Name = 
REMARK  4 active torsions:
REMARK  status: ('A' for Active; 'I' for Inactive)
REMARK    1  A    between atoms: C_2  and  C_3
REMARK    2  A    between atoms: C_3  and  N_4
REMARK    3  A    between atoms: C_13  and  O_14
REMARK    4  A    between atoms: O_14  and  C_15
REMARK                            x       y       z     vdW  Elec       q    Type
REMARK                         _______ _______ _______ _____ _____    ______ ____
ROOT
ATOM      1  C   UNL     1       5.527  -3.728  24.560  0.00  0.00    +0.104 C 
ATOM      2  N   UNL     1       6.653  -4.277  23.797  0.00  0.00    -0.305 N 
ATOM      3  H   UNL     1       6.525  -5.251  23.553  0.00  0.00    +0.149 HD
ATOM      4  C   UNL     1       7.986  -4.119  24.094  0.00  0.00    +0.253 C 
ATOM      5  O   UNL     1       8.697  -5.122  23.987  0.00  0.00    -0.270 OA
ATOM      6  C   UNL     1       8.472  -2.784  24.328  0.00  0.00    +0.096 A 
ATOM      7  S   UNL     1      10.014  -2.389  23.704  0.00  0.00    -0.082 S 
ATOM      8  C   UNL     1       9.801  -0.719  24.026  0.00  0.00    +0.022 A 
ATOM      9  C   UNL     1      10.653   0.322  23.619  0.00  0.00    +0.019 A 
ATOM     10  C   UNL     1      10.313   1.639  23.932  0.00  0.00    +0.047 A 
ATOM     11  C   UNL     1       9.171   1.918  24.673  0.00  0.00    +0.121 A 
ATOM     12  C   UNL     1       8.347   0.867  25.101  0.00  0.00    +0.056 A 
ATOM     13  C   UNL     1       8.638  -0.482  24.758  0.00  0.00    +0.014 A 
ATOM     14  C   UNL     1       7.894  -1.704  24.954  0.00  0.00    +0.055 A 
ATOM     15  N   UNL     1       6.711  -1.765  25.628  0.00  0.00    -0.341 N 
ATOM     16  H   UNL     1       6.477  -0.939  26.178  0.00  0.00    +0.146 HD
ATOM     17  C   UNL     1       5.542  -2.214  24.875  0.00  0.00    +0.125 C 
ENDROOT
BRANCH  11  18
ATOM     18  O   UNL     1       8.738   3.167  25.026  0.00  0.00    -0.495 OA
ATOM     19  C   UNL     1       9.092   4.235  24.154  0.00  0.00    +0.277 C 
ENDBRANCH  11  18
BRANCH   1  20
ATOM     20  C   UNL     1       4.209  -4.040  23.796  0.00  0.00    +0.101 C 
BRANCH  20  21
ATOM     21  N   UNL     1       4.382  -4.857  22.593  0.00  0.00    -0.328 NA
ATOM     22  H   UNL     1       5.292  -5.319  22.618  0.00  0.00    +0.118 HD
ATOM     23  H   UNL     1       3.678  -5.591  22.554  0.00  0.00    +0.118 HD
ENDBRANCH  20  21
ENDBRANCH   1  20
TORSDOF 3
ENDMDL
