MODEL 1
REMARK VINA RESULT:      -6.6      0.000      0.000
REMARK  Name = 
REMARK  8 active torsions:
REMARK  status: ('A' for Active; 'I' for Inactive)
REMARK    1  A    between atoms: C_1  and  O_2
REMARK    2  A    between atoms: O_2  and  C_3
REMARK    3  A    between atoms: C_5  and  C_6
REMARK    4  A    between atoms: C_6  and  C_7
REMARK    5  A    between atoms: C_17  and  O_18
REMARK    6  A    between atoms: O_18  and  C_19
REMARK    7  A    between atoms: C_20  and  O_21
REMARK    8  A    between atoms: O_21  and  C_22
REMARK                            x       y       z     vdW  Elec       q    Type
REMARK                         _______ _______ _______ _____ _____    ______ ____
ROOT
ATOM      1  C   UNL     1       9.828  -2.929  24.153  0.00  0.00    +0.080 C 
ENDROOT
BRANCH   1   2
ATOM      2  C   UNL     1       9.752  -1.624  23.399  0.00  0.00    +0.060 A 
ATOM      3  C   UNL     1       9.387  -0.451  24.059  0.00  0.00    +0.133 A 
ATOM      4  N   UNL     1       9.307  -0.390  25.439  0.00  0.00    -0.343 N 
ATOM      5  H   UNL     1       8.770  -1.119  25.894  0.00  0.00    +0.144 HD
ATOM      6  H   UNL     1       9.006   0.535  25.740  0.00  0.00    +0.144 HD
ATOM      7  N   UNL     1       9.194   0.715  23.419  0.00  0.00    -0.157 NA
ATOM      8  C   UNL     1       9.398   0.726  22.096  0.00  0.00    +0.371 A 
ATOM      9  N   UNL     1       9.084   1.873  21.406  0.00  0.00    -0.288 N 
ATOM     10  H   UNL     1       8.823   2.616  22.053  0.00  0.00    +0.149 HD
ATOM     11  H   UNL     1       9.681   2.185  20.653  0.00  0.00    +0.149 HD
ATOM     12  N   UNL     1       9.832  -0.332  21.419  0.00  0.00    -0.181 N 
ATOM     13  H   UNL     1       9.963  -0.236  20.419  0.00  0.00    +0.456 HD
ATOM     14  C   UNL     1      10.012  -1.505  22.037  0.00  0.00    +0.317 A 
ENDBRANCH   1   2
BRANCH   1  19
ATOM     15  C   UNL     1       7.062  -5.229  25.427  0.00  0.00    +0.165 A 
ATOM     16  C   UNL     1       6.167  -5.254  24.340  0.00  0.00    +0.204 A 
ATOM     17  C   UNL     1       6.537  -4.603  23.148  0.00  0.00    +0.165 A 
ATOM     18  C   UNL     1       7.749  -3.899  23.069  0.00  0.00    +0.053 A 
ATOM     19  C   UNL     1       8.577  -3.774  24.188  0.00  0.00    -0.036 A 
ATOM     20  C   UNL     1       8.226  -4.448  25.361  0.00  0.00    +0.053 A 
BRANCH  15  22
ATOM     21  C   UNL     1       6.423  -5.227  27.700  0.00  0.00    +0.277 C 
ATOM     22  O   UNL     1       6.779  -5.978  26.541  0.00  0.00    -0.491 OA
ENDBRANCH  15  22
BRANCH  16  23
ATOM     23  O   UNL     1       4.994  -5.967  24.331  0.00  0.00    -0.488 OA
ATOM     24  C   UNL     1       3.832  -5.269  24.782  0.00  0.00    +0.277 C 
ENDBRANCH  16  23
BRANCH  17  25
ATOM     25  O   UNL     1       5.838  -4.624  21.967  0.00  0.00    -0.491 OA
ATOM     26  C   UNL     1       6.258  -5.614  21.034  0.00  0.00    +0.277 C 
ENDBRANCH  17  25
ENDBRANCH   1  19
TORSDOF 5
ENDMDL
MODEL 2
REMARK VINA RESULT:      -6.5      0.714      2.799
REMARK  Name = 
REMARK  8 active torsions:
REMARK  status: ('A' for Active; 'I' for Inactive)
REMARK    1  A    between atoms: C_1  and  O_2
REMARK    2  A    between atoms: O_2  and  C_3
REMARK    3  A    between atoms: C_5  and  C_6
REMARK    4  A    between atoms: C_6  and  C_7
REMARK    5  A    between atoms: C_17  and  O_18
REMARK    6  A    between atoms: O_18  and  C_19
REMARK    7  A    between atoms: C_20  and  O_21
REMARK    8  A    between atoms: O_21  and  C_22
REMARK                            x       y       z     vdW  Elec       q    Type
REMARK                         _______ _______ _______ _____ _____    ______ ____
ROOT
ATOM      1  C   UNL     1       9.607  -2.836  24.171  0.00  0.00    +0.080 C 
ENDROOT
BRANCH   1   2
ATOM      2  C   UNL     1       9.736  -1.531  23.422  0.00  0.00    +0.060 A 
ATOM      3  C   UNL     1       9.697  -0.319  24.110  0.00  0.00    +0.133 A 
ATOM      4  N   UNL     1       9.770  -0.266  25.492  0.00  0.00    -0.343 N 
ATOM      5  H   UNL     1       9.137  -0.873  26.001  0.00  0.00    +0.144 HD
ATOM      6  H   UNL     1       9.704   0.696  25.818  0.00  0.00    +0.144 HD
ATOM      7  N   UNL     1       9.694   0.872  23.489  0.00  0.00    -0.157 NA
ATOM      8  C   UNL     1       9.763   0.862  22.151  0.00  0.00    +0.371 A 
ATOM      9  N   UNL     1       9.633   2.062  21.492  0.00  0.00    -0.288 N 
ATOM     10  H   UNL     1       9.603   2.833  22.159  0.00  0.00    +0.149 HD
ATOM     11  H   UNL     1      10.205   2.253  20.681  0.00  0.00    +0.149 HD
ATOM     12  N   UNL     1       9.892  -0.251  21.439  0.00  0.00    -0.181 N 
ATOM     13  H   UNL     1       9.940  -0.167  20.430  0.00  0.00    +0.456 HD
ATOM     14  C   UNL     1       9.879  -1.446  22.040  0.00  0.00    +0.317 A 
ENDBRANCH   1   2
BRANCH   1  19
ATOM     15  C   UNL     1       6.332  -4.419  23.017  0.00  0.00    +0.165 A 
ATOM     16  C   UNL     1       5.732  -4.790  24.237  0.00  0.00    +0.204 A 
ATOM     17  C   UNL     1       6.359  -4.413  25.439  0.00  0.00    +0.165 A 
ATOM     18  C   UNL     1       7.585  -3.729  25.416  0.00  0.00    +0.053 A 
ATOM     19  C   UNL     1       8.238  -3.471  24.208  0.00  0.00    -0.036 A 
ATOM     20  C   UNL     1       7.598  -3.815  23.014  0.00  0.00    +0.053 A 
BRANCH  15  22
ATOM     21  C   UNL     1       6.209  -5.687  21.030  0.00  0.00    +0.277 C 
ATOM     22  O   UNL     1       5.660  -4.654  21.845  0.00  0.00    -0.491 OA
ENDBRANCH  15  22
BRANCH  16  23
ATOM     23  O   UNL     1       4.510  -5.409  24.330  0.00  0.00    -0.488 OA
ATOM     24  C   UNL     1       4.531  -6.837  24.364  0.00  0.00    +0.277 C 
ENDBRANCH  16  23
BRANCH  17  25
ATOM     25  O   UNL     1       5.856  -4.595  26.703  0.00  0.00    -0.491 OA
ATOM     26  C   UNL     1       6.634  -5.440  27.546  0.00  0.00    +0.277 C 
ENDBRANCH  17  25
ENDBRANCH   1  19
TORSDOF 5
ENDMDL
MODEL 3
REMARK VINA RESULT:      -6.5      1.229      3.253
REMARK  Name = 
REMARK  8 active torsions:
REMARK  status: ('A' for Active; 'I' for Inactive)
REMARK    1  A    between atoms: C_1  and  O_2
REMARK    2  A    between atoms: O_2  and  C_3
REMARK    3  A    between atoms: C_5  and  C_6
REMARK    4  A    between atoms: C_6  and  C_7
REMARK    5  A    between atoms: C_17  and  O_18
REMARK    6  A    between atoms: O_18  and  C_19
REMARK    7  A    between atoms: C_20  and  O_21
REMARK    8  A    between atoms: O_21  and  C_22
REMARK                            x       y       z     vdW  Elec       q    Type
REMARK                         _______ _______ _______ _____ _____    ______ ____
ROOT
ATOM      1  C   UNL     1       9.841  -2.532  23.751  0.00  0.00    +0.080 C 
ENDROOT
BRANCH   1   2
ATOM      2  C   UNL     1       9.895  -1.023  23.758  0.00  0.00    +0.060 A 
ATOM      3  C   UNL     1       9.997  -0.318  22.559  0.00  0.00    +0.133 A 
ATOM      4  N   UNL     1       9.823  -0.939  21.335  0.00  0.00    -0.343 N 
ATOM      5  H   UNL     1      10.353  -1.789  21.180  0.00  0.00    +0.144 HD
ATOM      6  H   UNL     1       9.955  -0.276  20.574  0.00  0.00    +0.144 HD
ATOM      7  N   UNL     1      10.162   1.014  22.510  0.00  0.00    -0.157 NA
ATOM      8  C   UNL     1      10.196   1.668  23.678  0.00  0.00    +0.371 A 
ATOM      9  N   UNL     1      10.491   3.012  23.655  0.00  0.00    -0.288 N 
ATOM     10  H   UNL     1      10.543   3.347  22.693  0.00  0.00    +0.149 HD
ATOM     11  H   UNL     1      10.004   3.643  24.276  0.00  0.00    +0.149 HD
ATOM     12  N   UNL     1      10.017   1.071  24.851  0.00  0.00    -0.181 N 
ATOM     13  H   UNL     1      10.056   1.642  25.687  0.00  0.00    +0.456 HD
ATOM     14  C   UNL     1       9.869  -0.257  24.919  0.00  0.00    +0.317 A 
ENDBRANCH   1   2
BRANCH   1  19
ATOM     15  C   UNL     1       6.519  -4.151  22.797  0.00  0.00    +0.165 A 
ATOM     16  C   UNL     1       5.979  -4.491  24.053  0.00  0.00    +0.204 A 
ATOM     17  C   UNL     1       6.662  -4.081  25.213  0.00  0.00    +0.165 A 
ATOM     18  C   UNL     1       7.883  -3.395  25.114  0.00  0.00    +0.053 A 
ATOM     19  C   UNL     1       8.477  -3.169  23.870  0.00  0.00    -0.036 A 
ATOM     20  C   UNL     1       7.782  -3.546  22.717  0.00  0.00    +0.053 A 
BRANCH  15  22
ATOM     21  C   UNL     1       6.178  -5.601  20.964  0.00  0.00    +0.277 C 
ATOM     22  O   UNL     1       5.793  -4.419  21.664  0.00  0.00    -0.491 OA
ENDBRANCH  15  22
BRANCH  16  23
ATOM     23  O   UNL     1       4.765  -5.110  24.221  0.00  0.00    -0.488 OA
ATOM     24  C   UNL     1       4.796  -6.534  24.326  0.00  0.00    +0.277 C 
ENDBRANCH  16  23
BRANCH  17  25
ATOM     25  O   UNL     1       6.220  -4.230  26.504  0.00  0.00    -0.491 OA
ATOM     26  C   UNL     1       6.945  -5.175  27.285  0.00  0.00    +0.277 C 
ENDBRANCH  17  25
ENDBRANCH   1  19
TORSDOF 5
ENDMDL
MODEL 4
REMARK VINA RESULT:      -6.5      1.481      1.856
REMARK  Name = 
REMARK  8 active torsions:
REMARK  status: ('A' for Active; 'I' for Inactive)
REMARK    1  A    between atoms: C_1  and  O_2
REMARK    2  A    between atoms: O_2  and  C_3
REMARK    3  A    between atoms: C_5  and  C_6
REMARK    4  A    between atoms: C_6  and  C_7
REMARK    5  A    between atoms: C_17  and  O_18
REMARK    6  A    between atoms: O_18  and  C_19
REMARK    7  A    between atoms: C_20  and  O_21
REMARK    8  A    between atoms: O_21  and  C_22
REMARK                            x       y       z     vdW  Elec       q    Type
REMARK                         _______ _______ _______ _____ _____    ______ ____
ROOT
ATOM      1  C   UNL     1      10.183  -1.410  23.018  0.00  0.00    +0.080 C 
ENDROOT
BRANCH   1   2
ATOM      2  C   UNL     1       9.989   0.083  22.904  0.00  0.00    +0.060 A 
ATOM      3  C   UNL     1      10.122   0.897  24.028  0.00  0.00    +0.133 A 
ATOM      4  N   UNL     1      10.651   0.416  25.214  0.00  0.00    -0.343 N 
ATOM      5  H   UNL     1      10.258  -0.448  25.566  0.00  0.00    +0.144 HD
ATOM      6  H   UNL     1      10.651   1.143  25.927  0.00  0.00    +0.144 HD
ATOM      7  N   UNL     1       9.852   2.213  24.011  0.00  0.00    -0.157 NA
ATOM      8  C   UNL     1       9.468   2.741  22.842  0.00  0.00    +0.371 A 
ATOM      9  N   UNL     1       9.065   4.056  22.831  0.00  0.00    -0.288 N 
ATOM     10  H   UNL     1       9.222   4.482  23.744  0.00  0.00    +0.149 HD
ATOM     11  H   UNL     1       9.322   4.654  22.058  0.00  0.00    +0.149 HD
ATOM     12  N   UNL     1       9.406   2.042  21.714  0.00  0.00    -0.181 N 
ATOM     13  H   UNL     1       9.109   2.522  20.872  0.00  0.00    +0.456 HD
ATOM     14  C   UNL     1       9.655   0.727  21.717  0.00  0.00    +0.317 A 
ENDBRANCH   1   2
BRANCH   1  19
ATOM     15  C   UNL     1       7.626  -3.309  25.121  0.00  0.00    +0.165 A 
ATOM     16  C   UNL     1       6.646  -3.649  24.168  0.00  0.00    +0.204 A 
ATOM     17  C   UNL     1       6.890  -3.349  22.815  0.00  0.00    +0.165 A 
ATOM     18  C   UNL     1       8.063  -2.676  22.436  0.00  0.00    +0.053 A 
ATOM     19  C   UNL     1       8.974  -2.231  23.397  0.00  0.00    -0.036 A 
ATOM     20  C   UNL     1       8.748  -2.558  24.737  0.00  0.00    +0.053 A 
BRANCH  15  22
ATOM     21  C   UNL     1       8.129  -4.941  26.752  0.00  0.00    +0.277 C 
ATOM     22  O   UNL     1       7.466  -3.722  26.419  0.00  0.00    -0.491 OA
ENDBRANCH  15  22
BRANCH  16  23
ATOM     23  O   UNL     1       5.506  -4.355  24.462  0.00  0.00    -0.488 OA
ATOM     24  C   UNL     1       4.343  -3.577  24.751  0.00  0.00    +0.277 C 
ENDBRANCH  16  23
BRANCH  17  25
ATOM     25  O   UNL     1       6.098  -3.709  21.753  0.00  0.00    -0.491 OA
ATOM     26  C   UNL     1       6.315  -5.026  21.257  0.00  0.00    +0.277 C 
ENDBRANCH  17  25
ENDBRANCH   1  19
TORSDOF 5
ENDMDL
MODEL 5
REMARK VINA RESULT:      -6.4      1.433      3.195
REMARK  Name = 
REMARK  8 active torsions:
REMARK  status: ('A' for Active; 'I' for Inactive)
REMARK    1  A    between atoms: C_1  and  O_2
REMARK    2  A    between atoms: O_2  and  C_3
REMARK    3  A    between atoms: C_5  and  C_6
REMARK    4  A    between atoms: C_6  and  C_7
REMARK    5  A    between atoms: C_17  and  O_18
REMARK    6  A    between atoms: O_18  and  C_19
REMARK    7  A    between atoms: C_20  and  O_21
REMARK    8  A    between atoms: O_21  and  C_22
REMARK                            x       y       z     vdW  Elec       q    Type
REMARK                         _______ _______ _______ _____ _____    ______ ____
ROOT
ATOM      1  C   UNL     1      10.189  -1.390  22.985  0.00  0.00    +0.080 C 
ENDROOT
BRANCH   1   2
ATOM      2  C   UNL     1       9.975   0.102  22.887  0.00  0.00    +0.060 A 
ATOM      3  C   UNL     1      10.089   0.905  24.021  0.00  0.00    +0.133 A 
ATOM      4  N   UNL     1      10.617   0.418  25.204  0.00  0.00    -0.343 N 
ATOM      5  H   UNL     1      10.233  -0.456  25.545  0.00  0.00    +0.144 HD
ATOM      6  H   UNL     1      10.602   1.136  25.926  0.00  0.00    +0.144 HD
ATOM      7  N   UNL     1       9.801   2.217  24.017  0.00  0.00    -0.157 NA
ATOM      8  C   UNL     1       9.419   2.753  22.851  0.00  0.00    +0.371 A 
ATOM      9  N   UNL     1       8.998   4.063  22.853  0.00  0.00    -0.288 N 
ATOM     10  H   UNL     1       9.142   4.481  23.772  0.00  0.00    +0.149 HD
ATOM     11  H   UNL     1       9.251   4.672  22.088  0.00  0.00    +0.149 HD
ATOM     12  N   UNL     1       9.374   2.066  21.715  0.00  0.00    -0.181 N 
ATOM     13  H   UNL     1       9.075   2.552  20.877  0.00  0.00    +0.456 HD
ATOM     14  C   UNL     1       9.640   0.755  21.704  0.00  0.00    +0.317 A 
ENDBRANCH   1   2
BRANCH   1  19
ATOM     15  C   UNL     1       7.006  -3.473  22.672  0.00  0.00    +0.165 A 
ATOM     16  C   UNL     1       6.811  -3.924  23.992  0.00  0.00    +0.204 A 
ATOM     17  C   UNL     1       7.667  -3.444  25.001  0.00  0.00    +0.165 A 
ATOM     18  C   UNL     1       8.725  -2.577  24.684  0.00  0.00    +0.053 A 
ATOM     19  C   UNL     1       8.990  -2.230  23.356  0.00  0.00    -0.036 A 
ATOM     20  C   UNL     1       8.121  -2.680  22.359  0.00  0.00    +0.053 A 
BRANCH  15  22
ATOM     21  C   UNL     1       6.296  -5.102  21.117  0.00  0.00    +0.277 C 
ATOM     22  O   UNL     1       6.094  -3.819  21.707  0.00  0.00    -0.491 OA
ENDBRANCH  15  22
BRANCH  16  23
ATOM     23  O   UNL     1       5.766  -4.725  24.380  0.00  0.00    -0.488 OA
ATOM     24  C   UNL     1       4.548  -4.053  24.706  0.00  0.00    +0.277 C 
ENDBRANCH  16  23
BRANCH  17  25
ATOM     25  O   UNL     1       7.547  -3.692  26.346  0.00  0.00    -0.491 OA
ATOM     26  C   UNL     1       8.234  -4.851  26.809  0.00  0.00    +0.277 C 
ENDBRANCH  17  25
ENDBRANCH   1  19
TORSDOF 5
ENDMDL
MODEL 6
REMARK VINA RESULT:      -6.1      4.233      6.291
REMARK  Name = 
REMARK  8 active torsions:
REMARK  status: ('A' for Active; 'I' for Inactive)
REMARK    1  A    between atoms: C_1  and  O_2
REMARK    2  A    between atoms: O_2  and  C_3
REMARK    3  A    between atoms: C_5  and  C_6
REMARK    4  A    between atoms: C_6  and  C_7
REMARK    5  A    between atoms: C_17  and  O_18
REMARK    6  A    between atoms: O_18  and  C_19
REMARK    7  A    between atoms: C_20  and  O_21
REMARK    8  A    between atoms: O_21  and  C_22
REMARK                            x       y       z     vdW  Elec       q    Type
REMARK                         _______ _______ _______ _____ _____    ______ ____
ROOT
ATOM      1  C   UNL     1       8.814  -4.563  24.758  0.00  0.00    +0.080 C 
ENDROOT
BRANCH   1   2
ATOM      2  C   UNL     1       7.411  -5.076  24.974  0.00  0.00    +0.060 A 
ATOM      3  C   UNL     1       7.078  -5.737  26.156  0.00  0.00    +0.133 A 
ATOM      4  N   UNL     1       7.930  -5.746  27.247  0.00  0.00    -0.343 N 
ATOM      5  H   UNL     1       8.893  -6.008  27.066  0.00  0.00    +0.144 HD
ATOM      6  H   UNL     1       7.533  -6.293  28.007  0.00  0.00    +0.144 HD
ATOM      7  N   UNL     1       5.881  -6.313  26.357  0.00  0.00    -0.157 NA
ATOM      8  C   UNL     1       4.979  -6.204  25.372  0.00  0.00    +0.371 A 
ATOM      9  N   UNL     1       3.796  -6.893  25.505  0.00  0.00    -0.288 N 
ATOM     10  H   UNL     1       3.739  -7.325  26.427  0.00  0.00    +0.149 HD
ATOM     11  H   UNL     1       2.931  -6.466  25.205  0.00  0.00    +0.149 HD
ATOM     12  N   UNL     1       5.199  -5.514  24.259  0.00  0.00    -0.181 N 
ATOM     13  H   UNL     1       4.460  -5.481  23.566  0.00  0.00    +0.456 HD
ATOM     14  C   UNL     1       6.391  -4.950  24.035  0.00  0.00    +0.317 A 
ENDBRANCH   1   2
BRANCH   1  19
ATOM     15  C   UNL     1       8.778  -0.961  26.019  0.00  0.00    +0.165 A 
ATOM     16  C   UNL     1       9.488  -0.282  25.009  0.00  0.00    +0.204 A 
ATOM     17  C   UNL     1       9.876  -0.998  23.861  0.00  0.00    +0.165 A 
ATOM     18  C   UNL     1       9.606  -2.371  23.754  0.00  0.00    +0.053 A 
ATOM     19  C   UNL     1       9.011  -3.067  24.810  0.00  0.00    -0.036 A 
ATOM     20  C   UNL     1       8.596  -2.350  25.936  0.00  0.00    +0.053 A 
BRANCH  15  22
ATOM     21  C   UNL     1       6.850  -0.269  27.192  0.00  0.00    +0.277 C 
ATOM     22  O   UNL     1       8.271  -0.246  27.074  0.00  0.00    -0.491 OA
ENDBRANCH  15  22
BRANCH  16  23
ATOM     23  O   UNL     1       9.736   1.068  25.025  0.00  0.00    -0.488 OA
ATOM     24  C   UNL     1       8.681   1.905  24.546  0.00  0.00    +0.277 C 
ENDBRANCH  16  23
BRANCH  17  25
ATOM     25  O   UNL     1      10.470  -0.468  22.742  0.00  0.00    -0.491 OA
ATOM     26  C   UNL     1       9.613  -0.322  21.615  0.00  0.00    +0.277 C 
ENDBRANCH  17  25
ENDBRANCH   1  19
TORSDOF 5
ENDMDL
MODEL 7
REMARK VINA RESULT:      -5.9      1.697      2.160
REMARK  Name = 
REMARK  8 active torsions:
REMARK  status: ('A' for Active; 'I' for Inactive)
REMARK    1  A    between atoms: C_1  and  O_2
REMARK    2  A    between atoms: O_2  and  C_3
REMARK    3  A    between atoms: C_5  and  C_6
REMARK    4  A    between atoms: C_6  and  C_7
REMARK    5  A    between atoms: C_17  and  O_18
REMARK    6  A    between atoms: O_18  and  C_19
REMARK    7  A    between atoms: C_20  and  O_21
REMARK    8  A    between atoms: O_21  and  C_22
REMARK                            x       y       z     vdW  Elec       q    Type
REMARK                         _______ _______ _______ _____ _____    ______ ____
ROOT
ATOM      1  C   UNL     1       7.663  -3.252  25.720  0.00  0.00    +0.080 C 
ENDROOT
BRANCH   1   2
ATOM      2  C   UNL     1       8.292  -2.515  24.562  0.00  0.00    +0.060 A 
ATOM      3  C   UNL     1       7.584  -1.517  23.896  0.00  0.00    +0.133 A 
ATOM      4  N   UNL     1       6.397  -1.011  24.398  0.00  0.00    -0.343 N 
ATOM      5  H   UNL     1       5.694  -1.689  24.668  0.00  0.00    +0.144 HD
ATOM      6  H   UNL     1       6.013  -0.308  23.770  0.00  0.00    +0.144 HD
ATOM      7  N   UNL     1       8.047  -0.907  22.793  0.00  0.00    -0.157 NA
ATOM      8  C   UNL     1       9.259  -1.275  22.356  0.00  0.00    +0.371 A 
ATOM      9  N   UNL     1       9.696  -0.756  21.159  0.00  0.00    -0.288 N 
ATOM     10  H   UNL     1       9.040  -0.055  20.816  0.00  0.00    +0.149 HD
ATOM     11  H   UNL     1      10.665  -0.490  21.052  0.00  0.00    +0.149 HD
ATOM     12  N   UNL     1      10.024  -2.155  22.992  0.00  0.00    -0.181 N 
ATOM     13  H   UNL     1      10.929  -2.374  22.593  0.00  0.00    +0.456 HD
ATOM     14  C   UNL     1       9.570  -2.784  24.082  0.00  0.00    +0.317 A 
ENDBRANCH   1   2
BRANCH   1  19
ATOM     15  C   UNL     1       5.426  -6.318  26.127  0.00  0.00    +0.165 A 
ATOM     16  C   UNL     1       5.004  -6.559  24.805  0.00  0.00    +0.204 A 
ATOM     17  C   UNL     1       5.551  -5.778  23.769  0.00  0.00    +0.165 A 
ATOM     18  C   UNL     1       6.457  -4.746  24.061  0.00  0.00    +0.053 A 
ATOM     19  C   UNL     1       6.778  -4.429  25.383  0.00  0.00    -0.036 A 
ATOM     20  C   UNL     1       6.261  -5.226  26.408  0.00  0.00    +0.053 A 
BRANCH  15  22
ATOM     21  C   UNL     1       5.303  -6.724  28.449  0.00  0.00    +0.277 C 
ATOM     22  O   UNL     1       5.011  -7.163  27.124  0.00  0.00    -0.491 OA
ENDBRANCH  15  22
BRANCH  16  23
ATOM     23  O   UNL     1       4.167  -7.586  24.445  0.00  0.00    -0.488 OA
ATOM     24  C   UNL     1       2.771  -7.280  24.425  0.00  0.00    +0.277 C 
ENDBRANCH  16  23
BRANCH  17  25
ATOM     25  O   UNL     1       5.335  -5.954  22.425  0.00  0.00    -0.491 OA
ATOM     26  C   UNL     1       6.374  -5.473  21.579  0.00  0.00    +0.277 C 
ENDBRANCH  17  25
ENDBRANCH   1  19
TORSDOF 5
ENDMDL
MODEL 8
REMARK VINA RESULT:      -5.9      2.086      2.920
REMARK  Name = 
REMARK  8 active torsions:
REMARK  status: ('A' for Active; 'I' for Inactive)
REMARK    1  A    between atoms: C_1  and  O_2
REMARK    2  A    between atoms: O_2  and  C_3
REMARK    3  A    between atoms: C_5  and  C_6
REMARK    4  A    between atoms: C_6  and  C_7
REMARK    5  A    between atoms: C_17  and  O_18
REMARK    6  A    between atoms: O_18  and  C_19
REMARK    7  A    between atoms: C_20  and  O_21
REMARK    8  A    between atoms: O_21  and  C_22
REMARK                            x       y       z     vdW  Elec       q    Type
REMARK                         _______ _______ _______ _____ _____    ______ ____
ROOT
ATOM      1  C   UNL     1      10.226  -0.981  22.785  0.00  0.00    +0.080 C 
ENDROOT
BRANCH   1   2
ATOM      2  C   UNL     1      10.024   0.515  22.832  0.00  0.00    +0.060 A 
ATOM      3  C   UNL     1      10.207   1.211  24.026  0.00  0.00    +0.133 A 
ATOM      4  N   UNL     1      10.792   0.616  25.131  0.00  0.00    -0.343 N 
ATOM      5  H   UNL     1      10.416  -0.282  25.412  0.00  0.00    +0.144 HD
ATOM      6  H   UNL     1      10.823   1.267  25.913  0.00  0.00    +0.144 HD
ATOM      7  N   UNL     1       9.934   2.520  24.155  0.00  0.00    -0.157 NA
ATOM      8  C   UNL     1       9.496   3.162  23.064  0.00  0.00    +0.371 A 
ATOM      9  N   UNL     1       9.090   4.468  23.206  0.00  0.00    -0.288 N 
ATOM     10  H   UNL     1       9.288   4.801  24.149  0.00  0.00    +0.149 HD
ATOM     11  H   UNL     1       9.310   5.143  22.486  0.00  0.00    +0.149 HD
ATOM     12  N   UNL     1       9.383   2.580  21.875  0.00  0.00    -0.181 N 
ATOM     13  H   UNL     1       9.046   3.141  21.101  0.00  0.00    +0.456 HD
ATOM     14  C   UNL     1       9.635   1.274  21.733  0.00  0.00    +0.317 A 
ENDBRANCH   1   2
BRANCH   1  19
ATOM     15  C   UNL     1       8.534  -3.912  24.550  0.00  0.00    +0.165 A 
ATOM     16  C   UNL     1       7.237  -3.414  24.780  0.00  0.00    +0.204 A 
ATOM     17  C   UNL     1       6.893  -2.157  24.250  0.00  0.00    +0.165 A 
ATOM     18  C   UNL     1       7.844  -1.395  23.554  0.00  0.00    +0.053 A 
ATOM     19  C   UNL     1       9.164  -1.837  23.433  0.00  0.00    -0.036 A 
ATOM     20  C   UNL     1       9.497  -3.100  23.931  0.00  0.00    +0.053 A 
BRANCH  15  22
ATOM     21  C   UNL     1       9.881  -5.303  25.901  0.00  0.00    +0.277 C 
ATOM     22  O   UNL     1       8.836  -5.193  24.936  0.00  0.00    -0.491 OA
ENDBRANCH  15  22
BRANCH  16  23
ATOM     23  O   UNL     1       6.244  -4.129  25.404  0.00  0.00    -0.488 OA
ATOM     24  C   UNL     1       5.466  -4.985  24.565  0.00  0.00    +0.277 C 
ENDBRANCH  16  23
BRANCH  17  25
ATOM     25  O   UNL     1       5.648  -1.579  24.286  0.00  0.00    -0.491 OA
ATOM     26  C   UNL     1       5.452  -0.631  25.330  0.00  0.00    +0.277 C 
ENDBRANCH  17  25
ENDBRANCH   1  19
TORSDOF 5
ENDMDL
MODEL 9
REMARK VINA RESULT:      -5.8      2.066      2.414
REMARK  Name = 
REMARK  8 active torsions:
REMARK  status: ('A' for Active; 'I' for Inactive)
REMARK    1  A    between atoms: C_1  and  O_2
REMARK    2  A    between atoms: O_2  and  C_3
REMARK    3  A    between atoms: C_5  and  C_6
REMARK    4  A    between atoms: C_6  and  C_7
REMARK    5  A    between atoms: C_17  and  O_18
REMARK    6  A    between atoms: O_18  and  C_19
REMARK    7  A    between atoms: C_20  and  O_21
REMARK    8  A    between atoms: O_21  and  C_22
REMARK                            x       y       z     vdW  Elec       q    Type
REMARK                         _______ _______ _______ _____ _____    ______ ____
ROOT
ATOM      1  C   UNL     1       7.660  -2.064  24.653  0.00  0.00    +0.080 C 
ENDROOT
BRANCH   1   2
ATOM      2  C   UNL     1       8.153  -1.007  23.694  0.00  0.00    +0.060 A 
ATOM      3  C   UNL     1       9.455  -1.062  23.196  0.00  0.00    +0.133 A 
ATOM      4  N   UNL     1      10.252  -2.181  23.370  0.00  0.00    -0.343 N 
ATOM      5  H   UNL     1      10.321  -2.544  24.314  0.00  0.00    +0.144 HD
ATOM      6  H   UNL     1      11.172  -2.032  22.961  0.00  0.00    +0.144 HD
ATOM      7  N   UNL     1       9.984  -0.093  22.431  0.00  0.00    -0.157 NA
ATOM      8  C   UNL     1       9.192   0.944  22.126  0.00  0.00    +0.371 A 
ATOM      9  N   UNL     1       9.752   2.004  21.452  0.00  0.00    -0.288 N 
ATOM     10  H   UNL     1      10.711   1.787  21.184  0.00  0.00    +0.149 HD
ATOM     11  H   UNL     1       9.226   2.471  20.727  0.00  0.00    +0.149 HD
ATOM     12  N   UNL     1       7.917   1.017  22.492  0.00  0.00    -0.181 N 
ATOM     13  H   UNL     1       7.389   1.836  22.216  0.00  0.00    +0.456 HD
ATOM     14  C   UNL     1       7.380   0.069  23.269  0.00  0.00    +0.317 A 
ENDBRANCH   1   2
BRANCH   1  19
ATOM     15  C   UNL     1       4.152  -3.563  24.540  0.00  0.00    +0.165 A 
ATOM     16  C   UNL     1       4.182  -4.306  23.344  0.00  0.00    +0.204 A 
ATOM     17  C   UNL     1       5.397  -4.401  22.639  0.00  0.00    +0.165 A 
ATOM     18  C   UNL     1       6.538  -3.723  23.095  0.00  0.00    +0.053 A 
ATOM     19  C   UNL     1       6.473  -2.887  24.214  0.00  0.00    -0.036 A 
ATOM     20  C   UNL     1       5.276  -2.820  24.932  0.00  0.00    +0.053 A 
BRANCH  15  22
ATOM     21  C   UNL     1       3.147  -4.243  26.565  0.00  0.00    +0.277 C 
ATOM     22  O   UNL     1       3.016  -3.581  25.308  0.00  0.00    -0.491 OA
ENDBRANCH  15  22
BRANCH  16  23
ATOM     23  O   UNL     1       3.121  -5.038  22.872  0.00  0.00    -0.488 OA
ATOM     24  C   UNL     1       2.996  -6.365  23.386  0.00  0.00    +0.277 C 
ENDBRANCH  16  23
BRANCH  17  25
ATOM     25  O   UNL     1       5.626  -5.171  21.526  0.00  0.00    -0.491 OA
ATOM     26  C   UNL     1       6.759  -6.029  21.608  0.00  0.00    +0.277 C 
ENDBRANCH  17  25
ENDBRANCH   1  19
TORSDOF 5
ENDMDL
