MODEL 1
REMARK VINA RESULT:      -5.5      0.000      0.000
REMARK  Name = 
REMARK  15 active torsions:
REMARK  status: ('A' for Active; 'I' for Inactive)
REMARK    1  A    between atoms: C_1  and  O_2
REMARK    2  A    between atoms: O_2  and  C_3
REMARK    3  A    between atoms: C_3  and  C_5
REMARK    4  A    between atoms: C_3  and  C_12
REMARK    5  A    between atoms: C_5  and  C_6
REMARK    6  A    between atoms: C_12  and  C_14
REMARK    7  A    between atoms: C_12  and  C_15
REMARK    8  A    between atoms: C_16  and  C_17
REMARK    9  A    between atoms: C_16  and  C_18
REMARK   10  A    between atoms: C_19  and  C_20
REMARK   11  A    between atoms: C_20  and  N_22
REMARK   12  A    between atoms: C_20  and  C_23
REMARK   13  A    between atoms: C_23  and  C_25
REMARK   14  A    between atoms: C_23  and  C_26
REMARK   15  A    between atoms: C_26  and  O_27
REMARK                            x       y       z     vdW  Elec       q    Type
REMARK                         _______ _______ _______ _____ _____    ______ ____
ROOT
ATOM      1  C   UNL     1       9.022  -3.234  24.287  0.00  0.00    -0.018 C 
ATOM      2  C   UNL     1       8.620  -2.680  23.124  0.00  0.00    -0.054 C 
ATOM      3  C   UNL     1       7.353  -3.047  22.391  0.00  0.00    +0.043 C 
ENDROOT
BRANCH   1   4
ATOM      4  C   UNL     1       8.337  -4.335  25.065  0.00  0.00    +0.038 C 
ATOM      5  C   UNL     1       9.306  -5.517  25.224  0.00  0.00    +0.014 C 
BRANCH   4   6
ATOM      6  C   UNL     1       7.793  -3.846  26.441  0.00  0.00    +0.129 C 
BRANCH   6   8
ATOM      7  C   UNL     1       6.425  -5.524  27.549  0.00  0.00    +0.194 C 
ATOM      8  O   UNL     1       7.703  -4.923  27.393  0.00  0.00    -0.379 OA
ENDBRANCH   6   8
BRANCH   6   9
ATOM      9  C   UNL     1       6.452  -3.076  26.306  0.00  0.00    +0.067 C 
BRANCH   9  10
ATOM     10  C   UNL     1       6.567  -1.604  25.983  0.00  0.00    -0.045 A 
ATOM     11  C   UNL     1       5.738  -1.030  25.008  0.00  0.00    +0.004 A 
ATOM     12  C   UNL     1       5.884   0.311  24.652  0.00  0.00    +0.000 A 
ATOM     13  C   UNL     1       6.864   1.093  25.261  0.00  0.00    +0.000 A 
ATOM     14  C   UNL     1       7.690   0.536  26.234  0.00  0.00    +0.000 A 
ATOM     15  C   UNL     1       7.545  -0.806  26.593  0.00  0.00    +0.004 A 
ENDBRANCH   9  10
ENDBRANCH   6   9
ENDBRANCH   4   6
ENDBRANCH   1   4
BRANCH   2  16
ATOM     16  C   UNL     1       9.371  -1.588  22.503  0.00  0.00    +0.000 C 
ATOM     17  C   UNL     1       9.186  -0.287  22.782  0.00  0.00    -0.008 C 
BRANCH  17  18
ATOM     18  C   UNL     1       9.948   0.861  22.173  0.00  0.00    +0.087 C 
BRANCH  18  19
ATOM     19  N   UNL     1       8.963   1.771  21.553  0.00  0.00    -0.323 NA
ATOM     20  H   UNL     1       9.329   2.726  21.630  0.00  0.00    +0.119 HD
ATOM     21  H   UNL     1       8.984   1.606  20.542  0.00  0.00    +0.119 HD
ENDBRANCH  18  19
BRANCH  18  22
ATOM     22  C   UNL     1      10.813   1.586  23.227  0.00  0.00    +0.115 C 
ATOM     23  C   UNL     1      10.947   0.882  24.582  0.00  0.00    +0.021 C 
BRANCH  22  24
ATOM     24  C   UNL     1      10.310   3.003  23.429  0.00  0.00    +0.309 C 
ATOM     25  O   UNL     1       9.344   3.284  24.126  0.00  0.00    -0.251 OA
BRANCH  24  26
ATOM     26  O   UNL     1      11.048   3.946  22.799  0.00  0.00    -0.480 OA
ATOM     27  H   UNL     1      10.773   4.051  21.861  0.00  0.00    +0.295 HD
ENDBRANCH  24  26
ENDBRANCH  22  24
ENDBRANCH  18  22
ENDBRANCH  17  18
ENDBRANCH   2  16
TORSDOF 11
ENDMDL
MODEL 2
REMARK VINA RESULT:      -5.4      2.290      3.852
REMARK  Name = 
REMARK  15 active torsions:
REMARK  status: ('A' for Active; 'I' for Inactive)
REMARK    1  A    between atoms: C_1  and  O_2
REMARK    2  A    between atoms: O_2  and  C_3
REMARK    3  A    between atoms: C_3  and  C_5
REMARK    4  A    between atoms: C_3  and  C_12
REMARK    5  A    between atoms: C_5  and  C_6
REMARK    6  A    between atoms: C_12  and  C_14
REMARK    7  A    between atoms: C_12  and  C_15
REMARK    8  A    between atoms: C_16  and  C_17
REMARK    9  A    between atoms: C_16  and  C_18
REMARK   10  A    between atoms: C_19  and  C_20
REMARK   11  A    between atoms: C_20  and  N_22
REMARK   12  A    between atoms: C_20  and  C_23
REMARK   13  A    between atoms: C_23  and  C_25
REMARK   14  A    between atoms: C_23  and  C_26
REMARK   15  A    between atoms: C_26  and  O_27
REMARK                            x       y       z     vdW  Elec       q    Type
REMARK                         _______ _______ _______ _____ _____    ______ ____
ROOT
ATOM      1  C   UNL     1       7.311  -3.264  25.360  0.00  0.00    -0.018 C 
ATOM      2  C   UNL     1       8.376  -3.798  24.726  0.00  0.00    -0.054 C 
ATOM      3  C   UNL     1       8.599  -5.276  24.515  0.00  0.00    +0.043 C 
ENDROOT
BRANCH   1   4
ATOM      4  C   UNL     1       6.164  -4.005  26.012  0.00  0.00    +0.038 C 
ATOM      5  C   UNL     1       6.439  -4.133  27.518  0.00  0.00    +0.014 C 
BRANCH   4   6
ATOM      6  C   UNL     1       4.784  -3.338  25.731  0.00  0.00    +0.129 C 
BRANCH   6   8
ATOM      7  C   UNL     1       2.624  -3.576  26.823  0.00  0.00    +0.194 C 
ATOM      8  O   UNL     1       3.996  -3.219  26.930  0.00  0.00    -0.379 OA
ENDBRANCH   6   8
BRANCH   6   9
ATOM      9  C   UNL     1       4.006  -4.047  24.591  0.00  0.00    +0.067 C 
BRANCH   9  10
ATOM     10  C   UNL     1       4.818  -4.422  23.373  0.00  0.00    -0.045 A 
ATOM     11  C   UNL     1       5.121  -5.767  23.114  0.00  0.00    +0.004 A 
ATOM     12  C   UNL     1       5.928  -6.118  22.033  0.00  0.00    +0.000 A 
ATOM     13  C   UNL     1       6.449  -5.129  21.199  0.00  0.00    +0.000 A 
ATOM     14  C   UNL     1       6.152  -3.790  21.442  0.00  0.00    +0.000 A 
ATOM     15  C   UNL     1       5.342  -3.436  22.524  0.00  0.00    +0.004 A 
ENDBRANCH   9  10
ENDBRANCH   6   9
ENDBRANCH   4   6
ENDBRANCH   1   4
BRANCH   2  16
ATOM     16  C   UNL     1       9.394  -2.948  24.106  0.00  0.00    +0.000 C 
ATOM     17  C   UNL     1       9.125  -1.913  23.295  0.00  0.00    -0.008 C 
BRANCH  17  18
ATOM     18  C   UNL     1      10.145  -1.011  22.650  0.00  0.00    +0.087 C 
BRANCH  18  19
ATOM     19  N   UNL     1       9.839  -0.951  21.207  0.00  0.00    -0.323 NA
ATOM     20  H   UNL     1       8.822  -0.866  21.107  0.00  0.00    +0.119 HD
ATOM     21  H   UNL     1      10.173  -0.047  20.857  0.00  0.00    +0.119 HD
ENDBRANCH  18  19
BRANCH  18  22
ATOM     22  C   UNL     1      10.143   0.393  23.294  0.00  0.00    +0.115 C 
ATOM     23  C   UNL     1       9.569   0.479  24.713  0.00  0.00    +0.021 C 
BRANCH  22  24
ATOM     24  C   UNL     1       9.431   1.381  22.390  0.00  0.00    +0.309 C 
ATOM     25  O   UNL     1       8.214   1.494  22.340  0.00  0.00    -0.251 OA
BRANCH  24  26
ATOM     26  O   UNL     1      10.262   2.162  21.661  0.00  0.00    -0.480 OA
ATOM     27  H   UNL     1      10.912   2.627  22.234  0.00  0.00    +0.295 HD
ENDBRANCH  24  26
ENDBRANCH  22  24
ENDBRANCH  18  22
ENDBRANCH  17  18
ENDBRANCH   2  16
TORSDOF 11
ENDMDL
MODEL 3
REMARK VINA RESULT:      -5.4      2.234      3.935
REMARK  Name = 
REMARK  15 active torsions:
REMARK  status: ('A' for Active; 'I' for Inactive)
REMARK    1  A    between atoms: C_1  and  O_2
REMARK    2  A    between atoms: O_2  and  C_3
REMARK    3  A    between atoms: C_3  and  C_5
REMARK    4  A    between atoms: C_3  and  C_12
REMARK    5  A    between atoms: C_5  and  C_6
REMARK    6  A    between atoms: C_12  and  C_14
REMARK    7  A    between atoms: C_12  and  C_15
REMARK    8  A    between atoms: C_16  and  C_17
REMARK    9  A    between atoms: C_16  and  C_18
REMARK   10  A    between atoms: C_19  and  C_20
REMARK   11  A    between atoms: C_20  and  N_22
REMARK   12  A    between atoms: C_20  and  C_23
REMARK   13  A    between atoms: C_23  and  C_25
REMARK   14  A    between atoms: C_23  and  C_26
REMARK   15  A    between atoms: C_26  and  O_27
REMARK                            x       y       z     vdW  Elec       q    Type
REMARK                         _______ _______ _______ _____ _____    ______ ____
ROOT
ATOM      1  C   UNL     1       7.229  -4.169  25.945  0.00  0.00    -0.018 C 
ATOM      2  C   UNL     1       8.383  -4.218  25.247  0.00  0.00    -0.054 C 
ATOM      3  C   UNL     1       9.051  -5.489  24.780  0.00  0.00    +0.043 C 
ENDROOT
BRANCH   1   4
ATOM      4  C   UNL     1       6.399  -5.337  26.432  0.00  0.00    +0.038 C 
ATOM      5  C   UNL     1       6.691  -5.576  27.921  0.00  0.00    +0.014 C 
BRANCH   4   6
ATOM      6  C   UNL     1       4.877  -5.142  26.166  0.00  0.00    +0.129 C 
BRANCH   6   8
ATOM      7  C   UNL     1       2.977  -6.454  26.930  0.00  0.00    +0.194 C 
ATOM      8  O   UNL     1       4.077  -5.619  27.264  0.00  0.00    -0.379 OA
ENDBRANCH   6   8
BRANCH   6   9
ATOM      9  C   UNL     1       4.429  -5.755  24.812  0.00  0.00    +0.067 C 
BRANCH   9  10
ATOM     10  C   UNL     1       5.104  -5.195  23.581  0.00  0.00    -0.045 A 
ATOM     11  C   UNL     1       5.942  -6.008  22.804  0.00  0.00    +0.004 A 
ATOM     12  C   UNL     1       6.624  -5.484  21.707  0.00  0.00    +0.000 A 
ATOM     13  C   UNL     1       6.482  -4.137  21.375  0.00  0.00    +0.000 A 
ATOM     14  C   UNL     1       5.649  -3.319  22.134  0.00  0.00    +0.000 A 
ATOM     15  C   UNL     1       4.963  -3.844  23.233  0.00  0.00    +0.004 A 
ENDBRANCH   9  10
ENDBRANCH   6   9
ENDBRANCH   4   6
ENDBRANCH   1   4
BRANCH   2  16
ATOM     16  C   UNL     1       9.057  -2.995  24.809  0.00  0.00    +0.000 C 
ATOM     17  C   UNL     1       9.232  -2.646  23.525  0.00  0.00    -0.008 C 
BRANCH  17  18
ATOM     18  C   UNL     1       9.910  -1.391  23.038  0.00  0.00    +0.087 C 
BRANCH  18  19
ATOM     19  N   UNL     1      10.178  -1.559  21.596  0.00  0.00    -0.323 NA
ATOM     20  H   UNL     1      10.725  -0.750  21.284  0.00  0.00    +0.119 HD
ATOM     21  H   UNL     1      10.847  -2.330  21.494  0.00  0.00    +0.119 HD
ENDBRANCH  18  19
BRANCH  18  22
ATOM     22  C   UNL     1       9.047  -0.140  23.317  0.00  0.00    +0.115 C 
ATOM     23  C   UNL     1       7.591  -0.212  22.842  0.00  0.00    +0.021 C 
BRANCH  22  24
ATOM     24  C   UNL     1       9.716   1.094  22.743  0.00  0.00    +0.309 C 
ATOM     25  O   UNL     1      10.432   1.840  23.396  0.00  0.00    -0.251 OA
BRANCH  24  26
ATOM     26  O   UNL     1       9.484   1.284  21.423  0.00  0.00    -0.480 OA
ATOM     27  H   UNL     1      10.114   0.770  20.870  0.00  0.00    +0.295 HD
ENDBRANCH  24  26
ENDBRANCH  22  24
ENDBRANCH  18  22
ENDBRANCH  17  18
ENDBRANCH   2  16
TORSDOF 11
ENDMDL
MODEL 4
REMARK VINA RESULT:      -5.3      2.163      7.197
REMARK  Name = 
REMARK  15 active torsions:
REMARK  status: ('A' for Active; 'I' for Inactive)
REMARK    1  A    between atoms: C_1  and  O_2
REMARK    2  A    between atoms: O_2  and  C_3
REMARK    3  A    between atoms: C_3  and  C_5
REMARK    4  A    between atoms: C_3  and  C_12
REMARK    5  A    between atoms: C_5  and  C_6
REMARK    6  A    between atoms: C_12  and  C_14
REMARK    7  A    between atoms: C_12  and  C_15
REMARK    8  A    between atoms: C_16  and  C_17
REMARK    9  A    between atoms: C_16  and  C_18
REMARK   10  A    between atoms: C_19  and  C_20
REMARK   11  A    between atoms: C_20  and  N_22
REMARK   12  A    between atoms: C_20  and  C_23
REMARK   13  A    between atoms: C_23  and  C_25
REMARK   14  A    between atoms: C_23  and  C_26
REMARK   15  A    between atoms: C_26  and  O_27
REMARK                            x       y       z     vdW  Elec       q    Type
REMARK                         _______ _______ _______ _____ _____    ______ ____
ROOT
ATOM      1  C   UNL     1       7.560   1.884  25.251  0.00  0.00    -0.018 C 
ATOM      2  C   UNL     1       7.056   0.697  24.854  0.00  0.00    -0.054 C 
ATOM      3  C   UNL     1       6.609   0.381  23.447  0.00  0.00    +0.043 C 
ENDROOT
BRANCH   1   4
ATOM      4  C   UNL     1       7.744   3.131  24.414  0.00  0.00    +0.038 C 
ATOM      5  C   UNL     1       6.637   4.138  24.760  0.00  0.00    +0.014 C 
BRANCH   4   6
ATOM      6  C   UNL     1       9.163   3.755  24.575  0.00  0.00    +0.129 C 
BRANCH   6   8
ATOM      7  C   UNL     1       9.975   5.967  23.975  0.00  0.00    +0.194 C 
ATOM      8  O   UNL     1       9.100   5.179  24.771  0.00  0.00    -0.379 OA
ENDBRANCH   6   8
BRANCH   6   9
ATOM      9  C   UNL     1      10.113   3.370  23.410  0.00  0.00    +0.067 C 
BRANCH   9  10
ATOM     10  C   UNL     1      10.174   1.899  23.067  0.00  0.00    -0.045 A 
ATOM     11  C   UNL     1       9.674   1.440  21.840  0.00  0.00    +0.004 A 
ATOM     12  C   UNL     1       9.660   0.077  21.543  0.00  0.00    +0.000 A 
ATOM     13  C   UNL     1      10.141  -0.844  22.472  0.00  0.00    +0.000 A 
ATOM     14  C   UNL     1      10.646  -0.401  23.692  0.00  0.00    +0.000 A 
ATOM     15  C   UNL     1      10.661   0.963  23.991  0.00  0.00    +0.004 A 
ENDBRANCH   9  10
ENDBRANCH   6   9
ENDBRANCH   4   6
ENDBRANCH   1   4
BRANCH   2  16
ATOM     16  C   UNL     1       6.974  -0.439  25.773  0.00  0.00    +0.000 C 
ATOM     17  C   UNL     1       7.819  -1.482  25.766  0.00  0.00    -0.008 C 
BRANCH  17  18
ATOM     18  C   UNL     1       7.772  -2.660  26.704  0.00  0.00    +0.087 C 
BRANCH  18  19
ATOM     19  N   UNL     1       6.353  -3.019  26.897  0.00  0.00    -0.323 NA
ATOM     20  H   UNL     1       6.037  -2.586  27.771  0.00  0.00    +0.119 HD
ATOM     21  H   UNL     1       5.807  -2.515  26.191  0.00  0.00    +0.119 HD
ENDBRANCH  18  19
BRANCH  18  22
ATOM     22  C   UNL     1       8.593  -3.849  26.158  0.00  0.00    +0.115 C 
ATOM     23  C   UNL     1       9.143  -3.686  24.735  0.00  0.00    +0.021 C 
BRANCH  22  24
ATOM     24  C   UNL     1       7.786  -5.130  26.255  0.00  0.00    +0.309 C 
ATOM     25  O   UNL     1       7.089  -5.559  25.347  0.00  0.00    -0.251 OA
BRANCH  24  26
ATOM     26  O   UNL     1       7.933  -5.786  27.430  0.00  0.00    -0.480 OA
ATOM     27  H   UNL     1       8.611  -5.359  27.998  0.00  0.00    +0.295 HD
ENDBRANCH  24  26
ENDBRANCH  22  24
ENDBRANCH  18  22
ENDBRANCH  17  18
ENDBRANCH   2  16
TORSDOF 11
ENDMDL
MODEL 5
REMARK VINA RESULT:      -5.3      1.821      3.190
REMARK  Name = 
REMARK  15 active torsions:
REMARK  status: ('A' for Active; 'I' for Inactive)
REMARK    1  A    between atoms: C_1  and  O_2
REMARK    2  A    between atoms: O_2  and  C_3
REMARK    3  A    between atoms: C_3  and  C_5
REMARK    4  A    between atoms: C_3  and  C_12
REMARK    5  A    between atoms: C_5  and  C_6
REMARK    6  A    between atoms: C_12  and  C_14
REMARK    7  A    between atoms: C_12  and  C_15
REMARK    8  A    between atoms: C_16  and  C_17
REMARK    9  A    between atoms: C_16  and  C_18
REMARK   10  A    between atoms: C_19  and  C_20
REMARK   11  A    between atoms: C_20  and  N_22
REMARK   12  A    between atoms: C_20  and  C_23
REMARK   13  A    between atoms: C_23  and  C_25
REMARK   14  A    between atoms: C_23  and  C_26
REMARK   15  A    between atoms: C_26  and  O_27
REMARK                            x       y       z     vdW  Elec       q    Type
REMARK                         _______ _______ _______ _____ _____    ______ ____
ROOT
ATOM      1  C   UNL     1       8.328  -2.895  25.681  0.00  0.00    -0.018 C 
ATOM      2  C   UNL     1       8.787  -2.118  24.677  0.00  0.00    -0.054 C 
ATOM      3  C   UNL     1       9.293  -2.635  23.353  0.00  0.00    +0.043 C 
ENDROOT
BRANCH   1   4
ATOM      4  C   UNL     1       8.259  -4.406  25.714  0.00  0.00    +0.038 C 
ATOM      5  C   UNL     1       9.537  -4.955  26.367  0.00  0.00    +0.014 C 
BRANCH   4   6
ATOM      6  C   UNL     1       6.976  -4.931  26.425  0.00  0.00    +0.129 C 
BRANCH   6   8
ATOM      7  C   UNL     1       6.354  -5.969  28.535  0.00  0.00    +0.194 C 
ATOM      8  O   UNL     1       7.291  -5.869  27.471  0.00  0.00    -0.379 OA
ENDBRANCH   6   8
BRANCH   6   9
ATOM      9  C   UNL     1       5.937  -5.504  25.425  0.00  0.00    +0.067 C 
BRANCH   9  10
ATOM     10  C   UNL     1       5.964  -4.909  24.035  0.00  0.00    -0.045 A 
ATOM     11  C   UNL     1       6.613  -5.584  22.991  0.00  0.00    +0.004 A 
ATOM     12  C   UNL     1       6.705  -5.012  21.723  0.00  0.00    +0.000 A 
ATOM     13  C   UNL     1       6.153  -3.755  21.483  0.00  0.00    +0.000 A 
ATOM     14  C   UNL     1       5.500  -3.076  22.509  0.00  0.00    +0.000 A 
ATOM     15  C   UNL     1       5.407  -3.648  23.780  0.00  0.00    +0.004 A 
ENDBRANCH   9  10
ENDBRANCH   6   9
ENDBRANCH   4   6
ENDBRANCH   1   4
BRANCH   2  16
ATOM     16  C   UNL     1       8.757  -0.658  24.774  0.00  0.00    +0.000 C 
ATOM     17  C   UNL     1       8.133   0.146  23.898  0.00  0.00    -0.008 C 
BRANCH  17  18
ATOM     18  C   UNL     1       8.070   1.650  23.973  0.00  0.00    +0.087 C 
BRANCH  18  19
ATOM     19  N   UNL     1       8.554   2.050  25.310  0.00  0.00    -0.323 NA
ATOM     20  H   UNL     1       9.556   1.840  25.355  0.00  0.00    +0.119 HD
ATOM     21  H   UNL     1       8.541   3.074  25.350  0.00  0.00    +0.119 HD
ENDBRANCH  18  19
BRANCH  18  22
ATOM     22  C   UNL     1       8.898   2.305  22.846  0.00  0.00    +0.115 C 
ATOM     23  C   UNL     1       9.284   1.388  21.679  0.00  0.00    +0.021 C 
BRANCH  22  24
ATOM     24  C   UNL     1      10.140   2.958  23.422  0.00  0.00    +0.309 C 
ATOM     25  O   UNL     1      11.119   2.330  23.801  0.00  0.00    -0.251 OA
BRANCH  24  26
ATOM     26  O   UNL     1      10.091   4.310  23.448  0.00  0.00    -0.480 OA
ATOM     27  H   UNL     1      10.403   4.698  22.600  0.00  0.00    +0.295 HD
ENDBRANCH  24  26
ENDBRANCH  22  24
ENDBRANCH  18  22
ENDBRANCH  17  18
ENDBRANCH   2  16
TORSDOF 11
ENDMDL
MODEL 6
REMARK VINA RESULT:      -5.3      2.654      4.356
REMARK  Name = 
REMARK  15 active torsions:
REMARK  status: ('A' for Active; 'I' for Inactive)
REMARK    1  A    between atoms: C_1  and  O_2
REMARK    2  A    between atoms: O_2  and  C_3
REMARK    3  A    between atoms: C_3  and  C_5
REMARK    4  A    between atoms: C_3  and  C_12
REMARK    5  A    between atoms: C_5  and  C_6
REMARK    6  A    between atoms: C_12  and  C_14
REMARK    7  A    between atoms: C_12  and  C_15
REMARK    8  A    between atoms: C_16  and  C_17
REMARK    9  A    between atoms: C_16  and  C_18
REMARK   10  A    between atoms: C_19  and  C_20
REMARK   11  A    between atoms: C_20  and  N_22
REMARK   12  A    between atoms: C_20  and  C_23
REMARK   13  A    between atoms: C_23  and  C_25
REMARK   14  A    between atoms: C_23  and  C_26
REMARK   15  A    between atoms: C_26  and  O_27
REMARK                            x       y       z     vdW  Elec       q    Type
REMARK                         _______ _______ _______ _____ _____    ______ ____
ROOT
ATOM      1  C   UNL     1       6.564  -0.741  23.646  0.00  0.00    -0.018 C 
ATOM      2  C   UNL     1       6.463   0.455  24.264  0.00  0.00    -0.054 C 
ATOM      3  C   UNL     1       6.763   0.696  25.723  0.00  0.00    +0.043 C 
ENDROOT
BRANCH   1   4
ATOM      4  C   UNL     1       6.948  -2.066  24.266  0.00  0.00    +0.038 C 
ATOM      5  C   UNL     1       5.729  -3.001  24.254  0.00  0.00    +0.014 C 
BRANCH   4   6
ATOM      6  C   UNL     1       8.182  -2.717  23.571  0.00  0.00    +0.129 C 
BRANCH   6   8
ATOM      7  C   UNL     1       8.892  -4.761  24.681  0.00  0.00    +0.194 C 
ATOM      8  O   UNL     1       8.137  -4.154  23.641  0.00  0.00    -0.379 OA
ENDBRANCH   6   8
BRANCH   6   9
ATOM      9  C   UNL     1       9.526  -2.151  24.101  0.00  0.00    +0.067 C 
BRANCH   9  10
ATOM     10  C   UNL     1       9.877  -0.752  23.646  0.00  0.00    -0.045 A 
ATOM     11  C   UNL     1      10.230   0.227  24.586  0.00  0.00    +0.004 A 
ATOM     12  C   UNL     1      10.487   1.537  24.185  0.00  0.00    +0.000 A 
ATOM     13  C   UNL     1      10.389   1.888  22.839  0.00  0.00    +0.000 A 
ATOM     14  C   UNL     1      10.044   0.924  21.894  0.00  0.00    +0.000 A 
ATOM     15  C   UNL     1       9.788  -0.390  22.295  0.00  0.00    +0.004 A 
ENDBRANCH   9  10
ENDBRANCH   6   9
ENDBRANCH   4   6
ENDBRANCH   1   4
BRANCH   2  16
ATOM     16  C   UNL     1       6.115   1.666  23.520  0.00  0.00    +0.000 C 
ATOM     17  C   UNL     1       7.006   2.453  22.894  0.00  0.00    -0.008 C 
BRANCH  17  18
ATOM     18  C   UNL     1       6.683   3.698  22.110  0.00  0.00    +0.087 C 
BRANCH  18  19
ATOM     19  N   UNL     1       5.257   4.010  22.336  0.00  0.00    -0.323 NA
ATOM     20  H   UNL     1       4.930   3.427  23.114  0.00  0.00    +0.119 HD
ATOM     21  H   UNL     1       5.206   4.954  22.730  0.00  0.00    +0.119 HD
ENDBRANCH  18  19
BRANCH  18  22
ATOM     22  C   UNL     1       7.597   4.874  22.519  0.00  0.00    +0.115 C 
ATOM     23  C   UNL     1       8.252   4.764  23.901  0.00  0.00    +0.021 C 
BRANCH  22  24
ATOM     24  C   UNL     1       6.841   6.185  22.409  0.00  0.00    +0.309 C 
ATOM     25  O   UNL     1       6.280   6.722  23.353  0.00  0.00    -0.251 OA
BRANCH  24  26
ATOM     26  O   UNL     1       6.871   6.738  21.174  0.00  0.00    -0.480 OA
ATOM     27  H   UNL     1       6.698   7.705  21.208  0.00  0.00    +0.295 HD
ENDBRANCH  24  26
ENDBRANCH  22  24
ENDBRANCH  18  22
ENDBRANCH  17  18
ENDBRANCH   2  16
TORSDOF 11
ENDMDL
MODEL 7
REMARK VINA RESULT:      -5.2      3.229      7.244
REMARK  Name = 
REMARK  15 active torsions:
REMARK  status: ('A' for Active; 'I' for Inactive)
REMARK    1  A    between atoms: C_1  and  O_2
REMARK    2  A    between atoms: O_2  and  C_3
REMARK    3  A    between atoms: C_3  and  C_5
REMARK    4  A    between atoms: C_3  and  C_12
REMARK    5  A    between atoms: C_5  and  C_6
REMARK    6  A    between atoms: C_12  and  C_14
REMARK    7  A    between atoms: C_12  and  C_15
REMARK    8  A    between atoms: C_16  and  C_17
REMARK    9  A    between atoms: C_16  and  C_18
REMARK   10  A    between atoms: C_19  and  C_20
REMARK   11  A    between atoms: C_20  and  N_22
REMARK   12  A    between atoms: C_20  and  C_23
REMARK   13  A    between atoms: C_23  and  C_25
REMARK   14  A    between atoms: C_23  and  C_26
REMARK   15  A    between atoms: C_26  and  O_27
REMARK                            x       y       z     vdW  Elec       q    Type
REMARK                         _______ _______ _______ _____ _____    ______ ____
ROOT
ATOM      1  C   UNL     1       9.006  -0.564  24.285  0.00  0.00    -0.018 C 
ATOM      2  C   UNL     1       8.527  -1.423  25.209  0.00  0.00    -0.054 C 
ATOM      3  C   UNL     1       8.501  -1.159  26.695  0.00  0.00    +0.043 C 
ENDROOT
BRANCH   1   4
ATOM      4  C   UNL     1       9.637   0.789  24.528  0.00  0.00    +0.038 C 
ATOM      5  C   UNL     1      11.164   0.629  24.591  0.00  0.00    +0.014 C 
BRANCH   4   6
ATOM      6  C   UNL     1       9.211   1.847  23.466  0.00  0.00    +0.129 C 
BRANCH   6   8
ATOM      7  C   UNL     1       7.412   2.156  21.858  0.00  0.00    +0.194 C 
ATOM      8  O   UNL     1       8.353   1.277  22.460  0.00  0.00    -0.379 OA
ENDBRANCH   6   8
BRANCH   6   9
ATOM      9  C   UNL     1      10.427   2.584  22.844  0.00  0.00    +0.067 C 
BRANCH   9  10
ATOM     10  C   UNL     1      10.763   3.927  23.449  0.00  0.00    -0.045 A 
ATOM     11  C   UNL     1       9.762   4.695  24.063  0.00  0.00    +0.004 A 
ATOM     12  C   UNL     1      10.047   5.966  24.562  0.00  0.00    +0.000 A 
ATOM     13  C   UNL     1      11.334   6.488  24.450  0.00  0.00    +0.000 A 
ATOM     14  C   UNL     1      12.339   5.734  23.848  0.00  0.00    +0.000 A 
ATOM     15  C   UNL     1      12.056   4.460  23.349  0.00  0.00    +0.004 A 
ENDBRANCH   9  10
ENDBRANCH   6   9
ENDBRANCH   4   6
ENDBRANCH   1   4
BRANCH   2  16
ATOM     16  C   UNL     1       7.905  -2.689  24.819  0.00  0.00    +0.000 C 
ATOM     17  C   UNL     1       8.103  -3.298  23.638  0.00  0.00    -0.008 C 
BRANCH  17  18
ATOM     18  C   UNL     1       7.489  -4.605  23.208  0.00  0.00    +0.087 C 
BRANCH  18  19
ATOM     19  N   UNL     1       7.005  -5.291  24.423  0.00  0.00    -0.323 NA
ATOM     20  H   UNL     1       6.876  -4.581  25.152  0.00  0.00    +0.119 HD
ATOM     21  H   UNL     1       6.044  -5.599  24.242  0.00  0.00    +0.119 HD
ENDBRANCH  18  19
BRANCH  18  22
ATOM     22  C   UNL     1       6.354  -4.385  22.184  0.00  0.00    +0.115 C 
ATOM     23  C   UNL     1       5.005  -3.944  22.765  0.00  0.00    +0.021 C 
BRANCH  22  24
ATOM     24  C   UNL     1       6.169  -5.629  21.336  0.00  0.00    +0.309 C 
ATOM     25  O   UNL     1       5.965  -5.600  20.131  0.00  0.00    -0.251 OA
BRANCH  24  26
ATOM     26  O   UNL     1       6.286  -6.789  22.024  0.00  0.00    -0.480 OA
ATOM     27  H   UNL     1       5.406  -7.179  22.224  0.00  0.00    +0.295 HD
ENDBRANCH  24  26
ENDBRANCH  22  24
ENDBRANCH  18  22
ENDBRANCH  17  18
ENDBRANCH   2  16
TORSDOF 11
ENDMDL
MODEL 8
REMARK VINA RESULT:      -5.2      3.110      7.155
REMARK  Name = 
REMARK  15 active torsions:
REMARK  status: ('A' for Active; 'I' for Inactive)
REMARK    1  A    between atoms: C_1  and  O_2
REMARK    2  A    between atoms: O_2  and  C_3
REMARK    3  A    between atoms: C_3  and  C_5
REMARK    4  A    between atoms: C_3  and  C_12
REMARK    5  A    between atoms: C_5  and  C_6
REMARK    6  A    between atoms: C_12  and  C_14
REMARK    7  A    between atoms: C_12  and  C_15
REMARK    8  A    between atoms: C_16  and  C_17
REMARK    9  A    between atoms: C_16  and  C_18
REMARK   10  A    between atoms: C_19  and  C_20
REMARK   11  A    between atoms: C_20  and  N_22
REMARK   12  A    between atoms: C_20  and  C_23
REMARK   13  A    between atoms: C_23  and  C_25
REMARK   14  A    between atoms: C_23  and  C_26
REMARK   15  A    between atoms: C_26  and  O_27
REMARK                            x       y       z     vdW  Elec       q    Type
REMARK                         _______ _______ _______ _____ _____    ______ ____
ROOT
ATOM      1  C   UNL     1       8.223  -0.629  23.068  0.00  0.00    -0.018 C 
ATOM      2  C   UNL     1       8.584  -1.881  23.417  0.00  0.00    -0.054 C 
ATOM      3  C   UNL     1      10.009  -2.341  23.613  0.00  0.00    +0.043 C 
ENDROOT
BRANCH   1   4
ATOM      4  C   UNL     1       9.134   0.540  22.766  0.00  0.00    +0.038 C 
ATOM      5  C   UNL     1       8.611   1.280  21.525  0.00  0.00    +0.014 C 
BRANCH   4   6
ATOM      6  C   UNL     1       9.299   1.499  23.983  0.00  0.00    +0.129 C 
BRANCH   6   8
ATOM      7  C   UNL     1       7.589   1.854  25.675  0.00  0.00    +0.194 C 
ATOM      8  O   UNL     1       8.603   1.011  25.145  0.00  0.00    -0.379 OA
ENDBRANCH   6   8
BRANCH   6   9
ATOM      9  C   UNL     1       8.906   2.961  23.642  0.00  0.00    +0.067 C 
BRANCH   9  10
ATOM     10  C   UNL     1      10.017   3.982  23.741  0.00  0.00    -0.045 A 
ATOM     11  C   UNL     1       9.745   5.277  24.206  0.00  0.00    +0.004 A 
ATOM     12  C   UNL     1      10.747   6.247  24.234  0.00  0.00    +0.000 A 
ATOM     13  C   UNL     1      12.033   5.936  23.794  0.00  0.00    +0.000 A 
ATOM     14  C   UNL     1      12.318   4.652  23.335  0.00  0.00    +0.000 A 
ATOM     15  C   UNL     1      11.316   3.679  23.307  0.00  0.00    +0.004 A 
ENDBRANCH   9  10
ENDBRANCH   6   9
ENDBRANCH   4   6
ENDBRANCH   1   4
BRANCH   2  16
ATOM     16  C   UNL     1       7.582  -2.905  23.717  0.00  0.00    +0.000 C 
ATOM     17  C   UNL     1       7.853  -4.213  23.850  0.00  0.00    -0.008 C 
BRANCH  17  18
ATOM     18  C   UNL     1       6.850  -5.291  24.170  0.00  0.00    +0.087 C 
BRANCH  18  19
ATOM     19  N   UNL     1       5.797  -4.685  25.010  0.00  0.00    -0.323 NA
ATOM     20  H   UNL     1       5.548  -3.781  24.594  0.00  0.00    +0.119 HD
ATOM     21  H   UNL     1       4.941  -5.233  24.875  0.00  0.00    +0.119 HD
ENDBRANCH  18  19
BRANCH  18  22
ATOM     22  C   UNL     1       6.267  -5.918  22.885  0.00  0.00    +0.115 C 
ATOM     23  C   UNL     1       7.106  -5.742  21.614  0.00  0.00    +0.021 C 
BRANCH  22  24
ATOM     24  C   UNL     1       4.858  -5.408  22.647  0.00  0.00    +0.309 C 
ATOM     25  O   UNL     1       4.606  -4.270  22.278  0.00  0.00    -0.251 OA
BRANCH  24  26
ATOM     26  O   UNL     1       3.894  -6.337  22.844  0.00  0.00    -0.480 OA
ATOM     27  H   UNL     1       3.925  -7.038  22.156  0.00  0.00    +0.295 HD
ENDBRANCH  24  26
ENDBRANCH  22  24
ENDBRANCH  18  22
ENDBRANCH  17  18
ENDBRANCH   2  16
TORSDOF 11
ENDMDL
MODEL 9
REMARK VINA RESULT:      -5.1      2.501      7.250
REMARK  Name = 
REMARK  15 active torsions:
REMARK  status: ('A' for Active; 'I' for Inactive)
REMARK    1  A    between atoms: C_1  and  O_2
REMARK    2  A    between atoms: O_2  and  C_3
REMARK    3  A    between atoms: C_3  and  C_5
REMARK    4  A    between atoms: C_3  and  C_12
REMARK    5  A    between atoms: C_5  and  C_6
REMARK    6  A    between atoms: C_12  and  C_14
REMARK    7  A    between atoms: C_12  and  C_15
REMARK    8  A    between atoms: C_16  and  C_17
REMARK    9  A    between atoms: C_16  and  C_18
REMARK   10  A    between atoms: C_19  and  C_20
REMARK   11  A    between atoms: C_20  and  N_22
REMARK   12  A    between atoms: C_20  and  C_23
REMARK   13  A    between atoms: C_23  and  C_25
REMARK   14  A    between atoms: C_23  and  C_26
REMARK   15  A    between atoms: C_26  and  O_27
REMARK                            x       y       z     vdW  Elec       q    Type
REMARK                         _______ _______ _______ _____ _____    ______ ____
ROOT
ATOM      1  C   UNL     1       7.724   2.304  24.544  0.00  0.00    -0.018 C 
ATOM      2  C   UNL     1       6.726   1.697  23.869  0.00  0.00    -0.054 C 
ATOM      3  C   UNL     1       6.185   2.157  22.537  0.00  0.00    +0.043 C 
ENDROOT
BRANCH   1   4
ATOM      4  C   UNL     1       8.469   3.560  24.150  0.00  0.00    +0.038 C 
ATOM      5  C   UNL     1       8.323   4.605  25.266  0.00  0.00    +0.014 C 
BRANCH   4   6
ATOM      6  C   UNL     1       9.964   3.285  23.808  0.00  0.00    +0.129 C 
BRANCH   6   8
ATOM      7  C   UNL     1      12.029   4.430  23.223  0.00  0.00    +0.194 C 
ATOM      8  O   UNL     1      10.748   4.492  23.837  0.00  0.00    -0.379 OA
ENDBRANCH   6   8
BRANCH   6   9
ATOM      9  C   UNL     1      10.133   2.515  22.471  0.00  0.00    +0.067 C 
BRANCH   9  10
ATOM     10  C   UNL     1       9.974   1.014  22.551  0.00  0.00    -0.045 A 
ATOM     11  C   UNL     1      10.488   0.308  23.649  0.00  0.00    +0.004 A 
ATOM     12  C   UNL     1      10.409  -1.083  23.700  0.00  0.00    +0.000 A 
ATOM     13  C   UNL     1       9.820  -1.788  22.651  0.00  0.00    +0.000 A 
ATOM     14  C   UNL     1       9.300  -1.099  21.558  0.00  0.00    +0.000 A 
ATOM     15  C   UNL     1       9.377   0.295  21.506  0.00  0.00    +0.004 A 
ENDBRANCH   9  10
ENDBRANCH   6   9
ENDBRANCH   4   6
ENDBRANCH   1   4
BRANCH   2  16
ATOM     16  C   UNL     1       6.122   0.457  24.359  0.00  0.00    +0.000 C 
ATOM     17  C   UNL     1       6.673  -0.760  24.222  0.00  0.00    -0.008 C 
BRANCH  17  18
ATOM     18  C   UNL     1       6.087  -2.054  24.724  0.00  0.00    +0.087 C 
BRANCH  18  19
ATOM     19  N   UNL     1       4.694  -1.783  25.133  0.00  0.00    -0.323 NA
ATOM     20  H   UNL     1       4.567  -2.162  26.078  0.00  0.00    +0.119 HD
ATOM     21  H   UNL     1       4.608  -0.773  25.287  0.00  0.00    +0.119 HD
ENDBRANCH  18  19
BRANCH  18  22
ATOM     22  C   UNL     1       6.162  -3.161  23.650  0.00  0.00    +0.115 C 
ATOM     23  C   UNL     1       6.084  -2.688  22.194  0.00  0.00    +0.021 C 
BRANCH  22  24
ATOM     24  C   UNL     1       5.099  -4.212  23.909  0.00  0.00    +0.309 C 
ATOM     25  O   UNL     1       5.054  -4.892  24.924  0.00  0.00    -0.251 OA
BRANCH  24  26
ATOM     26  O   UNL     1       4.171  -4.311  22.928  0.00  0.00    -0.480 OA
ATOM     27  H   UNL     1       4.492  -4.866  22.183  0.00  0.00    +0.295 HD
ENDBRANCH  24  26
ENDBRANCH  22  24
ENDBRANCH  18  22
ENDBRANCH  17  18
ENDBRANCH   2  16
TORSDOF 11
ENDMDL
