MODEL 1
REMARK VINA RESULT:      -5.3      0.000      0.000
REMARK  Name = 
REMARK  9 active torsions:
REMARK  status: ('A' for Active; 'I' for Inactive)
REMARK    1  A    between atoms: C_1  and  C_2
REMARK    2  A    between atoms: C_5  and  C_6
REMARK    3  A    between atoms: C_6  and  O_7
REMARK    4  A    between atoms: O_7  and  P_8
REMARK    5  A    between atoms: P_8  and  O_9
REMARK    6  A    between atoms: P_8  and  O_10
REMARK    7  A    between atoms: C_12  and  C_13
REMARK    8  A    between atoms: C_13  and  N_14
REMARK    9  A    between atoms: C_15  and  O_16
REMARK                            x       y       z     vdW  Elec       q    Type
REMARK                         _______ _______ _______ _____ _____    ______ ____
ROOT
ATOM      1  C   UNL     1       9.997   4.002  23.737  0.00  0.00    +0.069 C 
ATOM      2  C   UNL     1       9.428   2.615  23.738  0.00  0.00    +0.080 A 
ATOM      3  C   UNL     1       9.604   1.769  22.640  0.00  0.00    +0.142 A 
ATOM      4  C   UNL     1       9.039   0.477  22.635  0.00  0.00    +0.016 A 
ATOM      5  C   UNL     1       8.345   0.060  23.800  0.00  0.00    +0.005 A 
ATOM      6  C   UNL     1       8.223   0.980  24.840  0.00  0.00    +0.117 A 
ATOM      7  N   UNL     1       8.741   2.231  24.837  0.00  0.00    -0.256 NA
ENDROOT
BRANCH   3   8
ATOM      8  O   UNL     1      10.319   2.240  21.567  0.00  0.00    -0.505 OA
ATOM      9  H   UNL     1      10.526   3.183  21.766  0.00  0.00    +0.292 HD
ENDBRANCH   3   8
BRANCH   4  10
ATOM     10  C   UNL     1       9.235  -0.474  21.473  0.00  0.00    +0.117 C 
BRANCH  10  11
ATOM     11  N   UNL     1      10.278  -1.482  21.737  0.00  0.00    -0.326 NA
ATOM     12  H   UNL     1      10.839  -1.147  22.525  0.00  0.00    +0.119 HD
ATOM     13  H   UNL     1       9.814  -2.323  22.090  0.00  0.00    +0.119 HD
ENDBRANCH  10  11
ENDBRANCH   4  10
BRANCH   5  14
ATOM     14  C   UNL     1       7.726  -1.304  23.964  0.00  0.00    +0.209 C 
BRANCH  14  15
ATOM     15  O   UNL     1       8.529  -2.077  24.845  0.00  0.00    -0.282 OA
BRANCH  15  16
ATOM     16  P   UNL     1       8.662  -3.751  24.432  0.00  0.00    +0.473 P 
ATOM     17  O   UNL     1       8.780  -5.251  24.063  0.00  0.00    -0.228 OA
BRANCH  16  18
ATOM     18  O   UNL     1      10.220  -3.403  24.071  0.00  0.00    -0.303 OA
ATOM     19  H   UNL     1      10.326  -2.487  23.757  0.00  0.00    +0.222 HD
ENDBRANCH  16  18
BRANCH  16  20
ATOM     20  O   UNL     1       8.005  -3.368  22.985  0.00  0.00    -0.303 OA
ATOM     21  H   UNL     1       7.482  -4.155  22.729  0.00  0.00    +0.222 HD
ENDBRANCH  16  20
ENDBRANCH  15  16
ENDBRANCH  14  15
ENDBRANCH   5  14
TORSDOF 8
ENDMDL
MODEL 2
REMARK VINA RESULT:      -5.1      2.591      5.015
REMARK  Name = 
REMARK  9 active torsions:
REMARK  status: ('A' for Active; 'I' for Inactive)
REMARK    1  A    between atoms: C_1  and  C_2
REMARK    2  A    between atoms: C_5  and  C_6
REMARK    3  A    between atoms: C_6  and  O_7
REMARK    4  A    between atoms: O_7  and  P_8
REMARK    5  A    between atoms: P_8  and  O_9
REMARK    6  A    between atoms: P_8  and  O_10
REMARK    7  A    between atoms: C_12  and  C_13
REMARK    8  A    between atoms: C_13  and  N_14
REMARK    9  A    between atoms: C_15  and  O_16
REMARK                            x       y       z     vdW  Elec       q    Type
REMARK                         _______ _______ _______ _____ _____    ______ ____
ROOT
ATOM      1  C   UNL     1       7.724  -3.460  26.218  0.00  0.00    +0.069 C 
ATOM      2  C   UNL     1       8.500  -2.325  25.622  0.00  0.00    +0.080 A 
ATOM      3  C   UNL     1       9.187  -2.483  24.415  0.00  0.00    +0.142 A 
ATOM      4  C   UNL     1       9.940  -1.421  23.876  0.00  0.00    +0.016 A 
ATOM      5  C   UNL     1       9.923  -0.184  24.573  0.00  0.00    +0.005 A 
ATOM      6  C   UNL     1       9.209  -0.130  25.769  0.00  0.00    +0.117 A 
ATOM      7  N   UNL     1       8.506  -1.157  26.303  0.00  0.00    -0.256 NA
ENDROOT
BRANCH   3   8
ATOM      8  O   UNL     1       9.123  -3.703  23.788  0.00  0.00    -0.505 OA
ATOM      9  H   UNL     1       9.979  -3.813  23.312  0.00  0.00    +0.292 HD
ENDBRANCH   3   8
BRANCH   4  10
ATOM     10  C   UNL     1      10.673  -1.551  22.558  0.00  0.00    +0.117 C 
BRANCH  10  11
ATOM     11  N   UNL     1       9.768  -1.459  21.397  0.00  0.00    -0.326 NA
ATOM     12  H   UNL     1       8.819  -1.324  21.755  0.00  0.00    +0.119 HD
ATOM     13  H   UNL     1       9.985  -0.589  20.904  0.00  0.00    +0.119 HD
ENDBRANCH  10  11
ENDBRANCH   4  10
BRANCH   5  14
ATOM     14  C   UNL     1      10.640   1.055  24.102  0.00  0.00    +0.209 C 
BRANCH  14  15
ATOM     15  O   UNL     1       9.697   2.104  23.936  0.00  0.00    -0.282 OA
BRANCH  15  16
ATOM     16  P   UNL     1       8.715   1.986  22.517  0.00  0.00    +0.473 P 
ATOM     17  O   UNL     1       7.835   1.880  21.247  0.00  0.00    -0.228 OA
BRANCH  16  18
ATOM     18  O   UNL     1      10.133   1.884  21.705  0.00  0.00    -0.303 OA
ATOM     19  H   UNL     1      10.802   1.378  22.200  0.00  0.00    +0.222 HD
ENDBRANCH  16  18
BRANCH  16  20
ATOM     20  O   UNL     1       8.596   3.615  22.557  0.00  0.00    -0.303 OA
ATOM     21  H   UNL     1       7.638   3.796  22.651  0.00  0.00    +0.222 HD
ENDBRANCH  16  20
ENDBRANCH  15  16
ENDBRANCH  14  15
ENDBRANCH   5  14
TORSDOF 8
ENDMDL
MODEL 3
REMARK VINA RESULT:      -5.1      4.235      5.851
REMARK  Name = 
REMARK  9 active torsions:
REMARK  status: ('A' for Active; 'I' for Inactive)
REMARK    1  A    between atoms: C_1  and  C_2
REMARK    2  A    between atoms: C_5  and  C_6
REMARK    3  A    between atoms: C_6  and  O_7
REMARK    4  A    between atoms: O_7  and  P_8
REMARK    5  A    between atoms: P_8  and  O_9
REMARK    6  A    between atoms: P_8  and  O_10
REMARK    7  A    between atoms: C_12  and  C_13
REMARK    8  A    between atoms: C_13  and  N_14
REMARK    9  A    between atoms: C_15  and  O_16
REMARK                            x       y       z     vdW  Elec       q    Type
REMARK                         _______ _______ _______ _____ _____    ______ ____
ROOT
ATOM      1  C   UNL     1       8.624  -1.818  22.071  0.00  0.00    +0.069 C 
ATOM      2  C   UNL     1       7.946  -2.809  22.967  0.00  0.00    +0.080 A 
ATOM      3  C   UNL     1       8.669  -3.508  23.938  0.00  0.00    +0.142 A 
ATOM      4  C   UNL     1       8.030  -4.462  24.756  0.00  0.00    +0.016 A 
ATOM      5  C   UNL     1       6.631  -4.636  24.592  0.00  0.00    +0.005 A 
ATOM      6  C   UNL     1       6.003  -3.892  23.594  0.00  0.00    +0.117 A 
ATOM      7  N   UNL     1       6.619  -2.995  22.788  0.00  0.00    -0.256 NA
ENDROOT
BRANCH   3   8
ATOM      8  O   UNL     1      10.013  -3.255  24.052  0.00  0.00    -0.505 OA
ATOM      9  H   UNL     1      10.118  -2.279  23.962  0.00  0.00    +0.292 HD
ENDBRANCH   3   8
BRANCH   4  10
ATOM     10  C   UNL     1       8.779  -5.216  25.835  0.00  0.00    +0.117 C 
BRANCH  10  11
ATOM     11  N   UNL     1      10.078  -5.732  25.367  0.00  0.00    -0.326 NA
ATOM     12  H   UNL     1      10.145  -6.710  25.660  0.00  0.00    +0.119 HD
ATOM     13  H   UNL     1      10.045  -5.771  24.345  0.00  0.00    +0.119 HD
ENDBRANCH  10  11
ENDBRANCH   4  10
BRANCH   5  14
ATOM     14  C   UNL     1       5.801  -5.582  25.420  0.00  0.00    +0.209 C 
BRANCH  14  15
ATOM     15  O   UNL     1       4.443  -5.487  25.016  0.00  0.00    -0.282 OA
BRANCH  15  16
ATOM     16  P   UNL     1       3.621  -7.000  24.856  0.00  0.00    +0.473 P 
ATOM     17  O   UNL     1       2.885  -8.355  24.712  0.00  0.00    -0.228 OA
BRANCH  16  18
ATOM     18  O   UNL     1       4.426  -7.431  26.215  0.00  0.00    -0.303 OA
ATOM     19  H   UNL     1       5.086  -8.127  26.043  0.00  0.00    +0.222 HD
ENDBRANCH  16  18
BRANCH  16  20
ATOM     20  O   UNL     1       4.769  -7.422  23.772  0.00  0.00    -0.303 OA
ATOM     21  H   UNL     1       4.895  -8.384  23.899  0.00  0.00    +0.222 HD
ENDBRANCH  16  20
ENDBRANCH  15  16
ENDBRANCH  14  15
ENDBRANCH   5  14
TORSDOF 8
ENDMDL
MODEL 4
REMARK VINA RESULT:      -5.1      3.773      4.905
REMARK  Name = 
REMARK  9 active torsions:
REMARK  status: ('A' for Active; 'I' for Inactive)
REMARK    1  A    between atoms: C_1  and  C_2
REMARK    2  A    between atoms: C_5  and  C_6
REMARK    3  A    between atoms: C_6  and  O_7
REMARK    4  A    between atoms: O_7  and  P_8
REMARK    5  A    between atoms: P_8  and  O_9
REMARK    6  A    between atoms: P_8  and  O_10
REMARK    7  A    between atoms: C_12  and  C_13
REMARK    8  A    between atoms: C_13  and  N_14
REMARK    9  A    between atoms: C_15  and  O_16
REMARK                            x       y       z     vdW  Elec       q    Type
REMARK                         _______ _______ _______ _____ _____    ______ ____
ROOT
ATOM      1  C   UNL     1      10.025  -0.319  24.317  0.00  0.00    +0.069 C 
ATOM      2  C   UNL     1       9.035  -1.359  24.746  0.00  0.00    +0.080 A 
ATOM      3  C   UNL     1       9.242  -2.709  24.450  0.00  0.00    +0.142 A 
ATOM      4  C   UNL     1       8.290  -3.678  24.830  0.00  0.00    +0.016 A 
ATOM      5  C   UNL     1       7.160  -3.234  25.565  0.00  0.00    +0.005 A 
ATOM      6  C   UNL     1       7.045  -1.867  25.807  0.00  0.00    +0.117 A 
ATOM      7  N   UNL     1       7.944  -0.930  25.421  0.00  0.00    -0.256 NA
ENDROOT
BRANCH   3   8
ATOM      8  O   UNL     1      10.379  -3.055  23.765  0.00  0.00    -0.505 OA
ATOM      9  H   UNL     1      10.101  -3.215  22.832  0.00  0.00    +0.292 HD
ENDBRANCH   3   8
BRANCH   4  10
ATOM     10  C   UNL     1       8.497  -5.151  24.549  0.00  0.00    +0.117 C 
BRANCH  10  11
ATOM     11  N   UNL     1       9.664  -5.704  25.261  0.00  0.00    -0.326 NA
ATOM     12  H   UNL     1       9.319  -6.411  25.916  0.00  0.00    +0.119 HD
ATOM     13  H   UNL     1      10.220  -6.231  24.582  0.00  0.00    +0.119 HD
ENDBRANCH  10  11
ENDBRANCH   4  10
BRANCH   5  14
ATOM     14  C   UNL     1       6.082  -4.153  26.079  0.00  0.00    +0.209 C 
BRANCH  14  15
ATOM     15  O   UNL     1       6.249  -4.331  27.478  0.00  0.00    -0.282 OA
BRANCH  15  16
ATOM     16  P   UNL     1       6.068  -5.959  28.034  0.00  0.00    +0.473 P 
ATOM     17  O   UNL     1       5.905  -7.417  28.530  0.00  0.00    -0.228 OA
BRANCH  16  18
ATOM     18  O   UNL     1       6.162  -5.317  29.537  0.00  0.00    -0.303 OA
ATOM     19  H   UNL     1       5.364  -5.503  30.063  0.00  0.00    +0.222 HD
ENDBRANCH  16  18
BRANCH  16  20
ATOM     20  O   UNL     1       7.669  -6.147  27.769  0.00  0.00    -0.303 OA
ATOM     21  H   UNL     1       8.104  -5.725  28.538  0.00  0.00    +0.222 HD
ENDBRANCH  16  20
ENDBRANCH  15  16
ENDBRANCH  14  15
ENDBRANCH   5  14
TORSDOF 8
ENDMDL
MODEL 5
REMARK VINA RESULT:      -5.1      4.406      6.495
REMARK  Name = 
REMARK  9 active torsions:
REMARK  status: ('A' for Active; 'I' for Inactive)
REMARK    1  A    between atoms: C_1  and  C_2
REMARK    2  A    between atoms: C_5  and  C_6
REMARK    3  A    between atoms: C_6  and  O_7
REMARK    4  A    between atoms: O_7  and  P_8
REMARK    5  A    between atoms: P_8  and  O_9
REMARK    6  A    between atoms: P_8  and  O_10
REMARK    7  A    between atoms: C_12  and  C_13
REMARK    8  A    between atoms: C_13  and  N_14
REMARK    9  A    between atoms: C_15  and  O_16
REMARK                            x       y       z     vdW  Elec       q    Type
REMARK                         _______ _______ _______ _____ _____    ______ ____
ROOT
ATOM      1  C   UNL     1       5.049  -6.424  26.271  0.00  0.00    +0.069 C 
ATOM      2  C   UNL     1       5.920  -5.581  25.390  0.00  0.00    +0.080 A 
ATOM      3  C   UNL     1       7.254  -5.336  25.725  0.00  0.00    +0.142 A 
ATOM      4  C   UNL     1       8.058  -4.516  24.908  0.00  0.00    +0.016 A 
ATOM      5  C   UNL     1       7.478  -4.005  23.718  0.00  0.00    +0.005 A 
ATOM      6  C   UNL     1       6.139  -4.305  23.475  0.00  0.00    +0.117 A 
ATOM      7  N   UNL     1       5.356  -5.071  24.272  0.00  0.00    -0.256 NA
ENDROOT
BRANCH   3   8
ATOM      8  O   UNL     1       7.746  -5.898  26.878  0.00  0.00    -0.505 OA
ATOM      9  H   UNL     1       8.257  -6.694  26.600  0.00  0.00    +0.292 HD
ENDBRANCH   3   8
BRANCH   4  10
ATOM     10  C   UNL     1       9.515  -4.255  25.228  0.00  0.00    +0.117 C 
BRANCH  10  11
ATOM     11  N   UNL     1      10.293  -5.498  25.376  0.00  0.00    -0.326 NA
ATOM     12  H   UNL     1       9.969  -5.966  26.226  0.00  0.00    +0.119 HD
ATOM     13  H   UNL     1      10.021  -6.126  24.615  0.00  0.00    +0.119 HD
ENDBRANCH  10  11
ENDBRANCH   4  10
BRANCH   5  14
ATOM     14  C   UNL     1       8.221  -3.153  22.722  0.00  0.00    +0.209 C 
BRANCH  14  15
ATOM     15  O   UNL     1       7.797  -1.804  22.855  0.00  0.00    -0.282 OA
BRANCH  15  16
ATOM     16  P   UNL     1       8.972  -0.621  22.393  0.00  0.00    +0.473 P 
ATOM     17  O   UNL     1      10.023   0.439  21.980  0.00  0.00    -0.228 OA
BRANCH  16  18
ATOM     18  O   UNL     1       9.637  -1.822  21.501  0.00  0.00    -0.303 OA
ATOM     19  H   UNL     1      10.468  -1.543  21.077  0.00  0.00    +0.222 HD
ENDBRANCH  16  18
BRANCH  16  20
ATOM     20  O   UNL     1       9.734  -0.939  23.803  0.00  0.00    -0.303 OA
ATOM     21  H   UNL     1       9.293  -1.739  24.154  0.00  0.00    +0.222 HD
ENDBRANCH  16  20
ENDBRANCH  15  16
ENDBRANCH  14  15
ENDBRANCH   5  14
TORSDOF 8
ENDMDL
MODEL 6
REMARK VINA RESULT:      -5.0      3.320      5.655
REMARK  Name = 
REMARK  9 active torsions:
REMARK  status: ('A' for Active; 'I' for Inactive)
REMARK    1  A    between atoms: C_1  and  C_2
REMARK    2  A    between atoms: C_5  and  C_6
REMARK    3  A    between atoms: C_6  and  O_7
REMARK    4  A    between atoms: O_7  and  P_8
REMARK    5  A    between atoms: P_8  and  O_9
REMARK    6  A    between atoms: P_8  and  O_10
REMARK    7  A    between atoms: C_12  and  C_13
REMARK    8  A    between atoms: C_13  and  N_14
REMARK    9  A    between atoms: C_15  and  O_16
REMARK                            x       y       z     vdW  Elec       q    Type
REMARK                         _______ _______ _______ _____ _____    ______ ____
ROOT
ATOM      1  C   UNL     1       9.743  -3.098  24.202  0.00  0.00    +0.069 C 
ATOM      2  C   UNL     1       9.352  -1.654  24.103  0.00  0.00    +0.080 A 
ATOM      3  C   UNL     1       9.475  -0.961  22.896  0.00  0.00    +0.142 A 
ATOM      4  C   UNL     1       9.136   0.405  22.818  0.00  0.00    +0.016 A 
ATOM      5  C   UNL     1       8.618   1.020  23.987  0.00  0.00    +0.005 A 
ATOM      6  C   UNL     1       8.537   0.243  25.141  0.00  0.00    +0.117 A 
ATOM      7  N   UNL     1       8.887  -1.063  25.226  0.00  0.00    -0.256 NA
ENDROOT
BRANCH   3   8
ATOM      8  O   UNL     1       9.953  -1.642  21.804  0.00  0.00    -0.505 OA
ATOM      9  H   UNL     1      10.358  -2.471  22.151  0.00  0.00    +0.292 HD
ENDBRANCH   3   8
BRANCH   4  10
ATOM     10  C   UNL     1       9.230   1.177  21.519  0.00  0.00    +0.117 C 
BRANCH  10  11
ATOM     11  N   UNL     1      10.280   2.212  21.551  0.00  0.00    -0.326 NA
ATOM     12  H   UNL     1      10.055   2.903  20.831  0.00  0.00    +0.119 HD
ATOM     13  H   UNL     1      10.186   2.720  22.435  0.00  0.00    +0.119 HD
ENDBRANCH  10  11
ENDBRANCH   4  10
BRANCH   5  14
ATOM     14  C   UNL     1       8.169   2.457  24.050  0.00  0.00    +0.209 C 
BRANCH  14  15
ATOM     15  O   UNL     1       9.248   3.263  24.501  0.00  0.00    -0.282 OA
BRANCH  15  16
ATOM     16  P   UNL     1       9.221   4.899  23.941  0.00  0.00    +0.473 P 
ATOM     17  O   UNL     1       9.197   6.365  23.440  0.00  0.00    -0.228 OA
BRANCH  16  18
ATOM     18  O   UNL     1       8.297   4.326  22.717  0.00  0.00    -0.303 OA
ATOM     19  H   UNL     1       7.790   5.034  22.280  0.00  0.00    +0.222 HD
ENDBRANCH  16  18
BRANCH  16  20
ATOM     20  O   UNL     1      10.684   4.613  23.270  0.00  0.00    -0.303 OA
ATOM     21  H   UNL     1      11.324   4.734  24.000  0.00  0.00    +0.222 HD
ENDBRANCH  16  20
ENDBRANCH  15  16
ENDBRANCH  14  15
ENDBRANCH   5  14
TORSDOF 8
ENDMDL
MODEL 7
REMARK VINA RESULT:      -5.0      2.017      3.176
REMARK  Name = 
REMARK  9 active torsions:
REMARK  status: ('A' for Active; 'I' for Inactive)
REMARK    1  A    between atoms: C_1  and  C_2
REMARK    2  A    between atoms: C_5  and  C_6
REMARK    3  A    between atoms: C_6  and  O_7
REMARK    4  A    between atoms: O_7  and  P_8
REMARK    5  A    between atoms: P_8  and  O_9
REMARK    6  A    between atoms: P_8  and  O_10
REMARK    7  A    between atoms: C_12  and  C_13
REMARK    8  A    between atoms: C_13  and  N_14
REMARK    9  A    between atoms: C_15  and  O_16
REMARK                            x       y       z     vdW  Elec       q    Type
REMARK                         _______ _______ _______ _____ _____    ______ ____
ROOT
ATOM      1  C   UNL     1      10.265   1.955  22.205  0.00  0.00    +0.069 C 
ATOM      2  C   UNL     1       9.717   0.638  22.665  0.00  0.00    +0.080 A 
ATOM      3  C   UNL     1       9.148   0.504  23.934  0.00  0.00    +0.142 A 
ATOM      4  C   UNL     1       8.662  -0.745  24.372  0.00  0.00    +0.016 A 
ATOM      5  C   UNL     1       8.723  -1.829  23.458  0.00  0.00    +0.005 A 
ATOM      6  C   UNL     1       9.311  -1.593  22.217  0.00  0.00    +0.117 A 
ATOM      7  N   UNL     1       9.803  -0.401  21.803  0.00  0.00    -0.256 NA
ENDROOT
BRANCH   3   8
ATOM      8  O   UNL     1       9.098   1.613  24.742  0.00  0.00    -0.505 OA
ATOM      9  H   UNL     1       9.898   2.147  24.527  0.00  0.00    +0.292 HD
ENDBRANCH   3   8
BRANCH   4  10
ATOM     10  C   UNL     1       8.015  -0.918  25.729  0.00  0.00    +0.117 C 
BRANCH  10  11
ATOM     11  N   UNL     1       8.962  -0.703  26.839  0.00  0.00    -0.326 NA
ATOM     12  H   UNL     1       9.904  -0.679  26.440  0.00  0.00    +0.119 HD
ATOM     13  H   UNL     1       8.809   0.244  27.197  0.00  0.00    +0.119 HD
ENDBRANCH  10  11
ENDBRANCH   4  10
BRANCH   5  14
ATOM     14  C   UNL     1       8.205  -3.212  23.761  0.00  0.00    +0.209 C 
BRANCH  14  15
ATOM     15  O   UNL     1       9.124  -3.877  24.615  0.00  0.00    -0.282 OA
BRANCH  15  16
ATOM     16  P   UNL     1       8.408  -4.965  25.753  0.00  0.00    +0.473 P 
ATOM     17  O   UNL     1       7.765  -5.939  26.772  0.00  0.00    -0.228 OA
BRANCH  16  18
ATOM     18  O   UNL     1       9.005  -3.955  26.894  0.00  0.00    -0.303 OA
ATOM     19  H   UNL     1       8.297  -3.523  27.406  0.00  0.00    +0.222 HD
ENDBRANCH  16  18
BRANCH  16  20
ATOM     20  O   UNL     1       9.731  -5.906  25.571  0.00  0.00    -0.303 OA
ATOM     21  H   UNL     1       9.391  -6.824  25.586  0.00  0.00    +0.222 HD
ENDBRANCH  16  20
ENDBRANCH  15  16
ENDBRANCH  14  15
ENDBRANCH   5  14
TORSDOF 8
ENDMDL
MODEL 8
REMARK VINA RESULT:      -4.7      1.911      2.474
REMARK  Name = 
REMARK  9 active torsions:
REMARK  status: ('A' for Active; 'I' for Inactive)
REMARK    1  A    between atoms: C_1  and  C_2
REMARK    2  A    between atoms: C_5  and  C_6
REMARK    3  A    between atoms: C_6  and  O_7
REMARK    4  A    between atoms: O_7  and  P_8
REMARK    5  A    between atoms: P_8  and  O_9
REMARK    6  A    between atoms: P_8  and  O_10
REMARK    7  A    between atoms: C_12  and  C_13
REMARK    8  A    between atoms: C_13  and  N_14
REMARK    9  A    between atoms: C_15  and  O_16
REMARK                            x       y       z     vdW  Elec       q    Type
REMARK                         _______ _______ _______ _____ _____    ______ ____
ROOT
ATOM      1  C   UNL     1      10.502   2.788  23.719  0.00  0.00    +0.069 C 
ATOM      2  C   UNL     1       9.978   1.385  23.638  0.00  0.00    +0.080 A 
ATOM      3  C   UNL     1       8.619   1.141  23.423  0.00  0.00    +0.142 A 
ATOM      4  C   UNL     1       8.129  -0.180  23.379  0.00  0.00    +0.016 A 
ATOM      5  C   UNL     1       9.071  -1.234  23.502  0.00  0.00    +0.005 A 
ATOM      6  C   UNL     1      10.403  -0.885  23.716  0.00  0.00    +0.117 A 
ATOM      7  N   UNL     1      10.874   0.384  23.786  0.00  0.00    -0.256 NA
ENDROOT
BRANCH   3   8
ATOM      8  O   UNL     1       7.781   2.218  23.280  0.00  0.00    -0.505 OA
ATOM      9  H   UNL     1       6.878   1.848  23.139  0.00  0.00    +0.292 HD
ENDBRANCH   3   8
BRANCH   4  10
ATOM     10  C   UNL     1       6.667  -0.481  23.120  0.00  0.00    +0.117 C 
BRANCH  10  11
ATOM     11  N   UNL     1       5.784   0.065  24.167  0.00  0.00    -0.326 NA
ATOM     12  H   UNL     1       5.423   0.961  23.831  0.00  0.00    +0.119 HD
ATOM     13  H   UNL     1       4.960  -0.541  24.223  0.00  0.00    +0.119 HD
ENDBRANCH  10  11
ENDBRANCH   4  10
BRANCH   5  14
ATOM     14  C   UNL     1       8.709  -2.696  23.430  0.00  0.00    +0.209 C 
BRANCH  14  15
ATOM     15  O   UNL     1       9.650  -3.447  24.183  0.00  0.00    -0.282 OA
BRANCH  15  16
ATOM     16  P   UNL     1       8.970  -4.707  25.153  0.00  0.00    +0.473 P 
ATOM     17  O   UNL     1       8.360  -5.834  26.023  0.00  0.00    -0.228 OA
BRANCH  16  18
ATOM     18  O   UNL     1      10.479  -5.341  25.153  0.00  0.00    -0.303 OA
ATOM     19  H   UNL     1      11.146  -4.696  25.450  0.00  0.00    +0.222 HD
ENDBRANCH  16  18
BRANCH  16  20
ATOM     20  O   UNL     1       8.441  -5.386  23.765  0.00  0.00    -0.303 OA
ATOM     21  H   UNL     1       8.813  -6.291  23.769  0.00  0.00    +0.222 HD
ENDBRANCH  16  20
ENDBRANCH  15  16
ENDBRANCH  14  15
ENDBRANCH   5  14
TORSDOF 8
ENDMDL
MODEL 9
REMARK VINA RESULT:      -4.7      2.207      3.391
REMARK  Name = 
REMARK  9 active torsions:
REMARK  status: ('A' for Active; 'I' for Inactive)
REMARK    1  A    between atoms: C_1  and  C_2
REMARK    2  A    between atoms: C_5  and  C_6
REMARK    3  A    between atoms: C_6  and  O_7
REMARK    4  A    between atoms: O_7  and  P_8
REMARK    5  A    between atoms: P_8  and  O_9
REMARK    6  A    between atoms: P_8  and  O_10
REMARK    7  A    between atoms: C_12  and  C_13
REMARK    8  A    between atoms: C_13  and  N_14
REMARK    9  A    between atoms: C_15  and  O_16
REMARK                            x       y       z     vdW  Elec       q    Type
REMARK                         _______ _______ _______ _____ _____    ______ ____
ROOT
ATOM      1  C   UNL     1      10.213   1.874  22.802  0.00  0.00    +0.069 C 
ATOM      2  C   UNL     1       9.934   0.508  23.353  0.00  0.00    +0.080 A 
ATOM      3  C   UNL     1       9.353   0.350  24.614  0.00  0.00    +0.142 A 
ATOM      4  C   UNL     1       9.123  -0.938  25.138  0.00  0.00    +0.016 A 
ATOM      5  C   UNL     1       9.448  -2.049  24.317  0.00  0.00    +0.005 A 
ATOM      6  C   UNL     1      10.025  -1.784  23.076  0.00  0.00    +0.117 A 
ATOM      7  N   UNL     1      10.273  -0.548  22.580  0.00  0.00    -0.256 NA
ENDROOT
BRANCH   3   8
ATOM      8  O   UNL     1       9.038   1.479  25.329  0.00  0.00    -0.505 OA
ATOM      9  H   UNL     1       8.620   2.102  24.690  0.00  0.00    +0.292 HD
ENDBRANCH   3   8
BRANCH   4  10
ATOM     10  C   UNL     1       8.470  -1.144  26.489  0.00  0.00    +0.117 C 
BRANCH  10  11
ATOM     11  N   UNL     1       9.165  -0.421  27.569  0.00  0.00    -0.326 NA
ATOM     12  H   UNL     1      10.170  -0.493  27.392  0.00  0.00    +0.119 HD
ATOM     13  H   UNL     1       8.954   0.575  27.460  0.00  0.00    +0.119 HD
ENDBRANCH  10  11
ENDBRANCH   4  10
BRANCH   5  14
ATOM     14  C   UNL     1       9.218  -3.484  24.717  0.00  0.00    +0.209 C 
BRANCH  14  15
ATOM     15  O   UNL     1       8.819  -4.228  23.575  0.00  0.00    -0.282 OA
BRANCH  15  16
ATOM     16  P   UNL     1       7.120  -4.533  23.461  0.00  0.00    +0.473 P 
ATOM     17  O   UNL     1       5.599  -4.806  23.360  0.00  0.00    -0.228 OA
BRANCH  16  18
ATOM     18  O   UNL     1       7.551  -5.871  22.622  0.00  0.00    -0.303 OA
ATOM     19  H   UNL     1       7.128  -5.903  21.745  0.00  0.00    +0.222 HD
ENDBRANCH  16  18
BRANCH  16  20
ATOM     20  O   UNL     1       7.092  -3.482  22.210  0.00  0.00    -0.303 OA
ATOM     21  H   UNL     1       7.616  -2.713  22.515  0.00  0.00    +0.222 HD
ENDBRANCH  16  20
ENDBRANCH  15  16
ENDBRANCH  14  15
ENDBRANCH   5  14
TORSDOF 8
ENDMDL
