MODEL 1
REMARK VINA RESULT:      -6.6      0.000      0.000
REMARK  Name = 
REMARK  5 active torsions:
REMARK  status: ('A' for Active; 'I' for Inactive)
REMARK    1  A    between atoms: O_1  and  C_2
REMARK    2  A    between atoms: C_2  and  C_4
REMARK    3  A    between atoms: C_4  and  C_5
REMARK    4  A    between atoms: C_10  and  N_11
REMARK    5  A    between atoms: N_11  and  C_12
REMARK                            x       y       z     vdW  Elec       q    Type
REMARK                         _______ _______ _______ _____ _____    ______ ____
ROOT
ATOM      1  C   UNL     1       7.816  -4.222  23.602  0.00  0.00    -0.016 A 
ATOM      2  C   UNL     1       7.087  -3.104  23.125  0.00  0.00    +0.035 A 
ATOM      3  C   UNL     1       6.206  -3.326  22.051  0.00  0.00    +0.023 A 
ATOM      4  C   UNL     1       6.121  -4.550  21.385  0.00  0.00    +0.002 A 
ATOM      5  C   UNL     1       6.854  -5.630  21.846  0.00  0.00    +0.000 A 
ATOM      6  C   UNL     1       7.662  -5.477  22.965  0.00  0.00    +0.006 A 
ENDROOT
BRANCH   2   7
ATOM      7  N   UNL     1       7.294  -1.797  23.666  0.00  0.00    -0.312 N 
ATOM      8  H   UNL     1       6.475  -1.546  24.228  0.00  0.00    +0.152 HD
BRANCH   7   9
ATOM      9  C   UNL     1       7.813  -0.617  23.040  0.00  0.00    +0.068 A 
ATOM     10  C   UNL     1       7.083   0.589  23.132  0.00  0.00    +0.063 A 
ATOM     11 CL   UNL     1       5.884   0.798  24.364  0.00  0.00    -0.082 Cl
ATOM     12  C   UNL     1       7.349   1.676  22.288  0.00  0.00    +0.022 A 
ATOM     13  C   UNL     1       8.413   1.610  21.396  0.00  0.00    +0.003 A 
ATOM     14  C   UNL     1       9.291   0.533  21.471  0.00  0.00    +0.022 A 
ATOM     15  C   UNL     1       9.027  -0.541  22.335  0.00  0.00    +0.063 A 
ATOM     16 CL   UNL     1      10.334  -1.651  22.596  0.00  0.00    -0.082 Cl
ENDBRANCH   7   9
ENDBRANCH   2   7
BRANCH   1  17
ATOM     17  C   UNL     1       8.796  -4.161  24.753  0.00  0.00    +0.157 C 
BRANCH  17  18
ATOM     18  C   UNL     1       8.769  -5.382  25.649  0.00  0.00    +0.309 C 
ATOM     19  O   UNL     1       7.883  -5.731  26.409  0.00  0.00    -0.251 OA
BRANCH  18  20
ATOM     20  O   UNL     1       9.911  -6.101  25.557  0.00  0.00    -0.480 OA
ATOM     21  H   UNL     1      10.597  -5.450  25.296  0.00  0.00    +0.295 HD
ENDBRANCH  18  20
ENDBRANCH  17  18
ENDBRANCH   1  17
TORSDOF 5
ENDMDL
MODEL 2
REMARK VINA RESULT:      -6.1      1.774      2.126
REMARK  Name = 
REMARK  5 active torsions:
REMARK  status: ('A' for Active; 'I' for Inactive)
REMARK    1  A    between atoms: O_1  and  C_2
REMARK    2  A    between atoms: C_2  and  C_4
REMARK    3  A    between atoms: C_4  and  C_5
REMARK    4  A    between atoms: C_10  and  N_11
REMARK    5  A    between atoms: N_11  and  C_12
REMARK                            x       y       z     vdW  Elec       q    Type
REMARK                         _______ _______ _______ _____ _____    ______ ____
ROOT
ATOM      1  C   UNL     1       7.191  -4.501  23.710  0.00  0.00    -0.016 A 
ATOM      2  C   UNL     1       6.749  -3.256  23.198  0.00  0.00    +0.035 A 
ATOM      3  C   UNL     1       6.146  -3.266  21.927  0.00  0.00    +0.023 A 
ATOM      4  C   UNL     1       6.080  -4.411  21.131  0.00  0.00    +0.002 A 
ATOM      5  C   UNL     1       6.534  -5.618  21.632  0.00  0.00    +0.000 A 
ATOM      6  C   UNL     1       7.048  -5.669  22.921  0.00  0.00    +0.006 A 
ENDROOT
BRANCH   2   7
ATOM      7  N   UNL     1       6.973  -2.038  23.911  0.00  0.00    -0.312 N 
ATOM      8  H   UNL     1       6.242  -1.371  23.647  0.00  0.00    +0.152 HD
BRANCH   7   9
ATOM      9  C   UNL     1       8.194  -1.328  24.151  0.00  0.00    +0.068 A 
ATOM     10  C   UNL     1       8.526  -0.958  25.474  0.00  0.00    +0.063 A 
ATOM     11 CL   UNL     1       7.786  -1.755  26.821  0.00  0.00    -0.082 Cl
ATOM     12  C   UNL     1       9.509   0.004  25.743  0.00  0.00    +0.022 A 
ATOM     13  C   UNL     1      10.245   0.548  24.697  0.00  0.00    +0.003 A 
ATOM     14  C   UNL     1      10.103   0.010  23.421  0.00  0.00    +0.022 A 
ATOM     15  C   UNL     1       9.129  -0.967  23.166  0.00  0.00    +0.063 A 
ATOM     16 CL   UNL     1       9.260  -1.799  21.650  0.00  0.00    -0.082 Cl
ENDBRANCH   7   9
ENDBRANCH   2   7
BRANCH   1  17
ATOM     17  C   UNL     1       7.849  -4.672  25.061  0.00  0.00    +0.157 C 
BRANCH  17  18
ATOM     18  C   UNL     1       9.351  -4.856  24.996  0.00  0.00    +0.309 C 
ATOM     19  O   UNL     1      10.171  -4.116  24.482  0.00  0.00    -0.251 OA
BRANCH  18  20
ATOM     20  O   UNL     1       9.743  -6.013  25.574  0.00  0.00    -0.480 OA
ATOM     21  H   UNL     1       9.575  -5.885  26.532  0.00  0.00    +0.295 HD
ENDBRANCH  18  20
ENDBRANCH  17  18
ENDBRANCH   1  17
TORSDOF 5
ENDMDL
MODEL 3
REMARK VINA RESULT:      -6.1      1.663      2.738
REMARK  Name = 
REMARK  5 active torsions:
REMARK  status: ('A' for Active; 'I' for Inactive)
REMARK    1  A    between atoms: O_1  and  C_2
REMARK    2  A    between atoms: C_2  and  C_4
REMARK    3  A    between atoms: C_4  and  C_5
REMARK    4  A    between atoms: C_10  and  N_11
REMARK    5  A    between atoms: N_11  and  C_12
REMARK                            x       y       z     vdW  Elec       q    Type
REMARK                         _______ _______ _______ _____ _____    ______ ____
ROOT
ATOM      1  C   UNL     1       7.077  -4.049  24.434  0.00  0.00    -0.016 A 
ATOM      2  C   UNL     1       7.242  -2.686  24.086  0.00  0.00    +0.035 A 
ATOM      3  C   UNL     1       6.463  -2.200  23.020  0.00  0.00    +0.023 A 
ATOM      4  C   UNL     1       5.648  -3.025  22.243  0.00  0.00    +0.002 A 
ATOM      5  C   UNL     1       5.512  -4.361  22.578  0.00  0.00    +0.000 A 
ATOM      6  C   UNL     1       6.188  -4.858  23.684  0.00  0.00    +0.006 A 
ENDROOT
BRANCH   2   7
ATOM      7  N   UNL     1       8.208  -1.863  24.744  0.00  0.00    -0.312 N 
ATOM      8  H   UNL     1       8.053  -1.929  25.755  0.00  0.00    +0.152 HD
BRANCH   7   9
ATOM      9  C   UNL     1       8.658  -0.542  24.423  0.00  0.00    +0.068 A 
ATOM     10  C   UNL     1       9.798  -0.382  23.602  0.00  0.00    +0.063 A 
ATOM     11 CL   UNL     1      10.341  -1.680  22.592  0.00  0.00    -0.082 Cl
ATOM     12  C   UNL     1      10.479   0.840  23.519  0.00  0.00    +0.022 A 
ATOM     13  C   UNL     1       9.979   1.953  24.185  0.00  0.00    +0.003 A 
ATOM     14  C   UNL     1       8.727   1.873  24.787  0.00  0.00    +0.022 A 
ATOM     15  C   UNL     1       8.043   0.649  24.847  0.00  0.00    +0.063 A 
ATOM     16 CL   UNL     1       6.374   0.729  25.309  0.00  0.00    -0.082 Cl
ENDBRANCH   7   9
ENDBRANCH   2   7
BRANCH   1  17
ATOM     17  C   UNL     1       7.825  -4.729  25.560  0.00  0.00    +0.157 C 
BRANCH  17  18
ATOM     18  C   UNL     1       9.246  -5.118  25.208  0.00  0.00    +0.309 C 
ATOM     19  O   UNL     1      10.088  -4.440  24.647  0.00  0.00    -0.251 OA
BRANCH  18  20
ATOM     20  O   UNL     1       9.525  -6.392  25.568  0.00  0.00    -0.480 OA
ATOM     21  H   UNL     1       8.946  -6.566  26.341  0.00  0.00    +0.295 HD
ENDBRANCH  18  20
ENDBRANCH  17  18
ENDBRANCH   1  17
TORSDOF 5
ENDMDL
MODEL 4
REMARK VINA RESULT:      -6.1      1.857      2.912
REMARK  Name = 
REMARK  5 active torsions:
REMARK  status: ('A' for Active; 'I' for Inactive)
REMARK    1  A    between atoms: O_1  and  C_2
REMARK    2  A    between atoms: C_2  and  C_4
REMARK    3  A    between atoms: C_4  and  C_5
REMARK    4  A    between atoms: C_10  and  N_11
REMARK    5  A    between atoms: N_11  and  C_12
REMARK                            x       y       z     vdW  Elec       q    Type
REMARK                         _______ _______ _______ _____ _____    ______ ____
ROOT
ATOM      1  C   UNL     1       7.795  -4.235  23.667  0.00  0.00    -0.016 A 
ATOM      2  C   UNL     1       7.705  -2.895  24.121  0.00  0.00    +0.035 A 
ATOM      3  C   UNL     1       8.164  -2.630  25.423  0.00  0.00    +0.023 A 
ATOM      4  C   UNL     1       8.582  -3.636  26.297  0.00  0.00    +0.002 A 
ATOM      5  C   UNL     1       8.646  -4.944  25.850  0.00  0.00    +0.000 A 
ATOM      6  C   UNL     1       8.294  -5.234  24.539  0.00  0.00    +0.006 A 
ENDROOT
BRANCH   2   7
ATOM      7  N   UNL     1       7.106  -1.878  23.315  0.00  0.00    -0.312 N 
ATOM      8  H   UNL     1       6.634  -2.327  22.525  0.00  0.00    +0.152 HD
BRANCH   7   9
ATOM      9  C   UNL     1       7.635  -0.616  22.890  0.00  0.00    +0.068 A 
ATOM     10  C   UNL     1       6.933   0.569  23.210  0.00  0.00    +0.063 A 
ATOM     11 CL   UNL     1       5.770   0.580  24.493  0.00  0.00    -0.082 Cl
ATOM     12  C   UNL     1       7.201   1.781  22.561  0.00  0.00    +0.022 A 
ATOM     13  C   UNL     1       8.241   1.854  21.641  0.00  0.00    +0.003 A 
ATOM     14  C   UNL     1       9.098   0.766  21.504  0.00  0.00    +0.022 A 
ATOM     15  C   UNL     1       8.832  -0.438  22.174  0.00  0.00    +0.063 A 
ATOM     16 CL   UNL     1      10.120  -1.599  22.202  0.00  0.00    -0.082 Cl
ENDBRANCH   7   9
ENDBRANCH   2   7
BRANCH   1  17
ATOM     17  C   UNL     1       7.357  -4.691  22.293  0.00  0.00    +0.157 C 
BRANCH  17  18
ATOM     18  C   UNL     1       5.865  -4.918  22.165  0.00  0.00    +0.309 C 
ATOM     19  O   UNL     1       4.981  -4.079  22.153  0.00  0.00    -0.251 OA
BRANCH  18  20
ATOM     20  O   UNL     1       5.559  -6.233  22.088  0.00  0.00    -0.480 OA
ATOM     21  H   UNL     1       5.515  -6.535  23.021  0.00  0.00    +0.295 HD
ENDBRANCH  18  20
ENDBRANCH  17  18
ENDBRANCH   1  17
TORSDOF 5
ENDMDL
MODEL 5
REMARK VINA RESULT:      -6.1      1.815      2.814
REMARK  Name = 
REMARK  5 active torsions:
REMARK  status: ('A' for Active; 'I' for Inactive)
REMARK    1  A    between atoms: O_1  and  C_2
REMARK    2  A    between atoms: C_2  and  C_4
REMARK    3  A    between atoms: C_4  and  C_5
REMARK    4  A    between atoms: C_10  and  N_11
REMARK    5  A    between atoms: N_11  and  C_12
REMARK                            x       y       z     vdW  Elec       q    Type
REMARK                         _______ _______ _______ _____ _____    ______ ____
ROOT
ATOM      1  C   UNL     1       6.886  -4.320  24.855  0.00  0.00    -0.016 A 
ATOM      2  C   UNL     1       7.751  -3.534  24.053  0.00  0.00    +0.035 A 
ATOM      3  C   UNL     1       7.691  -3.736  22.663  0.00  0.00    +0.023 A 
ATOM      4  C   UNL     1       6.915  -4.739  22.078  0.00  0.00    +0.002 A 
ATOM      5  C   UNL     1       6.090  -5.515  22.873  0.00  0.00    +0.000 A 
ATOM      6  C   UNL     1       6.048  -5.282  24.241  0.00  0.00    +0.006 A 
ENDROOT
BRANCH   2   7
ATOM      7  N   UNL     1       8.692  -2.632  24.639  0.00  0.00    -0.312 N 
ATOM      8  H   UNL     1       8.813  -2.886  25.624  0.00  0.00    +0.152 HD
BRANCH   7   9
ATOM      9  C   UNL     1       8.804  -1.210  24.505  0.00  0.00    +0.068 A 
ATOM     10  C   UNL     1       9.815  -0.674  23.675  0.00  0.00    +0.063 A 
ATOM     11 CL   UNL     1      10.564  -1.655  22.459  0.00  0.00    -0.082 Cl
ATOM     12  C   UNL     1      10.192   0.673  23.751  0.00  0.00    +0.022 A 
ATOM     13  C   UNL     1       9.503   1.534  24.596  0.00  0.00    +0.003 A 
ATOM     14  C   UNL     1       8.349   1.079  25.227  0.00  0.00    +0.022 A 
ATOM     15  C   UNL     1       7.968  -0.268  25.128  0.00  0.00    +0.063 A 
ATOM     16 CL   UNL     1       6.362  -0.649  25.661  0.00  0.00    -0.082 Cl
ENDBRANCH   7   9
ENDBRANCH   2   7
BRANCH   1  17
ATOM     17  C   UNL     1       6.815  -4.223  26.364  0.00  0.00    +0.157 C 
BRANCH  17  18
ATOM     18  C   UNL     1       7.669  -5.243  27.088  0.00  0.00    +0.309 C 
ATOM     19  O   UNL     1       7.319  -6.032  27.948  0.00  0.00    -0.251 OA
BRANCH  18  20
ATOM     20  O   UNL     1       8.962  -5.188  26.697  0.00  0.00    -0.480 OA
ATOM     21  H   UNL     1       9.050  -4.322  26.244  0.00  0.00    +0.295 HD
ENDBRANCH  18  20
ENDBRANCH  17  18
ENDBRANCH   1  17
TORSDOF 5
ENDMDL
MODEL 6
REMARK VINA RESULT:      -5.9      5.039      7.607
REMARK  Name = 
REMARK  5 active torsions:
REMARK  status: ('A' for Active; 'I' for Inactive)
REMARK    1  A    between atoms: O_1  and  C_2
REMARK    2  A    between atoms: C_2  and  C_4
REMARK    3  A    between atoms: C_4  and  C_5
REMARK    4  A    between atoms: C_10  and  N_11
REMARK    5  A    between atoms: N_11  and  C_12
REMARK                            x       y       z     vdW  Elec       q    Type
REMARK                         _______ _______ _______ _____ _____    ______ ____
ROOT
ATOM      1  C   UNL     1       9.916   3.773  23.858  0.00  0.00    -0.016 A 
ATOM      2  C   UNL     1       9.232   2.724  24.522  0.00  0.00    +0.035 A 
ATOM      3  C   UNL     1       7.905   2.975  24.915  0.00  0.00    +0.023 A 
ATOM      4  C   UNL     1       7.301   4.226  24.782  0.00  0.00    +0.002 A 
ATOM      5  C   UNL     1       7.986   5.251  24.151  0.00  0.00    +0.000 A 
ATOM      6  C   UNL     1       9.263   5.015  23.661  0.00  0.00    +0.006 A 
ENDROOT
BRANCH   2   7
ATOM      7  N   UNL     1       9.888   1.495  24.840  0.00  0.00    -0.312 N 
ATOM      8  H   UNL     1      10.898   1.667  24.871  0.00  0.00    +0.152 HD
BRANCH   7   9
ATOM      9  C   UNL     1       9.652   0.173  24.340  0.00  0.00    +0.068 A 
ATOM     10  C   UNL     1       9.145  -0.814  25.215  0.00  0.00    +0.063 A 
ATOM     11 CL   UNL     1       8.348  -0.360  26.683  0.00  0.00    -0.082 Cl
ATOM     12  C   UNL     1       9.201  -2.178  24.897  0.00  0.00    +0.022 A 
ATOM     13  C   UNL     1       9.683  -2.575  23.655  0.00  0.00    +0.003 A 
ATOM     14  C   UNL     1       9.947  -1.606  22.692  0.00  0.00    +0.022 A 
ATOM     15  C   UNL     1       9.869  -0.243  23.015  0.00  0.00    +0.063 A 
ATOM     16 CL   UNL     1       9.887   0.861  21.677  0.00  0.00    -0.082 Cl
ENDBRANCH   7   9
ENDBRANCH   2   7
BRANCH   1  17
ATOM     17  C   UNL     1      11.340   3.669  23.360  0.00  0.00    +0.157 C 
BRANCH  17  18
ATOM     18  C   UNL     1      12.077   4.992  23.319  0.00  0.00    +0.309 C 
ATOM     19  O   UNL     1      12.385   5.703  24.259  0.00  0.00    -0.251 OA
BRANCH  18  20
ATOM     20  O   UNL     1      12.366   5.369  22.053  0.00  0.00    -0.480 OA
ATOM     21  H   UNL     1      11.855   6.196  21.915  0.00  0.00    +0.295 HD
ENDBRANCH  18  20
ENDBRANCH  17  18
ENDBRANCH   1  17
TORSDOF 5
ENDMDL
MODEL 7
REMARK VINA RESULT:      -5.9      3.570      6.217
REMARK  Name = 
REMARK  5 active torsions:
REMARK  status: ('A' for Active; 'I' for Inactive)
REMARK    1  A    between atoms: O_1  and  C_2
REMARK    2  A    between atoms: C_2  and  C_4
REMARK    3  A    between atoms: C_4  and  C_5
REMARK    4  A    between atoms: C_10  and  N_11
REMARK    5  A    between atoms: N_11  and  C_12
REMARK                            x       y       z     vdW  Elec       q    Type
REMARK                         _______ _______ _______ _____ _____    ______ ____
ROOT
ATOM      1  C   UNL     1       8.362  -1.606  23.980  0.00  0.00    -0.016 A 
ATOM      2  C   UNL     1       8.284  -2.668  24.916  0.00  0.00    +0.035 A 
ATOM      3  C   UNL     1       8.367  -2.325  26.277  0.00  0.00    +0.023 A 
ATOM      4  C   UNL     1       8.635  -1.027  26.715  0.00  0.00    +0.002 A 
ATOM      5  C   UNL     1       8.730  -0.001  25.791  0.00  0.00    +0.000 A 
ATOM      6  C   UNL     1       8.557  -0.282  24.442  0.00  0.00    +0.006 A 
ENDROOT
BRANCH   2   7
ATOM      7  N   UNL     1       8.199  -4.029  24.489  0.00  0.00    -0.312 N 
ATOM      8  H   UNL     1       8.613  -4.101  23.554  0.00  0.00    +0.152 HD
BRANCH   7   9
ATOM      9  C   UNL     1       7.112  -4.957  24.593  0.00  0.00    +0.068 A 
ATOM     10  C   UNL     1       6.489  -5.423  23.414  0.00  0.00    +0.063 A 
ATOM     11 CL   UNL     1       7.301  -5.311  21.889  0.00  0.00    -0.082 Cl
ATOM     12  C   UNL     1       5.239  -6.055  23.444  0.00  0.00    +0.022 A 
ATOM     13  C   UNL     1       4.627  -6.314  24.665  0.00  0.00    +0.003 A 
ATOM     14  C   UNL     1       5.341  -6.089  25.838  0.00  0.00    +0.022 A 
ATOM     15  C   UNL     1       6.602  -5.475  25.797  0.00  0.00    +0.063 A 
ATOM     16 CL   UNL     1       7.536  -5.547  27.256  0.00  0.00    -0.082 Cl
ENDBRANCH   7   9
ENDBRANCH   2   7
BRANCH   1  17
ATOM     17  C   UNL     1       8.279  -1.796  22.481  0.00  0.00    +0.157 C 
BRANCH  17  18
ATOM     18  C   UNL     1       9.372  -1.086  21.709  0.00  0.00    +0.309 C 
ATOM     19  O   UNL     1       9.274  -0.077  21.033  0.00  0.00    -0.251 OA
BRANCH  18  20
ATOM     20  O   UNL     1      10.559  -1.726  21.811  0.00  0.00    -0.480 OA
ATOM     21  H   UNL     1      11.075  -1.197  22.456  0.00  0.00    +0.295 HD
ENDBRANCH  18  20
ENDBRANCH  17  18
ENDBRANCH   1  17
TORSDOF 5
ENDMDL
MODEL 8
REMARK VINA RESULT:      -5.8      2.635      5.401
REMARK  Name = 
REMARK  5 active torsions:
REMARK  status: ('A' for Active; 'I' for Inactive)
REMARK    1  A    between atoms: O_1  and  C_2
REMARK    2  A    between atoms: C_2  and  C_4
REMARK    3  A    between atoms: C_4  and  C_5
REMARK    4  A    between atoms: C_10  and  N_11
REMARK    5  A    between atoms: N_11  and  C_12
REMARK                            x       y       z     vdW  Elec       q    Type
REMARK                         _______ _______ _______ _____ _____    ______ ____
ROOT
ATOM      1  C   UNL     1       9.849  -0.038  23.896  0.00  0.00    -0.016 A 
ATOM      2  C   UNL     1       9.377  -1.133  23.131  0.00  0.00    +0.035 A 
ATOM      3  C   UNL     1       9.169  -0.911  21.758  0.00  0.00    +0.023 A 
ATOM      4  C   UNL     1       9.296   0.349  21.169  0.00  0.00    +0.002 A 
ATOM      5  C   UNL     1       9.737   1.417  21.930  0.00  0.00    +0.000 A 
ATOM      6  C   UNL     1      10.047   1.216  23.269  0.00  0.00    +0.006 A 
ENDROOT
BRANCH   2   7
ATOM      7  N   UNL     1       9.059  -2.384  23.744  0.00  0.00    -0.312 N 
ATOM      8  H   UNL     1       9.783  -3.063  23.489  0.00  0.00    +0.152 HD
BRANCH   7   9
ATOM      9  C   UNL     1       7.799  -3.060  23.850  0.00  0.00    +0.068 A 
ATOM     10  C   UNL     1       7.780  -4.439  24.158  0.00  0.00    +0.063 A 
ATOM     11 CL   UNL     1       9.157  -5.193  24.890  0.00  0.00    -0.082 Cl
ATOM     12  C   UNL     1       6.637  -5.222  23.955  0.00  0.00    +0.022 A 
ATOM     13  C   UNL     1       5.459  -4.623  23.525  0.00  0.00    +0.003 A 
ATOM     14  C   UNL     1       5.393  -3.234  23.461  0.00  0.00    +0.022 A 
ATOM     15  C   UNL     1       6.540  -2.456  23.686  0.00  0.00    +0.063 A 
ATOM     16 CL   UNL     1       6.279  -0.757  23.911  0.00  0.00    -0.082 Cl
ENDBRANCH   7   9
ENDBRANCH   2   7
BRANCH   1  17
ATOM     17  C   UNL     1      10.135  -0.106  25.380  0.00  0.00    +0.157 C 
BRANCH  17  18
ATOM     18  C   UNL     1       8.905  -0.332  26.235  0.00  0.00    +0.309 C 
ATOM     19  O   UNL     1       8.531  -1.374  26.744  0.00  0.00    -0.251 OA
BRANCH  18  20
ATOM     20  O   UNL     1       8.176   0.798  26.379  0.00  0.00    -0.480 OA
ATOM     21  H   UNL     1       7.644   0.651  27.190  0.00  0.00    +0.295 HD
ENDBRANCH  18  20
ENDBRANCH  17  18
ENDBRANCH   1  17
TORSDOF 5
ENDMDL
MODEL 9
REMARK VINA RESULT:      -5.7      3.313      6.072
REMARK  Name = 
REMARK  5 active torsions:
REMARK  status: ('A' for Active; 'I' for Inactive)
REMARK    1  A    between atoms: O_1  and  C_2
REMARK    2  A    between atoms: C_2  and  C_4
REMARK    3  A    between atoms: C_4  and  C_5
REMARK    4  A    between atoms: C_10  and  N_11
REMARK    5  A    between atoms: N_11  and  C_12
REMARK                            x       y       z     vdW  Elec       q    Type
REMARK                         _______ _______ _______ _____ _____    ______ ____
ROOT
ATOM      1  C   UNL     1       7.507   1.549  23.472  0.00  0.00    -0.016 A 
ATOM      2  C   UNL     1       7.140   0.309  24.052  0.00  0.00    +0.035 A 
ATOM      3  C   UNL     1       6.934   0.292  25.443  0.00  0.00    +0.023 A 
ATOM      4  C   UNL     1       7.190   1.396  26.259  0.00  0.00    +0.002 A 
ATOM      5  C   UNL     1       7.569   2.596  25.684  0.00  0.00    +0.000 A 
ATOM      6  C   UNL     1       7.688   2.681  24.303  0.00  0.00    +0.006 A 
ENDROOT
BRANCH   2   7
ATOM      7  N   UNL     1       7.055  -0.882  23.267  0.00  0.00    -0.312 N 
ATOM      8  H   UNL     1       6.079  -1.012  22.983  0.00  0.00    +0.152 HD
BRANCH   7   9
ATOM      9  C   UNL     1       7.658  -2.164  23.478  0.00  0.00    +0.068 A 
ATOM     10  C   UNL     1       6.976  -3.325  23.048  0.00  0.00    +0.063 A 
ATOM     11 CL   UNL     1       5.720  -3.217  21.860  0.00  0.00    -0.082 Cl
ATOM     12  C   UNL     1       7.334  -4.600  23.505  0.00  0.00    +0.022 A 
ATOM     13  C   UNL     1       8.442  -4.749  24.331  0.00  0.00    +0.003 A 
ATOM     14  C   UNL     1       9.269  -3.652  24.556  0.00  0.00    +0.022 A 
ATOM     15  C   UNL     1       8.911  -2.382  24.076  0.00  0.00    +0.063 A 
ATOM     16 CL   UNL     1      10.152  -1.172  24.118  0.00  0.00    -0.082 Cl
ENDBRANCH   7   9
ENDBRANCH   2   7
BRANCH   1  17
ATOM     17  C   UNL     1       7.756   1.747  21.993  0.00  0.00    +0.157 C 
BRANCH  17  18
ATOM     18  C   UNL     1       9.075   1.183  21.508  0.00  0.00    +0.309 C 
ATOM     19  O   UNL     1       9.311   0.044  21.145  0.00  0.00    -0.251 OA
BRANCH  18  20
ATOM     20  O   UNL     1      10.061   2.107  21.539  0.00  0.00    -0.480 OA
ATOM     21  H   UNL     1      10.753   1.718  22.116  0.00  0.00    +0.295 HD
ENDBRANCH  18  20
ENDBRANCH  17  18
ENDBRANCH   1  17
TORSDOF 5
ENDMDL
