MODEL 1
REMARK VINA RESULT:      -6.8      0.000      0.000
REMARK  Name = 
REMARK  8 active torsions:
REMARK  status: ('A' for Active; 'I' for Inactive)
REMARK    1  A    between atoms: O_1  and  C_2
REMARK    2  A    between atoms: C_2  and  C_4
REMARK    3  A    between atoms: C_6  and  N_11
REMARK    4  A    between atoms: C_9  and  O_10
REMARK    5  A    between atoms: N_12  and  C_13
REMARK    6  A    between atoms: C_16  and  O_17
REMARK    7  A    between atoms: C_18  and  C_20
REMARK    8  A    between atoms: C_20  and  O_21
REMARK                            x       y       z     vdW  Elec       q    Type
REMARK                         _______ _______ _______ _____ _____    ______ ____
ROOT
ATOM      1  N   UNL     1       7.842  -3.081  22.766  0.00  0.00    -0.149 NA
ATOM      2  N   UNL     1       7.309  -2.008  23.114  0.00  0.00    -0.149 NA
ENDROOT
BRANCH   1   7
ATOM      3  C   UNL     1       5.903  -5.696  24.651  0.00  0.00    +0.102 A 
ATOM      4  C   UNL     1       5.331  -6.380  23.571  0.00  0.00    +0.131 A 
ATOM      5  C   UNL     1       5.631  -6.009  22.264  0.00  0.00    +0.048 A 
ATOM      6  C   UNL     1       6.488  -4.929  22.033  0.00  0.00    +0.033 A 
ATOM      7  C   UNL     1       7.070  -4.220  23.092  0.00  0.00    +0.087 A 
ATOM      8  C   UNL     1       6.778  -4.624  24.402  0.00  0.00    +0.048 A 
BRANCH   3   9
ATOM      9  C   UNL     1       5.626  -6.040  26.072  0.00  0.00    +0.340 C 
ATOM     10  O   UNL     1       4.513  -6.345  26.469  0.00  0.00    -0.245 OA
BRANCH   9  11
ATOM     11  O   UNL     1       6.718  -6.057  26.864  0.00  0.00    -0.477 OA
ATOM     12  H   UNL     1       7.335  -6.787  26.635  0.00  0.00    +0.295 HD
ENDBRANCH   9  11
ENDBRANCH   3   9
BRANCH   4  13
ATOM     13  O   UNL     1       4.447  -7.400  23.799  0.00  0.00    -0.506 OA
ATOM     14  H   UNL     1       3.601  -7.188  23.358  0.00  0.00    +0.292 HD
ENDBRANCH   4  13
ENDBRANCH   1   7
BRANCH   2  15
ATOM     15  C   UNL     1       8.019  -0.883  22.644  0.00  0.00    +0.087 A 
ATOM     16  C   UNL     1       7.487   0.416  22.630  0.00  0.00    +0.048 A 
ATOM     17  C   UNL     1       8.262   1.522  22.238  0.00  0.00    +0.102 A 
ATOM     18  C   UNL     1       9.595   1.313  21.861  0.00  0.00    +0.131 A 
ATOM     19  C   UNL     1      10.140   0.029  21.860  0.00  0.00    +0.048 A 
ATOM     20  C   UNL     1       9.353  -1.058  22.253  0.00  0.00    +0.033 A 
BRANCH  17  21
ATOM     21  C   UNL     1       7.600   2.859  22.269  0.00  0.00    +0.340 C 
ATOM     22  O   UNL     1       6.421   3.014  21.994  0.00  0.00    -0.245 OA
BRANCH  21  23
ATOM     23  O   UNL     1       8.395   3.891  22.626  0.00  0.00    -0.477 OA
ATOM     24  H   UNL     1       8.186   4.714  22.133  0.00  0.00    +0.295 HD
ENDBRANCH  21  23
ENDBRANCH  17  21
BRANCH  18  25
ATOM     25  O   UNL     1      10.384   2.375  21.501  0.00  0.00    -0.506 OA
ATOM     26  H   UNL     1      10.042   2.752  20.666  0.00  0.00    +0.292 HD
ENDBRANCH  18  25
ENDBRANCH   2  15
TORSDOF 8
ENDMDL
MODEL 2
REMARK VINA RESULT:      -6.8      0.061      8.146
REMARK  Name = 
REMARK  8 active torsions:
REMARK  status: ('A' for Active; 'I' for Inactive)
REMARK    1  A    between atoms: O_1  and  C_2
REMARK    2  A    between atoms: C_2  and  C_4
REMARK    3  A    between atoms: C_6  and  N_11
REMARK    4  A    between atoms: C_9  and  O_10
REMARK    5  A    between atoms: N_12  and  C_13
REMARK    6  A    between atoms: C_16  and  O_17
REMARK    7  A    between atoms: C_18  and  C_20
REMARK    8  A    between atoms: C_20  and  O_21
REMARK                            x       y       z     vdW  Elec       q    Type
REMARK                         _______ _______ _______ _____ _____    ______ ____
ROOT
ATOM      1  N   UNL     1       7.313  -2.017  23.054  0.00  0.00    -0.149 NA
ATOM      2  N   UNL     1       7.855  -3.091  22.723  0.00  0.00    -0.149 NA
ENDROOT
BRANCH   1   7
ATOM      3  C   UNL     1       8.265   1.526  22.219  0.00  0.00    +0.102 A 
ATOM      4  C   UNL     1       9.607   1.326  21.871  0.00  0.00    +0.131 A 
ATOM      5  C   UNL     1      10.150   0.045  21.866  0.00  0.00    +0.048 A 
ATOM      6  C   UNL     1       9.355  -1.043  22.237  0.00  0.00    +0.033 A 
ATOM      7  C   UNL     1       8.011  -0.875  22.597  0.00  0.00    +0.087 A 
ATOM      8  C   UNL     1       7.473   0.419  22.572  0.00  0.00    +0.048 A 
BRANCH   3   9
ATOM      9  C   UNL     1       7.621   2.867  22.246  0.00  0.00    +0.340 C 
ATOM     10  O   UNL     1       6.447   3.038  21.960  0.00  0.00    -0.245 OA
BRANCH   9  11
ATOM     11  O   UNL     1       8.423   3.860  22.684  0.00  0.00    -0.477 OA
ATOM     12  H   UNL     1       9.295   3.862  22.234  0.00  0.00    +0.295 HD
ENDBRANCH   9  11
ENDBRANCH   3   9
BRANCH   4  13
ATOM     13  O   UNL     1      10.400   2.399  21.565  0.00  0.00    -0.506 OA
ATOM     14  H   UNL     1      11.045   2.530  22.287  0.00  0.00    +0.292 HD
ENDBRANCH   4  13
ENDBRANCH   1   7
BRANCH   2  15
ATOM     15  C   UNL     1       7.064  -4.211  23.054  0.00  0.00    +0.087 A 
ATOM     16  C   UNL     1       6.787  -4.599  24.375  0.00  0.00    +0.048 A 
ATOM     17  C   UNL     1       5.919  -5.668  24.660  0.00  0.00    +0.102 A 
ATOM     18  C   UNL     1       5.317  -6.350  23.594  0.00  0.00    +0.131 A 
ATOM     19  C   UNL     1       5.585  -5.986  22.275  0.00  0.00    +0.048 A 
ATOM     20  C   UNL     1       6.451  -4.920  22.013  0.00  0.00    +0.033 A 
BRANCH  17  21
ATOM     21  C   UNL     1       5.688  -5.990  26.098  0.00  0.00    +0.340 C 
ATOM     22  O   UNL     1       4.576  -6.208  26.551  0.00  0.00    -0.245 OA
BRANCH  21  23
ATOM     23  O   UNL     1       6.797  -6.026  26.868  0.00  0.00    -0.477 OA
ATOM     24  H   UNL     1       6.803  -5.318  27.550  0.00  0.00    +0.295 HD
ENDBRANCH  21  23
ENDBRANCH  17  21
BRANCH  18  25
ATOM     25  O   UNL     1       4.444  -7.380  23.840  0.00  0.00    -0.506 OA
ATOM     26  H   UNL     1       4.759  -7.880  24.619  0.00  0.00    +0.292 HD
ENDBRANCH  18  25
ENDBRANCH   2  15
TORSDOF 8
ENDMDL
MODEL 3
REMARK VINA RESULT:      -6.7      1.499      1.889
REMARK  Name = 
REMARK  8 active torsions:
REMARK  status: ('A' for Active; 'I' for Inactive)
REMARK    1  A    between atoms: O_1  and  C_2
REMARK    2  A    between atoms: C_2  and  C_4
REMARK    3  A    between atoms: C_6  and  N_11
REMARK    4  A    between atoms: C_9  and  O_10
REMARK    5  A    between atoms: N_12  and  C_13
REMARK    6  A    between atoms: C_16  and  O_17
REMARK    7  A    between atoms: C_18  and  C_20
REMARK    8  A    between atoms: C_20  and  O_21
REMARK                            x       y       z     vdW  Elec       q    Type
REMARK                         _______ _______ _______ _____ _____    ______ ____
ROOT
ATOM      1  N   UNL     1       6.937  -3.071  24.342  0.00  0.00    -0.149 NA
ATOM      2  N   UNL     1       7.719  -2.928  23.381  0.00  0.00    -0.149 NA
ENDROOT
BRANCH   1   7
ATOM      3  C   UNL     1       5.130  -6.199  25.393  0.00  0.00    +0.102 A 
ATOM      4  C   UNL     1       4.690  -6.642  24.139  0.00  0.00    +0.131 A 
ATOM      5  C   UNL     1       5.036  -5.945  22.985  0.00  0.00    +0.048 A 
ATOM      6  C   UNL     1       5.804  -4.781  23.086  0.00  0.00    +0.033 A 
ATOM      7  C   UNL     1       6.252  -4.308  24.326  0.00  0.00    +0.087 A 
ATOM      8  C   UNL     1       5.916  -5.037  25.476  0.00  0.00    +0.048 A 
BRANCH   3   9
ATOM      9  C   UNL     1       4.796  -6.895  26.665  0.00  0.00    +0.340 C 
ATOM     10  O   UNL     1       5.600  -7.023  27.574  0.00  0.00    -0.245 OA
BRANCH   9  11
ATOM     11  O   UNL     1       3.513  -7.304  26.756  0.00  0.00    -0.477 OA
ATOM     12  H   UNL     1       3.435  -8.210  27.127  0.00  0.00    +0.295 HD
ENDBRANCH   9  11
ENDBRANCH   3   9
BRANCH   4  13
ATOM     13  O   UNL     1       3.890  -7.748  24.046  0.00  0.00    -0.506 OA
ATOM     14  H   UNL     1       3.723  -8.092  24.945  0.00  0.00    +0.292 HD
ENDBRANCH   4  13
ENDBRANCH   1   7
BRANCH   2  15
ATOM     15  C   UNL     1       8.502  -1.760  23.499  0.00  0.00    +0.087 A 
ATOM     16  C   UNL     1       8.417  -0.680  22.608  0.00  0.00    +0.048 A 
ATOM     17  C   UNL     1       9.149   0.503  22.815  0.00  0.00    +0.102 A 
ATOM     18  C   UNL     1       9.973   0.596  23.944  0.00  0.00    +0.131 A 
ATOM     19  C   UNL     1      10.078  -0.469  24.838  0.00  0.00    +0.048 A 
ATOM     20  C   UNL     1       9.342  -1.637  24.614  0.00  0.00    +0.033 A 
BRANCH  17  21
ATOM     21  C   UNL     1       8.977   1.593  21.811  0.00  0.00    +0.340 C 
ATOM     22  O   UNL     1       7.894   1.866  21.319  0.00  0.00    -0.245 OA
BRANCH  21  23
ATOM     23  O   UNL     1      10.104   2.261  21.483  0.00  0.00    -0.477 OA
ATOM     24  H   UNL     1      10.174   2.427  20.517  0.00  0.00    +0.295 HD
ENDBRANCH  21  23
ENDBRANCH  17  21
BRANCH  18  25
ATOM     25  O   UNL     1      10.679   1.747  24.189  0.00  0.00    -0.506 OA
ATOM     26  H   UNL     1      10.099   2.514  24.015  0.00  0.00    +0.292 HD
ENDBRANCH  18  25
ENDBRANCH   2  15
TORSDOF 8
ENDMDL
MODEL 4
REMARK VINA RESULT:      -6.6      0.951      8.181
REMARK  Name = 
REMARK  8 active torsions:
REMARK  status: ('A' for Active; 'I' for Inactive)
REMARK    1  A    between atoms: O_1  and  C_2
REMARK    2  A    between atoms: C_2  and  C_4
REMARK    3  A    between atoms: C_6  and  N_11
REMARK    4  A    between atoms: C_9  and  O_10
REMARK    5  A    between atoms: N_12  and  C_13
REMARK    6  A    between atoms: C_16  and  O_17
REMARK    7  A    between atoms: C_18  and  C_20
REMARK    8  A    between atoms: C_20  and  O_21
REMARK                            x       y       z     vdW  Elec       q    Type
REMARK                         _______ _______ _______ _____ _____    ______ ____
ROOT
ATOM      1  N   UNL     1       6.998  -1.709  23.579  0.00  0.00    -0.149 NA
ATOM      2  N   UNL     1       7.697  -2.429  24.321  0.00  0.00    -0.149 NA
ENDROOT
BRANCH   1   7
ATOM      3  C   UNL     1       8.108   1.641  22.276  0.00  0.00    +0.102 A 
ATOM      4  C   UNL     1       9.408   1.311  21.874  0.00  0.00    +0.131 A 
ATOM      5  C   UNL     1       9.870   0.004  21.987  0.00  0.00    +0.048 A 
ATOM      6  C   UNL     1       9.036  -0.978  22.531  0.00  0.00    +0.033 A 
ATOM      7  C   UNL     1       7.733  -0.677  22.950  0.00  0.00    +0.087 A 
ATOM      8  C   UNL     1       7.275   0.640  22.804  0.00  0.00    +0.048 A 
BRANCH   3   9
ATOM      9  C   UNL     1       7.551   3.018  22.184  0.00  0.00    +0.340 C 
ATOM     10  O   UNL     1       6.378   3.237  21.928  0.00  0.00    -0.245 OA
BRANCH   9  11
ATOM     11  O   UNL     1       8.433   3.996  22.480  0.00  0.00    -0.477 OA
ATOM     12  H   UNL     1       8.024   4.889  22.455  0.00  0.00    +0.295 HD
ENDBRANCH   9  11
ENDBRANCH   3   9
BRANCH   4  13
ATOM     13  O   UNL     1      10.243   2.285  21.396  0.00  0.00    -0.506 OA
ATOM     14  H   UNL     1      11.122   1.892  21.231  0.00  0.00    +0.292 HD
ENDBRANCH   4  13
ENDBRANCH   1   7
BRANCH   2  15
ATOM     15  C   UNL     1       6.980  -3.539  24.816  0.00  0.00    +0.087 A 
ATOM     16  C   UNL     1       6.081  -4.286  24.040  0.00  0.00    +0.048 A 
ATOM     17  C   UNL     1       5.456  -5.440  24.546  0.00  0.00    +0.102 A 
ATOM     18  C   UNL     1       5.751  -5.848  25.854  0.00  0.00    +0.131 A 
ATOM     19  C   UNL     1       6.636  -5.114  26.644  0.00  0.00    +0.048 A 
ATOM     20  C   UNL     1       7.246  -3.970  26.122  0.00  0.00    +0.033 A 
BRANCH  17  21
ATOM     21  C   UNL     1       4.525  -6.165  23.632  0.00  0.00    +0.340 C 
ATOM     22  O   UNL     1       3.869  -5.593  22.778  0.00  0.00    -0.245 OA
BRANCH  21  23
ATOM     23  O   UNL     1       4.460  -7.501  23.814  0.00  0.00    -0.477 OA
ATOM     24  H   UNL     1       3.573  -7.795  24.119  0.00  0.00    +0.295 HD
ENDBRANCH  21  23
ENDBRANCH  17  21
BRANCH  18  25
ATOM     25  O   UNL     1       5.180  -6.985  26.367  0.00  0.00    -0.506 OA
ATOM     26  H   UNL     1       5.204  -6.935  27.343  0.00  0.00    +0.292 HD
ENDBRANCH  18  25
ENDBRANCH   2  15
TORSDOF 8
ENDMDL
MODEL 5
REMARK VINA RESULT:      -6.5      3.344      4.645
REMARK  Name = 
REMARK  8 active torsions:
REMARK  status: ('A' for Active; 'I' for Inactive)
REMARK    1  A    between atoms: O_1  and  C_2
REMARK    2  A    between atoms: C_2  and  C_4
REMARK    3  A    between atoms: C_6  and  N_11
REMARK    4  A    between atoms: C_9  and  O_10
REMARK    5  A    between atoms: N_12  and  C_13
REMARK    6  A    between atoms: C_16  and  O_17
REMARK    7  A    between atoms: C_18  and  C_20
REMARK    8  A    between atoms: C_20  and  O_21
REMARK                            x       y       z     vdW  Elec       q    Type
REMARK                         _______ _______ _______ _____ _____    ______ ____
ROOT
ATOM      1  N   UNL     1       8.897   0.646  24.258  0.00  0.00    -0.149 NA
ATOM      2  N   UNL     1       9.377   1.310  23.316  0.00  0.00    -0.149 NA
ENDROOT
BRANCH   1   7
ATOM      3  C   UNL     1       8.872  -3.110  24.477  0.00  0.00    +0.102 A 
ATOM      4  C   UNL     1       8.163  -3.402  23.305  0.00  0.00    +0.131 A 
ATOM      5  C   UNL     1       7.760  -2.380  22.451  0.00  0.00    +0.048 A 
ATOM      6  C   UNL     1       8.044  -1.052  22.783  0.00  0.00    +0.033 A 
ATOM      7  C   UNL     1       8.744  -0.726  23.952  0.00  0.00    +0.087 A 
ATOM      8  C   UNL     1       9.165  -1.771  24.788  0.00  0.00    +0.048 A 
BRANCH   3   9
ATOM      9  C   UNL     1       9.332  -4.153  25.433  0.00  0.00    +0.340 C 
ATOM     10  O   UNL     1       8.963  -4.187  26.596  0.00  0.00    -0.245 OA
BRANCH   9  11
ATOM     11  O   UNL     1      10.129  -5.096  24.888  0.00  0.00    -0.477 OA
ATOM     12  H   UNL     1      10.325  -5.826  25.514  0.00  0.00    +0.295 HD
ENDBRANCH   9  11
ENDBRANCH   3   9
BRANCH   4  13
ATOM     13  O   UNL     1       7.835  -4.699  23.010  0.00  0.00    -0.506 OA
ATOM     14  H   UNL     1       7.565  -4.749  22.073  0.00  0.00    +0.292 HD
ENDBRANCH   4  13
ENDBRANCH   1   7
BRANCH   2  15
ATOM     15  C   UNL     1       9.664   2.639  23.693  0.00  0.00    +0.087 A 
ATOM     16  C   UNL     1      10.856   3.298  23.355  0.00  0.00    +0.048 A 
ATOM     17  C   UNL     1      11.062   4.653  23.673  0.00  0.00    +0.102 A 
ATOM     18  C   UNL     1      10.044   5.352  24.336  0.00  0.00    +0.131 A 
ATOM     19  C   UNL     1       8.856   4.713  24.688  0.00  0.00    +0.048 A 
ATOM     20  C   UNL     1       8.671   3.365  24.363  0.00  0.00    +0.033 A 
BRANCH  17  21
ATOM     21  C   UNL     1      12.362   5.257  23.258  0.00  0.00    +0.340 C 
ATOM     22  O   UNL     1      12.799   5.155  22.124  0.00  0.00    -0.245 OA
BRANCH  21  23
ATOM     23  O   UNL     1      13.021   5.930  24.225  0.00  0.00    -0.477 OA
ATOM     24  H   UNL     1      12.413   6.351  24.871  0.00  0.00    +0.295 HD
ENDBRANCH  21  23
ENDBRANCH  17  21
BRANCH  18  25
ATOM     25  O   UNL     1      10.204   6.681  24.634  0.00  0.00    -0.506 OA
ATOM     26  H   UNL     1      11.047   6.796  25.115  0.00  0.00    +0.292 HD
ENDBRANCH  18  25
ENDBRANCH   2  15
TORSDOF 8
ENDMDL
MODEL 6
REMARK VINA RESULT:      -6.4      1.237      2.333
REMARK  Name = 
REMARK  8 active torsions:
REMARK  status: ('A' for Active; 'I' for Inactive)
REMARK    1  A    between atoms: O_1  and  C_2
REMARK    2  A    between atoms: C_2  and  C_4
REMARK    3  A    between atoms: C_6  and  N_11
REMARK    4  A    between atoms: C_9  and  O_10
REMARK    5  A    between atoms: N_12  and  C_13
REMARK    6  A    between atoms: C_16  and  O_17
REMARK    7  A    between atoms: C_18  and  C_20
REMARK    8  A    between atoms: C_20  and  O_21
REMARK                            x       y       z     vdW  Elec       q    Type
REMARK                         _______ _______ _______ _____ _____    ______ ____
ROOT
ATOM      1  N   UNL     1       6.633  -2.400  24.199  0.00  0.00    -0.149 NA
ATOM      2  N   UNL     1       7.646  -2.583  23.494  0.00  0.00    -0.149 NA
ENDROOT
BRANCH   1   7
ATOM      3  C   UNL     1       5.276  -5.780  25.141  0.00  0.00    +0.102 A 
ATOM      4  C   UNL     1       5.752  -5.860  26.456  0.00  0.00    +0.131 A 
ATOM      5  C   UNL     1       6.452  -4.796  27.017  0.00  0.00    +0.048 A 
ATOM      6  C   UNL     1       6.703  -3.654  26.251  0.00  0.00    +0.033 A 
ATOM      7  C   UNL     1       6.247  -3.548  24.930  0.00  0.00    +0.087 A 
ATOM      8  C   UNL     1       5.520  -4.618  24.389  0.00  0.00    +0.048 A 
BRANCH   3   9
ATOM      9  C   UNL     1       4.522  -6.879  24.480  0.00  0.00    +0.340 C 
ATOM     10  O   UNL     1       3.870  -7.699  25.106  0.00  0.00    -0.245 OA
BRANCH   9  11
ATOM     11  O   UNL     1       4.560  -6.847  23.131  0.00  0.00    -0.477 OA
ATOM     12  H   UNL     1       5.402  -7.205  22.772  0.00  0.00    +0.295 HD
ENDBRANCH   9  11
ENDBRANCH   3   9
BRANCH   4  13
ATOM     13  O   UNL     1       5.557  -7.001  27.186  0.00  0.00    -0.506 OA
ATOM     14  H   UNL     1       6.254  -7.062  27.867  0.00  0.00    +0.292 HD
ENDBRANCH   4  13
ENDBRANCH   1   7
BRANCH   2  15
ATOM     15  C   UNL     1       8.103  -1.389  22.897  0.00  0.00    +0.087 A 
ATOM     16  C   UNL     1       7.353  -0.203  22.869  0.00  0.00    +0.048 A 
ATOM     17  C   UNL     1       7.884   0.989  22.343  0.00  0.00    +0.102 A 
ATOM     18  C   UNL     1       9.193   0.982  21.845  0.00  0.00    +0.131 A 
ATOM     19  C   UNL     1       9.952  -0.189  21.856  0.00  0.00    +0.048 A 
ATOM     20  C   UNL     1       9.406  -1.363  22.383  0.00  0.00    +0.033 A 
BRANCH  17  21
ATOM     21  C   UNL     1       7.004   2.194  22.372  0.00  0.00    +0.340 C 
ATOM     22  O   UNL     1       7.406   3.306  22.074  0.00  0.00    -0.245 OA
BRANCH  21  23
ATOM     23  O   UNL     1       5.727   1.968  22.748  0.00  0.00    -0.477 OA
ATOM     24  H   UNL     1       5.236   2.801  22.928  0.00  0.00    +0.295 HD
ENDBRANCH  21  23
ENDBRANCH  17  21
BRANCH  18  25
ATOM     25  O   UNL     1       9.749   2.135  21.352  0.00  0.00    -0.506 OA
ATOM     26  H   UNL     1       9.287   2.378  20.525  0.00  0.00    +0.292 HD
ENDBRANCH  18  25
ENDBRANCH   2  15
TORSDOF 8
ENDMDL
MODEL 7
REMARK VINA RESULT:      -6.3      3.321      4.806
REMARK  Name = 
REMARK  8 active torsions:
REMARK  status: ('A' for Active; 'I' for Inactive)
REMARK    1  A    between atoms: O_1  and  C_2
REMARK    2  A    between atoms: C_2  and  C_4
REMARK    3  A    between atoms: C_6  and  N_11
REMARK    4  A    between atoms: C_9  and  O_10
REMARK    5  A    between atoms: N_12  and  C_13
REMARK    6  A    between atoms: C_16  and  O_17
REMARK    7  A    between atoms: C_18  and  C_20
REMARK    8  A    between atoms: C_20  and  O_21
REMARK                            x       y       z     vdW  Elec       q    Type
REMARK                         _______ _______ _______ _____ _____    ______ ____
ROOT
ATOM      1  N   UNL     1       8.627   0.777  23.863  0.00  0.00    -0.149 NA
ATOM      2  N   UNL     1       9.781   1.168  23.594  0.00  0.00    -0.149 NA
ENDROOT
BRANCH   1   7
ATOM      3  C   UNL     1       7.342  -2.708  23.264  0.00  0.00    +0.102 A 
ATOM      4  C   UNL     1       8.475  -3.438  23.645  0.00  0.00    +0.131 A 
ATOM      5  C   UNL     1       9.602  -2.785  24.134  0.00  0.00    +0.048 A 
ATOM      6  C   UNL     1       9.609  -1.390  24.219  0.00  0.00    +0.033 A 
ATOM      7  C   UNL     1       8.494  -0.631  23.838  0.00  0.00    +0.087 A 
ATOM      8  C   UNL     1       7.358  -1.307  23.372  0.00  0.00    +0.048 A 
BRANCH   3   9
ATOM      9  C   UNL     1       6.105  -3.341  22.732  0.00  0.00    +0.340 C 
ATOM     10  O   UNL     1       5.018  -3.218  23.274  0.00  0.00    -0.245 OA
BRANCH   9  11
ATOM     11  O   UNL     1       6.274  -3.999  21.566  0.00  0.00    -0.477 OA
ATOM     12  H   UNL     1       5.696  -4.791  21.496  0.00  0.00    +0.295 HD
ENDBRANCH   9  11
ENDBRANCH   3   9
BRANCH   4  13
ATOM     13  O   UNL     1       8.488  -4.800  23.507  0.00  0.00    -0.506 OA
ATOM     14  H   UNL     1       7.567  -5.119  23.445  0.00  0.00    +0.292 HD
ENDBRANCH   4  13
ENDBRANCH   1   7
BRANCH   2  15
ATOM     15  C   UNL     1       9.929   2.559  23.774  0.00  0.00    +0.087 A 
ATOM     16  C   UNL     1      11.099   3.261  23.448  0.00  0.00    +0.048 A 
ATOM     17  C   UNL     1      11.171   4.661  23.559  0.00  0.00    +0.102 A 
ATOM     18  C   UNL     1      10.040   5.362  23.999  0.00  0.00    +0.131 A 
ATOM     19  C   UNL     1       8.869   4.682  24.336  0.00  0.00    +0.048 A 
ATOM     20  C   UNL     1       8.819   3.289  24.219  0.00  0.00    +0.033 A 
BRANCH  17  21
ATOM     21  C   UNL     1      12.461   5.307  23.177  0.00  0.00    +0.340 C 
ATOM     22  O   UNL     1      12.920   5.237  22.048  0.00  0.00    -0.245 OA
BRANCH  21  23
ATOM     23  O   UNL     1      13.087   5.979  24.167  0.00  0.00    -0.477 OA
ATOM     24  H   UNL     1      14.019   5.692  24.284  0.00  0.00    +0.295 HD
ENDBRANCH  21  23
ENDBRANCH  17  21
BRANCH  18  25
ATOM     25  O   UNL     1      10.069   6.730  24.091  0.00  0.00    -0.506 OA
ATOM     26  H   UNL     1       9.151   7.064  24.110  0.00  0.00    +0.292 HD
ENDBRANCH  18  25
ENDBRANCH   2  15
TORSDOF 8
ENDMDL
MODEL 8
REMARK VINA RESULT:      -6.3      2.273      8.559
REMARK  Name = 
REMARK  8 active torsions:
REMARK  status: ('A' for Active; 'I' for Inactive)
REMARK    1  A    between atoms: O_1  and  C_2
REMARK    2  A    between atoms: C_2  and  C_4
REMARK    3  A    between atoms: C_6  and  N_11
REMARK    4  A    between atoms: C_9  and  O_10
REMARK    5  A    between atoms: N_12  and  C_13
REMARK    6  A    between atoms: C_16  and  O_17
REMARK    7  A    between atoms: C_18  and  C_20
REMARK    8  A    between atoms: C_20  and  O_21
REMARK                            x       y       z     vdW  Elec       q    Type
REMARK                         _______ _______ _______ _____ _____    ______ ____
ROOT
ATOM      1  N   UNL     1       8.080   0.045  23.409  0.00  0.00    -0.149 NA
ATOM      2  N   UNL     1       9.044  -0.746  23.371  0.00  0.00    -0.149 NA
ENDROOT
BRANCH   1   7
ATOM      3  C   UNL     1       8.052   3.755  22.786  0.00  0.00    +0.102 A 
ATOM      4  C   UNL     1       9.291   4.090  23.345  0.00  0.00    +0.131 A 
ATOM      5  C   UNL     1      10.123   3.100  23.859  0.00  0.00    +0.048 A 
ATOM      6  C   UNL     1       9.702   1.767  23.839  0.00  0.00    +0.033 A 
ATOM      7  C   UNL     1       8.465   1.401  23.294  0.00  0.00    +0.087 A 
ATOM      8  C   UNL     1       7.651   2.408  22.757  0.00  0.00    +0.048 A 
BRANCH   3   9
ATOM      9  C   UNL     1       7.114   4.762  22.220  0.00  0.00    +0.340 C 
ATOM     10  O   UNL     1       7.481   5.864  21.844  0.00  0.00    -0.245 OA
BRANCH   9  11
ATOM     11  O   UNL     1       5.842   4.328  22.090  0.00  0.00    -0.477 OA
ATOM     12  H   UNL     1       5.749   3.651  21.385  0.00  0.00    +0.295 HD
ENDBRANCH   9  11
ENDBRANCH   3   9
BRANCH   4  13
ATOM     13  O   UNL     1       9.677   5.402  23.416  0.00  0.00    -0.506 OA
ATOM     14  H   UNL     1       8.953   5.962  23.074  0.00  0.00    +0.292 HD
ENDBRANCH   4  13
ENDBRANCH   1   7
BRANCH   2  15
ATOM     15  C   UNL     1       8.627  -2.094  23.331  0.00  0.00    +0.087 A 
ATOM     16  C   UNL     1       9.005  -3.049  24.287  0.00  0.00    +0.048 A 
ATOM     17  C   UNL     1       8.493  -4.358  24.260  0.00  0.00    +0.102 A 
ATOM     18  C   UNL     1       7.579  -4.704  23.256  0.00  0.00    +0.131 A 
ATOM     19  C   UNL     1       7.196  -3.772  22.292  0.00  0.00    +0.048 A 
ATOM     20  C   UNL     1       7.717  -2.475  22.335  0.00  0.00    +0.033 A 
BRANCH  17  21
ATOM     21  C   UNL     1       8.955  -5.290  25.330  0.00  0.00    +0.340 C 
ATOM     22  O   UNL     1       8.193  -5.778  26.148  0.00  0.00    -0.245 OA
BRANCH  21  23
ATOM     23  O   UNL     1      10.279  -5.559  25.330  0.00  0.00    -0.477 OA
ATOM     24  H   UNL     1      10.529  -6.210  26.023  0.00  0.00    +0.295 HD
ENDBRANCH  21  23
ENDBRANCH  17  21
BRANCH  18  25
ATOM     25  O   UNL     1       7.040  -5.965  23.220  0.00  0.00    -0.506 OA
ATOM     26  H   UNL     1       6.893  -6.217  22.287  0.00  0.00    +0.292 HD
ENDBRANCH  18  25
ENDBRANCH   2  15
TORSDOF 8
ENDMDL
MODEL 9
REMARK VINA RESULT:      -6.2      2.360      3.063
REMARK  Name = 
REMARK  8 active torsions:
REMARK  status: ('A' for Active; 'I' for Inactive)
REMARK    1  A    between atoms: O_1  and  C_2
REMARK    2  A    between atoms: C_2  and  C_4
REMARK    3  A    between atoms: C_6  and  N_11
REMARK    4  A    between atoms: C_9  and  O_10
REMARK    5  A    between atoms: N_12  and  C_13
REMARK    6  A    between atoms: C_16  and  O_17
REMARK    7  A    between atoms: C_18  and  C_20
REMARK    8  A    between atoms: C_20  and  O_21
REMARK                            x       y       z     vdW  Elec       q    Type
REMARK                         _______ _______ _______ _____ _____    ______ ____
ROOT
ATOM      1  N   UNL     1       8.954  -0.553  23.796  0.00  0.00    -0.149 NA
ATOM      2  N   UNL     1       8.444   0.180  22.924  0.00  0.00    -0.149 NA
ENDROOT
BRANCH   1   7
ATOM      3  C   UNL     1       8.566  -4.252  24.359  0.00  0.00    +0.102 A 
ATOM      4  C   UNL     1       7.730  -4.562  23.279  0.00  0.00    +0.131 A 
ATOM      5  C   UNL     1       7.359  -3.576  22.370  0.00  0.00    +0.048 A 
ATOM      6  C   UNL     1       7.805  -2.264  22.556  0.00  0.00    +0.033 A 
ATOM      7  C   UNL     1       8.636  -1.921  23.630  0.00  0.00    +0.087 A 
ATOM      8  C   UNL     1       9.021  -2.932  24.522  0.00  0.00    +0.048 A 
BRANCH   3   9
ATOM      9  C   UNL     1       9.000  -5.257  25.368  0.00  0.00    +0.340 C 
ATOM     10  O   UNL     1       8.216  -5.819  26.115  0.00  0.00    -0.245 OA
BRANCH   9  11
ATOM     11  O   UNL     1      10.319  -5.545  25.334  0.00  0.00    -0.477 OA
ATOM     12  H   UNL     1      10.649  -5.883  26.195  0.00  0.00    +0.295 HD
ENDBRANCH   9  11
ENDBRANCH   3   9
BRANCH   4  13
ATOM     13  O   UNL     1       7.247  -5.834  23.131  0.00  0.00    -0.506 OA
ATOM     14  H   UNL     1       6.330  -5.786  22.797  0.00  0.00    +0.292 HD
ENDBRANCH   4  13
ENDBRANCH   1   7
BRANCH   2  15
ATOM     15  C   UNL     1       8.898   1.513  23.017  0.00  0.00    +0.087 A 
ATOM     16  C   UNL     1       8.052   2.627  22.906  0.00  0.00    +0.048 A 
ATOM     17  C   UNL     1       8.532   3.936  23.096  0.00  0.00    +0.102 A 
ATOM     18  C   UNL     1       9.885   4.119  23.409  0.00  0.00    +0.131 A 
ATOM     19  C   UNL     1      10.744   3.025  23.516  0.00  0.00    +0.048 A 
ATOM     20  C   UNL     1      10.248   1.732  23.323  0.00  0.00    +0.033 A 
BRANCH  17  21
ATOM     21  C   UNL     1       7.544   5.046  22.964  0.00  0.00    +0.340 C 
ATOM     22  O   UNL     1       7.341   5.853  23.856  0.00  0.00    -0.245 OA
BRANCH  21  23
ATOM     23  O   UNL     1       6.889   5.101  21.784  0.00  0.00    -0.477 OA
ATOM     24  H   UNL     1       7.335   4.576  21.083  0.00  0.00    +0.295 HD
ENDBRANCH  21  23
ENDBRANCH  17  21
BRANCH  18  25
ATOM     25  O   UNL     1      10.377   5.380  23.627  0.00  0.00    -0.506 OA
ATOM     26  H   UNL     1      11.140   5.527  23.034  0.00  0.00    +0.292 HD
ENDBRANCH  18  25
ENDBRANCH   2  15
TORSDOF 8
ENDMDL
