MODEL 1
REMARK VINA RESULT:      -5.7      0.000      0.000
REMARK  Name = 
REMARK  13 active torsions:
REMARK  status: ('A' for Active; 'I' for Inactive)
REMARK    1  A    between atoms: C_1  and  C_2
REMARK    2  A    between atoms: C_2  and  N_3
REMARK    3  A    between atoms: N_3  and  C_4
REMARK    4  A    between atoms: N_3  and  C_6
REMARK    5  A    between atoms: C_4  and  C_5
REMARK    6  A    between atoms: C_6  and  C_7
REMARK    7  A    between atoms: C_8  and  C_9
REMARK    8  A    between atoms: C_9  and  O_10
REMARK    9  A    between atoms: O_10  and  C_11
REMARK   10  A    between atoms: C_11  and  C_13
REMARK   11  A    between atoms: C_13  and  O_14
REMARK   12  A    between atoms: C_13  and  C_15
REMARK   13  A    between atoms: C_13  and  C_21
REMARK                            x       y       z     vdW  Elec       q    Type
REMARK                         _______ _______ _______ _____ _____    ______ ____
ROOT
ATOM      1  C   UNL     1       8.258  -1.511  24.031  0.00  0.00    +0.190 C 
ENDROOT
BRANCH   1   2
ATOM      2  C   UNL     1       7.423  -2.575  23.273  0.00  0.00    -0.005 A 
ATOM      3  C   UNL     1       7.990  -3.769  22.789  0.00  0.00    +0.007 A 
ATOM      4  C   UNL     1       7.196  -4.770  22.211  0.00  0.00    +0.000 A 
ATOM      5  C   UNL     1       5.818  -4.608  22.111  0.00  0.00    +0.000 A 
ATOM      6  C   UNL     1       5.230  -3.437  22.574  0.00  0.00    +0.000 A 
ATOM      7  C   UNL     1       6.025  -2.434  23.146  0.00  0.00    +0.007 A 
ENDBRANCH   1   2
BRANCH   1   8
ATOM      8  C   UNL     1       9.700  -1.227  23.449  0.00  0.00    +0.036 C 
ATOM      9  C   UNL     1      10.465  -0.049  24.115  0.00  0.00    +0.007 C 
ATOM     10  C   UNL     1      10.034   1.348  23.672  0.00  0.00    +0.000 C 
ATOM     11  C   UNL     1      10.046   1.500  22.158  0.00  0.00    +0.000 C 
ATOM     12  C   UNL     1       9.301   0.370  21.455  0.00  0.00    +0.000 C 
ATOM     13  C   UNL     1       9.773  -1.007  21.919  0.00  0.00    +0.007 C 
ENDBRANCH   1   8
BRANCH   1  14
ATOM     14  C   UNL     1       8.428  -2.008  25.523  0.00  0.00    +0.345 C 
ATOM     15  O   UNL     1       8.065  -1.407  26.524  0.00  0.00    -0.247 OA
BRANCH  14  16
ATOM     16  O   UNL     1       9.021  -3.246  25.540  0.00  0.00    -0.449 OA
BRANCH  16  17
ATOM     17  C   UNL     1       8.579  -4.137  26.584  0.00  0.00    +0.320 C 
BRANCH  17  19
ATOM     18  C   UNL     1       6.305  -5.575  25.891  0.00  0.00    -0.083 C 
ATOM     19  C   UNL     1       7.389  -4.916  26.191  0.00  0.00    -0.060 C 
BRANCH  18  20
ATOM     20  C   UNL     1       5.042  -6.344  25.539  0.00  0.00    +0.174 C 
BRANCH  20  21
ATOM     21  N   UNL     1       3.957  -5.452  25.096  0.00  0.00    -0.292 NA
BRANCH  21  23
ATOM     22  C   UNL     1       2.220  -5.539  23.268  0.00  0.00    +0.020 C 
ATOM     23  C   UNL     1       2.915  -6.249  24.426  0.00  0.00    +0.082 C 
ENDBRANCH  21  23
BRANCH  21  24
ATOM     24  C   UNL     1       3.440  -4.567  26.155  0.00  0.00    +0.082 C 
ATOM     25  C   UNL     1       3.478  -3.069  25.871  0.00  0.00    +0.020 C 
ENDBRANCH  21  24
ENDBRANCH  20  21
ENDBRANCH  18  20
ENDBRANCH  17  19
ENDBRANCH  16  17
ENDBRANCH  14  16
ENDBRANCH   1  14
BRANCH   1  26
ATOM     26  O   UNL     1       7.494  -0.296  23.987  0.00  0.00    -0.373 OA
ATOM     27  H   UNL     1       7.502   0.056  24.898  0.00  0.00    +0.211 HD
ENDBRANCH   1  26
TORSDOF 11
ENDMDL
MODEL 2
REMARK VINA RESULT:      -5.7      2.549      7.111
REMARK  Name = 
REMARK  13 active torsions:
REMARK  status: ('A' for Active; 'I' for Inactive)
REMARK    1  A    between atoms: C_1  and  C_2
REMARK    2  A    between atoms: C_2  and  N_3
REMARK    3  A    between atoms: N_3  and  C_4
REMARK    4  A    between atoms: N_3  and  C_6
REMARK    5  A    between atoms: C_4  and  C_5
REMARK    6  A    between atoms: C_6  and  C_7
REMARK    7  A    between atoms: C_8  and  C_9
REMARK    8  A    between atoms: C_9  and  O_10
REMARK    9  A    between atoms: O_10  and  C_11
REMARK   10  A    between atoms: C_11  and  C_13
REMARK   11  A    between atoms: C_13  and  O_14
REMARK   12  A    between atoms: C_13  and  C_15
REMARK   13  A    between atoms: C_13  and  C_21
REMARK                            x       y       z     vdW  Elec       q    Type
REMARK                         _______ _______ _______ _____ _____    ______ ____
ROOT
ATOM      1  C   UNL     1       4.299  -6.158  24.596  0.00  0.00    +0.190 C 
ENDROOT
BRANCH   1   2
ATOM      2  C   UNL     1       4.924  -5.210  23.541  0.00  0.00    -0.005 A 
ATOM      3  C   UNL     1       4.846  -3.809  23.651  0.00  0.00    +0.007 A 
ATOM      4  C   UNL     1       5.518  -2.969  22.750  0.00  0.00    +0.000 A 
ATOM      5  C   UNL     1       6.289  -3.508  21.725  0.00  0.00    +0.000 A 
ATOM      6  C   UNL     1       6.380  -4.888  21.588  0.00  0.00    +0.000 A 
ATOM      7  C   UNL     1       5.704  -5.726  22.485  0.00  0.00    +0.007 A 
ENDBRANCH   1   2
BRANCH   1   8
ATOM      8  C   UNL     1       2.727  -6.079  24.746  0.00  0.00    +0.036 C 
ATOM      9  C   UNL     1       2.057  -7.330  25.381  0.00  0.00    +0.007 C 
ATOM     10  C   UNL     1       1.887  -8.529  24.448  0.00  0.00    +0.000 C 
ATOM     11  C   UNL     1       1.184  -8.153  23.152  0.00  0.00    +0.000 C 
ATOM     12  C   UNL     1       1.809  -6.933  22.484  0.00  0.00    +0.000 C 
ATOM     13  C   UNL     1       1.947  -5.756  23.449  0.00  0.00    +0.007 C 
ENDBRANCH   1   8
BRANCH   1  14
ATOM     14  C   UNL     1       4.936  -5.800  26.000  0.00  0.00    +0.345 C 
ATOM     15  O   UNL     1       4.360  -5.255  26.930  0.00  0.00    -0.247 OA
BRANCH  14  16
ATOM     16  O   UNL     1       6.242  -6.223  26.043  0.00  0.00    -0.449 OA
BRANCH  16  17
ATOM     17  C   UNL     1       7.160  -5.348  26.728  0.00  0.00    +0.320 C 
BRANCH  17  19
ATOM     18  C   UNL     1       8.417  -3.581  24.993  0.00  0.00    -0.083 C 
ATOM     19  C   UNL     1       7.855  -4.430  25.807  0.00  0.00    -0.060 C 
BRANCH  18  20
ATOM     20  C   UNL     1       9.074  -2.591  24.044  0.00  0.00    +0.174 C 
BRANCH  20  21
ATOM     21  N   UNL     1       8.444  -1.260  24.110  0.00  0.00    -0.292 NA
BRANCH  21  23
ATOM     22  C   UNL     1      10.336   0.195  24.927  0.00  0.00    +0.020 C 
ATOM     23  C   UNL     1       9.017  -0.507  25.239  0.00  0.00    +0.082 C 
ENDBRANCH  21  23
BRANCH  21  24
ATOM     24  C   UNL     1       8.464  -0.526  22.832  0.00  0.00    +0.082 C 
ATOM     25  C   UNL     1       9.268  -1.152  21.697  0.00  0.00    +0.020 C 
ENDBRANCH  21  24
ENDBRANCH  20  21
ENDBRANCH  18  20
ENDBRANCH  17  19
ENDBRANCH  16  17
ENDBRANCH  14  16
ENDBRANCH   1  14
BRANCH   1  26
ATOM     26  O   UNL     1       4.660  -7.490  24.203  0.00  0.00    -0.373 OA
ATOM     27  H   UNL     1       5.634  -7.497  24.148  0.00  0.00    +0.211 HD
ENDBRANCH   1  26
TORSDOF 11
ENDMDL
MODEL 3
REMARK VINA RESULT:      -5.7      3.202      7.415
REMARK  Name = 
REMARK  13 active torsions:
REMARK  status: ('A' for Active; 'I' for Inactive)
REMARK    1  A    between atoms: C_1  and  C_2
REMARK    2  A    between atoms: C_2  and  N_3
REMARK    3  A    between atoms: N_3  and  C_4
REMARK    4  A    between atoms: N_3  and  C_6
REMARK    5  A    between atoms: C_4  and  C_5
REMARK    6  A    between atoms: C_6  and  C_7
REMARK    7  A    between atoms: C_8  and  C_9
REMARK    8  A    between atoms: C_9  and  O_10
REMARK    9  A    between atoms: O_10  and  C_11
REMARK   10  A    between atoms: C_11  and  C_13
REMARK   11  A    between atoms: C_13  and  O_14
REMARK   12  A    between atoms: C_13  and  C_15
REMARK   13  A    between atoms: C_13  and  C_21
REMARK                            x       y       z     vdW  Elec       q    Type
REMARK                         _______ _______ _______ _____ _____    ______ ____
ROOT
ATOM      1  C   UNL     1       8.768  -3.549  24.194  0.00  0.00    +0.190 C 
ENDROOT
BRANCH   1   2
ATOM      2  C   UNL     1       7.887  -4.171  23.080  0.00  0.00    -0.005 A 
ATOM      3  C   UNL     1       7.781  -5.562  22.897  0.00  0.00    +0.007 A 
ATOM      4  C   UNL     1       6.889  -6.107  21.962  0.00  0.00    +0.000 A 
ATOM      5  C   UNL     1       6.076  -5.278  21.196  0.00  0.00    +0.000 A 
ATOM      6  C   UNL     1       6.163  -3.900  21.351  0.00  0.00    +0.000 A 
ATOM      7  C   UNL     1       7.059  -3.355  22.281  0.00  0.00    +0.007 A 
ENDBRANCH   1   2
BRANCH   1   8
ATOM      8  C   UNL     1       8.006  -3.101  25.505  0.00  0.00    +0.036 C 
ATOM      9  C   UNL     1       8.400  -3.869  26.797  0.00  0.00    +0.007 C 
ATOM     10  C   UNL     1       7.792  -5.263  26.945  0.00  0.00    +0.000 C 
ATOM     11  C   UNL     1       6.279  -5.250  26.778  0.00  0.00    +0.000 C 
ATOM     12  C   UNL     1       5.840  -4.512  25.518  0.00  0.00    +0.000 C 
ATOM     13  C   UNL     1       6.461  -3.120  25.419  0.00  0.00    +0.007 C 
ENDBRANCH   1   8
BRANCH   1  14
ATOM     14  C   UNL     1       9.477  -2.271  23.587  0.00  0.00    +0.345 C 
ATOM     15  O   UNL     1      10.293  -2.269  22.675  0.00  0.00    -0.247 OA
BRANCH  14  16
ATOM     16  O   UNL     1       9.018  -1.138  24.213  0.00  0.00    -0.449 OA
BRANCH  16  17
ATOM     17  C   UNL     1      10.007  -0.382  24.940  0.00  0.00    +0.320 C 
BRANCH  17  19
ATOM     18  C   UNL     1      10.534   2.090  23.787  0.00  0.00    -0.083 C 
ATOM     19  C   UNL     1      10.304   0.915  24.302  0.00  0.00    -0.060 C 
BRANCH  18  20
ATOM     20  C   UNL     1      10.804   3.460  23.185  0.00  0.00    +0.174 C 
BRANCH  20  21
ATOM     21  N   UNL     1      10.169   4.540  23.960  0.00  0.00    -0.292 NA
BRANCH  21  23
ATOM     22  C   UNL     1      12.483   5.456  23.547  0.00  0.00    +0.020 C 
ATOM     23  C   UNL     1      11.031   5.733  23.928  0.00  0.00    +0.082 C 
ENDBRANCH  21  23
BRANCH  21  24
ATOM     24  C   UNL     1       8.770   4.805  23.580  0.00  0.00    +0.082 C 
ATOM     25  C   UNL     1       8.484   6.152  22.925  0.00  0.00    +0.020 C 
ENDBRANCH  21  24
ENDBRANCH  20  21
ENDBRANCH  18  20
ENDBRANCH  17  19
ENDBRANCH  16  17
ENDBRANCH  14  16
ENDBRANCH   1  14
BRANCH   1  26
ATOM     26  O   UNL     1       9.739  -4.546  24.542  0.00  0.00    -0.373 OA
ATOM     27  H   UNL     1       9.257  -5.220  25.058  0.00  0.00    +0.211 HD
ENDBRANCH   1  26
TORSDOF 11
ENDMDL
MODEL 4
REMARK VINA RESULT:      -5.7      1.260      1.896
REMARK  Name = 
REMARK  13 active torsions:
REMARK  status: ('A' for Active; 'I' for Inactive)
REMARK    1  A    between atoms: C_1  and  C_2
REMARK    2  A    between atoms: C_2  and  N_3
REMARK    3  A    between atoms: N_3  and  C_4
REMARK    4  A    between atoms: N_3  and  C_6
REMARK    5  A    between atoms: C_4  and  C_5
REMARK    6  A    between atoms: C_6  and  C_7
REMARK    7  A    between atoms: C_8  and  C_9
REMARK    8  A    between atoms: C_9  and  O_10
REMARK    9  A    between atoms: O_10  and  C_11
REMARK   10  A    between atoms: C_11  and  C_13
REMARK   11  A    between atoms: C_13  and  O_14
REMARK   12  A    between atoms: C_13  and  C_15
REMARK   13  A    between atoms: C_13  and  C_21
REMARK                            x       y       z     vdW  Elec       q    Type
REMARK                         _______ _______ _______ _____ _____    ______ ____
ROOT
ATOM      1  C   UNL     1       8.053  -2.186  24.297  0.00  0.00    +0.190 C 
ENDROOT
BRANCH   1   2
ATOM      2  C   UNL     1       7.514  -3.264  23.321  0.00  0.00    -0.005 A 
ATOM      3  C   UNL     1       7.934  -4.606  23.380  0.00  0.00    +0.007 A 
ATOM      4  C   UNL     1       7.348  -5.588  22.568  0.00  0.00    +0.000 A 
ATOM      5  C   UNL     1       6.325  -5.256  21.686  0.00  0.00    +0.000 A 
ATOM      6  C   UNL     1       5.893  -3.938  21.601  0.00  0.00    +0.000 A 
ATOM      7  C   UNL     1       6.483  -2.955  22.409  0.00  0.00    +0.007 A 
ENDBRANCH   1   2
BRANCH   1   8
ATOM      8  C   UNL     1       9.554  -1.742  24.069  0.00  0.00    +0.036 C 
ATOM      9  C   UNL     1       9.923  -0.340  24.629  0.00  0.00    +0.007 C 
ATOM     10  C   UNL     1       9.466   0.847  23.783  0.00  0.00    +0.000 C 
ATOM     11  C   UNL     1       9.910   0.723  22.332  0.00  0.00    +0.000 C 
ATOM     12  C   UNL     1       9.563  -0.635  21.733  0.00  0.00    +0.000 C 
ATOM     13  C   UNL     1      10.051  -1.791  22.605  0.00  0.00    +0.007 C 
ENDBRANCH   1   8
BRANCH   1  14
ATOM     14  C   UNL     1       7.938  -2.766  25.764  0.00  0.00    +0.345 C 
ATOM     15  O   UNL     1       8.870  -3.131  26.466  0.00  0.00    -0.247 OA
BRANCH  14  16
ATOM     16  O   UNL     1       6.623  -2.774  26.163  0.00  0.00    -0.449 OA
BRANCH  16  17
ATOM     17  C   UNL     1       6.225  -3.896  26.976  0.00  0.00    +0.320 C 
BRANCH  17  19
ATOM     18  C   UNL     1       5.086  -5.900  25.426  0.00  0.00    -0.083 C 
ATOM     19  C   UNL     1       5.618  -4.980  26.181  0.00  0.00    -0.060 C 
BRANCH  18  20
ATOM     20  C   UNL     1       4.466  -6.974  24.547  0.00  0.00    +0.174 C 
BRANCH  20  21
ATOM     21  N   UNL     1       3.017  -6.776  24.369  0.00  0.00    -0.292 NA
BRANCH  21  23
ATOM     22  C   UNL     1       1.325  -5.459  23.040  0.00  0.00    +0.020 C 
ATOM     23  C   UNL     1       2.790  -5.694  23.395  0.00  0.00    +0.082 C 
ENDBRANCH  21  23
BRANCH  21  24
ATOM     24  C   UNL     1       2.278  -8.014  24.067  0.00  0.00    +0.082 C 
ATOM     25  C   UNL     1       1.425  -8.592  25.192  0.00  0.00    +0.020 C 
ENDBRANCH  21  24
ENDBRANCH  20  21
ENDBRANCH  18  20
ENDBRANCH  17  19
ENDBRANCH  16  17
ENDBRANCH  14  16
ENDBRANCH   1  14
BRANCH   1  26
ATOM     26  O   UNL     1       7.203  -1.041  24.139  0.00  0.00    -0.373 OA
ATOM     27  H   UNL     1       7.558  -0.360  24.741  0.00  0.00    +0.211 HD
ENDBRANCH   1  26
TORSDOF 11
ENDMDL
MODEL 5
REMARK VINA RESULT:      -5.6      1.212      2.624
REMARK  Name = 
REMARK  13 active torsions:
REMARK  status: ('A' for Active; 'I' for Inactive)
REMARK    1  A    between atoms: C_1  and  C_2
REMARK    2  A    between atoms: C_2  and  N_3
REMARK    3  A    between atoms: N_3  and  C_4
REMARK    4  A    between atoms: N_3  and  C_6
REMARK    5  A    between atoms: C_4  and  C_5
REMARK    6  A    between atoms: C_6  and  C_7
REMARK    7  A    between atoms: C_8  and  C_9
REMARK    8  A    between atoms: C_9  and  O_10
REMARK    9  A    between atoms: O_10  and  C_11
REMARK   10  A    between atoms: C_11  and  C_13
REMARK   11  A    between atoms: C_13  and  O_14
REMARK   12  A    between atoms: C_13  and  C_15
REMARK   13  A    between atoms: C_13  and  C_21
REMARK                            x       y       z     vdW  Elec       q    Type
REMARK                         _______ _______ _______ _____ _____    ______ ____
ROOT
ATOM      1  C   UNL     1       8.075  -1.152  24.020  0.00  0.00    +0.190 C 
ENDROOT
BRANCH   1   2
ATOM      2  C   UNL     1       7.384  -2.485  23.634  0.00  0.00    -0.005 A 
ATOM      3  C   UNL     1       6.073  -2.531  23.127  0.00  0.00    +0.007 A 
ATOM      4  C   UNL     1       5.509  -3.733  22.673  0.00  0.00    +0.000 A 
ATOM      5  C   UNL     1       6.243  -4.914  22.708  0.00  0.00    +0.000 A 
ATOM      6  C   UNL     1       7.539  -4.901  23.210  0.00  0.00    +0.000 A 
ATOM      7  C   UNL     1       8.100  -3.701  23.668  0.00  0.00    +0.007 A 
ENDBRANCH   1   2
BRANCH   1   8
ATOM      8  C   UNL     1       9.553  -0.964  23.490  0.00  0.00    +0.036 C 
ATOM      9  C   UNL     1      10.342   0.214  24.127  0.00  0.00    +0.007 C 
ATOM     10  C   UNL     1       9.996   1.602  23.591  0.00  0.00    +0.000 C 
ATOM     11  C   UNL     1      10.079   1.670  22.073  0.00  0.00    +0.000 C 
ATOM     12  C   UNL     1       9.313   0.537  21.399  0.00  0.00    +0.000 C 
ATOM     13  C   UNL     1       9.700  -0.832  21.956  0.00  0.00    +0.007 C 
ENDBRANCH   1   8
BRANCH   1  14
ATOM     14  C   UNL     1       8.115  -1.073  25.600  0.00  0.00    +0.345 C 
ATOM     15  O   UNL     1       8.830  -1.741  26.334  0.00  0.00    -0.247 OA
BRANCH  14  16
ATOM     16  O   UNL     1       7.243  -0.109  26.043  0.00  0.00    -0.449 OA
BRANCH  16  17
ATOM     17  C   UNL     1       6.341  -0.517  27.092  0.00  0.00    +0.320 C 
BRANCH  17  19
ATOM     18  C   UNL     1       5.143  -2.978  26.619  0.00  0.00    -0.083 C 
ATOM     19  C   UNL     1       5.735  -1.836  26.830  0.00  0.00    -0.060 C 
BRANCH  18  20
ATOM     20  C   UNL     1       4.453  -4.310  26.372  0.00  0.00    +0.174 C 
BRANCH  20  21
ATOM     21  N   UNL     1       5.416  -5.419  26.257  0.00  0.00    -0.292 NA
BRANCH  21  23
ATOM     22  C   UNL     1       7.848  -5.310  26.918  0.00  0.00    +0.020 C 
ATOM     23  C   UNL     1       6.388  -5.335  27.361  0.00  0.00    +0.082 C 
ENDBRANCH  21  23
BRANCH  21  24
ATOM     24  C   UNL     1       4.787  -6.744  26.116  0.00  0.00    +0.082 C 
ATOM     25  C   UNL     1       4.141  -7.054  24.769  0.00  0.00    +0.020 C 
ENDBRANCH  21  24
ENDBRANCH  20  21
ENDBRANCH  18  20
ENDBRANCH  17  19
ENDBRANCH  16  17
ENDBRANCH  14  16
ENDBRANCH   1  14
BRANCH   1  26
ATOM     26  O   UNL     1       7.254  -0.105  23.484  0.00  0.00    -0.373 OA
ATOM     27  H   UNL     1       6.335  -0.428  23.546  0.00  0.00    +0.211 HD
ENDBRANCH   1  26
TORSDOF 11
ENDMDL
MODEL 6
REMARK VINA RESULT:      -5.5      3.131      6.996
REMARK  Name = 
REMARK  13 active torsions:
REMARK  status: ('A' for Active; 'I' for Inactive)
REMARK    1  A    between atoms: C_1  and  C_2
REMARK    2  A    between atoms: C_2  and  N_3
REMARK    3  A    between atoms: N_3  and  C_4
REMARK    4  A    between atoms: N_3  and  C_6
REMARK    5  A    between atoms: C_4  and  C_5
REMARK    6  A    between atoms: C_6  and  C_7
REMARK    7  A    between atoms: C_8  and  C_9
REMARK    8  A    between atoms: C_9  and  O_10
REMARK    9  A    between atoms: O_10  and  C_11
REMARK   10  A    between atoms: C_11  and  C_13
REMARK   11  A    between atoms: C_13  and  O_14
REMARK   12  A    between atoms: C_13  and  C_15
REMARK   13  A    between atoms: C_13  and  C_21
REMARK                            x       y       z     vdW  Elec       q    Type
REMARK                         _______ _______ _______ _____ _____    ______ ____
ROOT
ATOM      1  C   UNL     1       7.753  -2.963  23.553  0.00  0.00    +0.190 C 
ENDROOT
BRANCH   1   2
ATOM      2  C   UNL     1       7.172  -1.890  24.509  0.00  0.00    -0.005 A 
ATOM      3  C   UNL     1       7.660  -1.707  25.816  0.00  0.00    +0.007 A 
ATOM      4  C   UNL     1       7.203  -0.655  26.624  0.00  0.00    +0.000 A 
ATOM      5  C   UNL     1       6.254   0.242  26.143  0.00  0.00    +0.000 A 
ATOM      6  C   UNL     1       5.749   0.083  24.858  0.00  0.00    +0.000 A 
ATOM      7  C   UNL     1       6.202  -0.972  24.054  0.00  0.00    +0.007 A 
ENDBRANCH   1   2
BRANCH   1   8
ATOM      8  C   UNL     1       7.439  -4.465  23.933  0.00  0.00    +0.036 C 
ATOM      9  C   UNL     1       7.517  -5.478  22.755  0.00  0.00    +0.007 C 
ATOM     10  C   UNL     1       6.313  -5.486  21.815  0.00  0.00    +0.000 C 
ATOM     11  C   UNL     1       4.999  -5.648  22.565  0.00  0.00    +0.000 C 
ATOM     12  C   UNL     1       4.870  -4.670  23.728  0.00  0.00    +0.000 C 
ATOM     13  C   UNL     1       6.089  -4.706  24.648  0.00  0.00    +0.007 C 
ENDBRANCH   1   8
BRANCH   1  14
ATOM     14  C   UNL     1       9.326  -2.788  23.534  0.00  0.00    +0.345 C 
ATOM     15  O   UNL     1      10.128  -3.444  24.184  0.00  0.00    -0.247 OA
BRANCH  14  16
ATOM     16  O   UNL     1       9.677  -1.800  22.647  0.00  0.00    -0.449 OA
BRANCH  16  17
ATOM     17  C   UNL     1      10.540  -0.770  23.168  0.00  0.00    +0.320 C 
BRANCH  17  19
ATOM     18  C   UNL     1       9.153   1.509  23.942  0.00  0.00    -0.083 C 
ATOM     19  C   UNL     1       9.791   0.423  23.606  0.00  0.00    -0.060 C 
BRANCH  18  20
ATOM     20  C   UNL     1       8.409   2.775  24.335  0.00  0.00    +0.174 C 
BRANCH  20  21
ATOM     21  N   UNL     1       8.763   3.916  23.472  0.00  0.00    -0.292 NA
BRANCH  21  23
ATOM     22  C   UNL     1       6.622   3.267  22.308  0.00  0.00    +0.020 C 
ATOM     23  C   UNL     1       7.559   4.381  22.763  0.00  0.00    +0.082 C 
ENDBRANCH  21  23
BRANCH  21  24
ATOM     24  C   UNL     1       9.496   4.988  24.169  0.00  0.00    +0.082 C 
ATOM     25  C   UNL     1       9.464   6.369  23.523  0.00  0.00    +0.020 C 
ENDBRANCH  21  24
ENDBRANCH  20  21
ENDBRANCH  18  20
ENDBRANCH  17  19
ENDBRANCH  16  17
ENDBRANCH  14  16
ENDBRANCH   1  14
BRANCH   1  26
ATOM     26  O   UNL     1       7.200  -2.688  22.257  0.00  0.00    -0.373 OA
ATOM     27  H   UNL     1       6.241  -2.569  22.397  0.00  0.00    +0.211 HD
ENDBRANCH   1  26
TORSDOF 11
ENDMDL
MODEL 7
REMARK VINA RESULT:      -5.5      3.053      5.371
REMARK  Name = 
REMARK  13 active torsions:
REMARK  status: ('A' for Active; 'I' for Inactive)
REMARK    1  A    between atoms: C_1  and  C_2
REMARK    2  A    between atoms: C_2  and  N_3
REMARK    3  A    between atoms: N_3  and  C_4
REMARK    4  A    between atoms: N_3  and  C_6
REMARK    5  A    between atoms: C_4  and  C_5
REMARK    6  A    between atoms: C_6  and  C_7
REMARK    7  A    between atoms: C_8  and  C_9
REMARK    8  A    between atoms: C_9  and  O_10
REMARK    9  A    between atoms: O_10  and  C_11
REMARK   10  A    between atoms: C_11  and  C_13
REMARK   11  A    between atoms: C_13  and  O_14
REMARK   12  A    between atoms: C_13  and  C_15
REMARK   13  A    between atoms: C_13  and  C_21
REMARK                            x       y       z     vdW  Elec       q    Type
REMARK                         _______ _______ _______ _____ _____    ______ ____
ROOT
ATOM      1  C   UNL     1       8.169   3.239  23.396  0.00  0.00    +0.190 C 
ENDROOT
BRANCH   1   2
ATOM      2  C   UNL     1       8.981   1.988  22.974  0.00  0.00    -0.005 A 
ATOM      3  C   UNL     1       9.852   1.326  23.859  0.00  0.00    +0.007 A 
ATOM      4  C   UNL     1      10.487   0.128  23.496  0.00  0.00    +0.000 A 
ATOM      5  C   UNL     1      10.260  -0.440  22.247  0.00  0.00    +0.000 A 
ATOM      6  C   UNL     1       9.409   0.194  21.350  0.00  0.00    +0.000 A 
ATOM      7  C   UNL     1       8.779   1.394  21.710  0.00  0.00    +0.007 A 
ENDBRANCH   1   2
BRANCH   1   8
ATOM      8  C   UNL     1       8.792   4.101  24.566  0.00  0.00    +0.036 C 
ATOM      9  C   UNL     1       7.782   4.983  25.352  0.00  0.00    +0.007 C 
ATOM     10  C   UNL     1       7.357   6.275  24.655  0.00  0.00    +0.000 C 
ATOM     11  C   UNL     1       8.551   7.107  24.210  0.00  0.00    +0.000 C 
ATOM     12  C   UNL     1       9.570   6.287  23.427  0.00  0.00    +0.000 C 
ATOM     13  C   UNL     1       9.976   5.014  24.166  0.00  0.00    +0.007 C 
ENDBRANCH   1   8
BRANCH   1  14
ATOM     14  C   UNL     1       6.740   2.748  23.867  0.00  0.00    +0.345 C 
ATOM     15  O   UNL     1       5.668   3.125  23.415  0.00  0.00    -0.247 OA
BRANCH  14  16
ATOM     16  O   UNL     1       6.871   1.797  24.849  0.00  0.00    -0.449 OA
BRANCH  16  17
ATOM     17  C   UNL     1       5.913   0.721  24.808  0.00  0.00    +0.320 C 
BRANCH  17  19
ATOM     18  C   UNL     1       6.821  -1.461  23.347  0.00  0.00    -0.083 C 
ATOM     19  C   UNL     1       6.385  -0.422  24.003  0.00  0.00    -0.060 C 
BRANCH  18  20
ATOM     20  C   UNL     1       7.328  -2.672  22.581  0.00  0.00    +0.174 C 
BRANCH  20  21
ATOM     21  N   UNL     1       6.750  -3.929  23.087  0.00  0.00    -0.292 NA
BRANCH  21  23
ATOM     22  C   UNL     1       6.707  -5.888  21.499  0.00  0.00    +0.020 C 
ATOM     23  C   UNL     1       6.036  -4.610  21.994  0.00  0.00    +0.082 C 
ENDBRANCH  21  23
BRANCH  21  24
ATOM     24  C   UNL     1       7.716  -4.788  23.795  0.00  0.00    +0.082 C 
ATOM     25  C   UNL     1       7.505  -4.962  25.295  0.00  0.00    +0.020 C 
ENDBRANCH  21  24
ENDBRANCH  20  21
ENDBRANCH  18  20
ENDBRANCH  17  19
ENDBRANCH  16  17
ENDBRANCH  14  16
ENDBRANCH   1  14
BRANCH   1  26
ATOM     26  O   UNL     1       8.059   4.060  22.224  0.00  0.00    -0.373 OA
ATOM     27  H   UNL     1       7.505   4.821  22.482  0.00  0.00    +0.211 HD
ENDBRANCH   1  26
TORSDOF 11
ENDMDL
MODEL 8
REMARK VINA RESULT:      -5.5      3.099      6.806
REMARK  Name = 
REMARK  13 active torsions:
REMARK  status: ('A' for Active; 'I' for Inactive)
REMARK    1  A    between atoms: C_1  and  C_2
REMARK    2  A    between atoms: C_2  and  N_3
REMARK    3  A    between atoms: N_3  and  C_4
REMARK    4  A    between atoms: N_3  and  C_6
REMARK    5  A    between atoms: C_4  and  C_5
REMARK    6  A    between atoms: C_6  and  C_7
REMARK    7  A    between atoms: C_8  and  C_9
REMARK    8  A    between atoms: C_9  and  O_10
REMARK    9  A    between atoms: O_10  and  C_11
REMARK   10  A    between atoms: C_11  and  C_13
REMARK   11  A    between atoms: C_13  and  O_14
REMARK   12  A    between atoms: C_13  and  C_15
REMARK   13  A    between atoms: C_13  and  C_21
REMARK                            x       y       z     vdW  Elec       q    Type
REMARK                         _______ _______ _______ _____ _____    ______ ____
ROOT
ATOM      1  C   UNL     1       8.772  -3.713  24.308  0.00  0.00    +0.190 C 
ENDROOT
BRANCH   1   2
ATOM      2  C   UNL     1       7.777  -4.227  23.236  0.00  0.00    -0.005 A 
ATOM      3  C   UNL     1       7.017  -3.352  22.437  0.00  0.00    +0.007 A 
ATOM      4  C   UNL     1       6.212  -3.833  21.394  0.00  0.00    +0.000 A 
ATOM      5  C   UNL     1       6.154  -5.196  21.118  0.00  0.00    +0.000 A 
ATOM      6  C   UNL     1       6.889  -6.084  21.894  0.00  0.00    +0.000 A 
ATOM      7  C   UNL     1       7.689  -5.604  22.940  0.00  0.00    +0.007 A 
ENDBRANCH   1   2
BRANCH   1   8
ATOM      8  C   UNL     1       8.131  -3.273  25.685  0.00  0.00    +0.036 C 
ATOM      9  C   UNL     1       8.426  -4.217  26.886  0.00  0.00    +0.007 C 
ATOM     10  C   UNL     1       7.595  -5.499  26.932  0.00  0.00    +0.000 C 
ATOM     11  C   UNL     1       6.103  -5.220  26.832  0.00  0.00    +0.000 C 
ATOM     12  C   UNL     1       5.760  -4.303  25.663  0.00  0.00    +0.000 C 
ATOM     13  C   UNL     1       6.604  -3.029  25.664  0.00  0.00    +0.007 C 
ENDBRANCH   1   8
BRANCH   1  14
ATOM     14  C   UNL     1       9.524  -2.459  23.703  0.00  0.00    +0.345 C 
ATOM     15  O   UNL     1      10.143  -2.435  22.648  0.00  0.00    -0.247 OA
BRANCH  14  16
ATOM     16  O   UNL     1       9.358  -1.371  24.524  0.00  0.00    -0.449 OA
BRANCH  16  17
ATOM     17  C   UNL     1      10.359  -0.340  24.405  0.00  0.00    +0.320 C 
BRANCH  17  19
ATOM     18  C   UNL     1       9.292   2.221  24.539  0.00  0.00    -0.083 C 
ATOM     19  C   UNL     1       9.777   1.015  24.446  0.00  0.00    -0.060 C 
BRANCH  18  20
ATOM     20  C   UNL     1       8.726   3.628  24.646  0.00  0.00    +0.174 C 
BRANCH  20  21
ATOM     21  N   UNL     1       8.473   4.225  23.323  0.00  0.00    -0.292 NA
BRANCH  21  23
ATOM     22  C   UNL     1       6.276   3.556  22.280  0.00  0.00    +0.020 C 
ATOM     23  C   UNL     1       7.759   3.253  22.479  0.00  0.00    +0.082 C 
ENDBRANCH  21  23
BRANCH  21  24
ATOM     24  C   UNL     1       7.831   5.551  23.379  0.00  0.00    +0.082 C 
ATOM     25  C   UNL     1       8.760   6.755  23.497  0.00  0.00    +0.020 C 
ENDBRANCH  21  24
ENDBRANCH  20  21
ENDBRANCH  18  20
ENDBRANCH  17  19
ENDBRANCH  16  17
ENDBRANCH  14  16
ENDBRANCH   1  14
BRANCH   1  26
ATOM     26  O   UNL     1       9.694  -4.787  24.548  0.00  0.00    -0.373 OA
ATOM     27  H   UNL     1       9.650  -4.966  25.507  0.00  0.00    +0.211 HD
ENDBRANCH   1  26
TORSDOF 11
ENDMDL
MODEL 9
REMARK VINA RESULT:      -5.4      3.167      6.049
REMARK  Name = 
REMARK  13 active torsions:
REMARK  status: ('A' for Active; 'I' for Inactive)
REMARK    1  A    between atoms: C_1  and  C_2
REMARK    2  A    between atoms: C_2  and  N_3
REMARK    3  A    between atoms: N_3  and  C_4
REMARK    4  A    between atoms: N_3  and  C_6
REMARK    5  A    between atoms: C_4  and  C_5
REMARK    6  A    between atoms: C_6  and  C_7
REMARK    7  A    between atoms: C_8  and  C_9
REMARK    8  A    between atoms: C_9  and  O_10
REMARK    9  A    between atoms: O_10  and  C_11
REMARK   10  A    between atoms: C_11  and  C_13
REMARK   11  A    between atoms: C_13  and  O_14
REMARK   12  A    between atoms: C_13  and  C_15
REMARK   13  A    between atoms: C_13  and  C_21
REMARK                            x       y       z     vdW  Elec       q    Type
REMARK                         _______ _______ _______ _____ _____    ______ ____
ROOT
ATOM      1  C   UNL     1       7.980  -1.184  23.956  0.00  0.00    +0.190 C 
ENDROOT
BRANCH   1   2
ATOM      2  C   UNL     1       7.342  -2.514  23.478  0.00  0.00    -0.005 A 
ATOM      3  C   UNL     1       6.110  -2.553  22.799  0.00  0.00    +0.007 A 
ATOM      4  C   UNL     1       5.607  -3.752  22.272  0.00  0.00    +0.000 A 
ATOM      5  C   UNL     1       6.326  -4.936  22.402  0.00  0.00    +0.000 A 
ATOM      6  C   UNL     1       7.543  -4.929  23.072  0.00  0.00    +0.000 A 
ATOM      7  C   UNL     1       8.042  -3.732  23.605  0.00  0.00    +0.007 A 
ENDBRANCH   1   2
BRANCH   1   8
ATOM      8  C   UNL     1       9.496  -0.968  23.563  0.00  0.00    +0.036 C 
ATOM      9  C   UNL     1      10.180   0.269  24.210  0.00  0.00    +0.007 C 
ATOM     10  C   UNL     1       9.844   1.615  23.569  0.00  0.00    +0.000 C 
ATOM     11  C   UNL     1      10.076   1.609  22.065  0.00  0.00    +0.000 C 
ATOM     12  C   UNL     1       9.417   0.415  21.381  0.00  0.00    +0.000 C 
ATOM     13  C   UNL     1       9.791  -0.908  22.046  0.00  0.00    +0.007 C 
ENDBRANCH   1   8
BRANCH   1  14
ATOM     14  C   UNL     1       7.879  -1.144  25.535  0.00  0.00    +0.345 C 
ATOM     15  O   UNL     1       8.561  -1.797  26.313  0.00  0.00    -0.247 OA
BRANCH  14  16
ATOM     16  O   UNL     1       6.925  -0.235  25.921  0.00  0.00    -0.449 OA
BRANCH  16  17
ATOM     17  C   UNL     1       7.369   0.786  26.837  0.00  0.00    +0.320 C 
BRANCH  17  19
ATOM     18  C   UNL     1       7.290   3.312  25.684  0.00  0.00    -0.083 C 
ATOM     19  C   UNL     1       7.303   2.137  26.247  0.00  0.00    -0.060 C 
BRANCH  18  20
ATOM     20  C   UNL     1       7.273   4.683  25.028  0.00  0.00    +0.174 C 
BRANCH  20  21
ATOM     21  N   UNL     1       8.017   4.697  23.756  0.00  0.00    -0.292 NA
BRANCH  21  23
ATOM     22  C   UNL     1       6.782   3.298  22.060  0.00  0.00    +0.020 C 
ATOM     23  C   UNL     1       7.063   4.683  22.634  0.00  0.00    +0.082 C 
ENDBRANCH  21  23
BRANCH  21  24
ATOM     24  C   UNL     1       9.027   5.767  23.666  0.00  0.00    +0.082 C 
ATOM     25  C   UNL     1      10.484   5.347  23.826  0.00  0.00    +0.020 C 
ENDBRANCH  21  24
ENDBRANCH  20  21
ENDBRANCH  18  20
ENDBRANCH  17  19
ENDBRANCH  16  17
ENDBRANCH  14  16
ENDBRANCH   1  14
BRANCH   1  26
ATOM     26  O   UNL     1       7.197  -0.131  23.374  0.00  0.00    -0.373 OA
ATOM     27  H   UNL     1       7.744   0.245  22.659  0.00  0.00    +0.211 HD
ENDBRANCH   1  26
TORSDOF 11
ENDMDL
