MODEL 1
REMARK VINA RESULT:      -7.7      0.000      0.000
REMARK  Name = 
REMARK  19 active torsions:
REMARK  status: ('A' for Active; 'I' for Inactive)
REMARK    1  A    between atoms: C_2  and  C_4
REMARK    2  A    between atoms: N_8  and  C_10
REMARK    3  A    between atoms: C_13  and  C_15
REMARK    4  A    between atoms: C_15  and  O_16
REMARK    5  A    between atoms: O_16  and  P_17
REMARK    6  A    between atoms: P_17  and  O_20
REMARK    7  A    between atoms: O_20  and  P_21
REMARK    8  A    between atoms: P_21  and  O_22
REMARK    9  A    between atoms: P_21  and  O_24
REMARK   10  A    between atoms: O_24  and  C_25
REMARK   11  A    between atoms: C_25  and  C_26
REMARK   12  A    between atoms: C_29  and  N_41
REMARK   13  A    between atoms: C_31  and  O_33
REMARK   14  A    between atoms: O_33  and  P_34
REMARK   15  A    between atoms: P_34  and  O_35
REMARK   16  A    between atoms: P_34  and  O_36
REMARK   17  A    between atoms: C_38  and  O_40
REMARK   18  A    between atoms: C_51  and  O_53
REMARK   19  A    between atoms: C_54  and  O_56
REMARK                            x       y       z     vdW  Elec       q    Type
REMARK                         _______ _______ _______ _____ _____    ______ ____
ROOT
ATOM      1  P   UNL     1       2.748  -1.446  27.422  0.00  0.00    +0.480 P 
ATOM      2  O   UNL     1       2.121  -2.111  26.186  0.00  0.00    -0.227 OA
ENDROOT
BRANCH   1   3
ATOM      3  O   UNL     1       1.628  -0.343  27.872  0.00  0.00    -0.302 OA
ATOM      4  H   UNL     1       0.844  -0.467  27.292  0.00  0.00    +0.222 HD
ENDBRANCH   1   3
BRANCH   1   5
ATOM      5  O   UNL     1       1.858  -2.566  28.395  0.00  0.00    -0.284 OA
BRANCH   5   6
ATOM      6  C   UNL     1       1.548  -3.817  27.762  0.00  0.00    +0.206 C 
BRANCH   6   7
ATOM      7  C   UNL     1       2.428  -4.961  28.275  0.00  0.00    +0.178 C 
ATOM      8  C   UNL     1       2.228  -6.276  27.518  0.00  0.00    +0.179 C 
ATOM      9  C   UNL     1       3.361  -6.338  26.494  0.00  0.00    +0.211 C 
ATOM     10  C   UNL     1       4.176  -5.077  26.798  0.00  0.00    +0.254 C 
ATOM     11  O   UNL     1       3.809  -4.614  28.106  0.00  0.00    -0.346 OA
BRANCH  10  12
ATOM     12  N   UNL     1       5.608  -5.243  26.752  0.00  0.00    -0.285 N 
ATOM     13  C   UNL     1       6.410  -5.200  25.648  0.00  0.00    +0.167 A 
ATOM     14  N   UNL     1       6.055  -4.994  24.369  0.00  0.00    -0.216 NA
ATOM     15  C   UNL     1       7.139  -5.037  23.565  0.00  0.00    +0.225 A 
ATOM     16  N   UNL     1       8.438  -5.235  23.904  0.00  0.00    -0.219 NA
ATOM     17  C   UNL     1       8.734  -5.396  25.210  0.00  0.00    +0.147 A 
ATOM     18  N   UNL     1      10.065  -5.564  25.568  0.00  0.00    -0.341 N 
ATOM     19  H   UNL     1      10.186  -6.019  26.469  0.00  0.00    +0.144 HD
ATOM     20  H   UNL     1      10.630  -5.891  24.800  0.00  0.00    +0.144 HD
ATOM     21  C   UNL     1       7.692  -5.406  26.146  0.00  0.00    +0.147 A 
ATOM     22  N   UNL     1       7.669  -5.567  27.514  0.00  0.00    -0.231 NA
ATOM     23  C   UNL     1       6.398  -5.477  27.840  0.00  0.00    +0.203 A 
ENDBRANCH  10  12
BRANCH   8  24
ATOM     24  O   UNL     1       2.350  -7.374  28.432  0.00  0.00    -0.386 OA
ATOM     25  H   UNL     1       2.915  -8.059  28.027  0.00  0.00    +0.210 HD
ENDBRANCH   8  24
BRANCH   9  26
ATOM     26  O   UNL     1       2.873  -6.254  25.161  0.00  0.00    -0.276 OA
BRANCH  26  27
ATOM     27  P   UNL     1       2.912  -7.550  24.224  0.00  0.00    +0.473 P 
ATOM     28  O   UNL     1       1.936  -7.590  23.106  0.00  0.00    -0.228 OA
BRANCH  27  29
ATOM     29  O   UNL     1       4.456  -7.504  23.812  0.00  0.00    -0.303 OA
ATOM     30  H   UNL     1       4.956  -8.214  24.256  0.00  0.00    +0.222 HD
ENDBRANCH  27  29
BRANCH  27  31
ATOM     31  O   UNL     1       2.869  -8.697  25.316  0.00  0.00    -0.303 OA
ATOM     32  H   UNL     1       3.710  -9.163  25.446  0.00  0.00    +0.222 HD
ENDBRANCH  27  31
ENDBRANCH  26  27
ENDBRANCH   9  26
ENDBRANCH   6   7
ENDBRANCH   5   6
ENDBRANCH   1   5
BRANCH   1  33
ATOM     33  O   UNL     1       3.637  -0.326  26.448  0.00  0.00    -0.229 OA
BRANCH  33  34
ATOM     34  P   UNL     1       5.200  -0.071  27.144  0.00  0.00    +0.222 P 
ATOM     35  O   UNL     1       6.764   0.184  27.842  0.00  0.00    -0.437 OA
ATOM     36  O   UNL     1       4.533  -0.401  28.493  0.00  0.00    -0.517 OA
BRANCH  34  37
ATOM     37  O   UNL     1       5.684  -1.588  26.511  0.00  0.00    -0.324 OA
BRANCH  37  38
ATOM     38  C   UNL     1       5.992  -1.528  25.118  0.00  0.00    +0.202 C 
BRANCH  38  42
ATOM     39  C   UNL     1       8.963  -0.705  23.215  0.00  0.00    +0.439 C 
ATOM     40  C   UNL     1       9.619  -1.569  24.312  0.00  0.00    +0.244 C 
ATOM     41  C   UNL     1       8.507  -1.862  25.322  0.00  0.00    +0.183 C 
ATOM     42  C   UNL     1       7.365  -1.041  24.774  0.00  0.00    +0.182 C 
ATOM     43  O   UNL     1       7.561  -0.967  23.353  0.00  0.00    -0.309 OA
BRANCH  39  46
ATOM     44  C   UNL     1       8.294   2.976  22.777  0.00  0.00    +0.100 A 
ATOM     45  C   UNL     1       8.168   1.587  22.806  0.00  0.00    +0.324 A 
ATOM     46  N   UNL     1       9.166   0.788  23.290  0.00  0.00    -0.173 N 
ATOM     47  C   UNL     1      10.317   1.351  23.724  0.00  0.00    +0.311 A 
ATOM     48  C   UNL     1      10.489   2.735  23.703  0.00  0.00    +0.071 A 
ATOM     49  C   UNL     1       9.475   3.558  23.221  0.00  0.00    +0.025 A 
BRANCH  44  53
ATOM     50  N   UNL     1       7.388   5.035  21.814  0.00  0.00    -0.325 N 
ATOM     51  H   UNL     1       8.212   5.575  22.027  0.00  0.00    +0.145 HD
ATOM     52  H   UNL     1       6.577   5.553  21.489  0.00  0.00    +0.145 HD
ATOM     53  C   UNL     1       7.166   3.748  22.209  0.00  0.00    +0.247 C 
ATOM     54  O   UNL     1       6.062   3.232  22.119  0.00  0.00    -0.270 OA
ENDBRANCH  44  53
ENDBRANCH  39  46
BRANCH  41  55
ATOM     55  O   UNL     1       8.883  -1.379  26.610  0.00  0.00    -0.386 OA
ATOM     56  H   UNL     1       9.770  -1.750  26.805  0.00  0.00    +0.210 HD
ENDBRANCH  41  55
BRANCH  40  57
ATOM     57  O   UNL     1      10.111  -2.788  23.730  0.00  0.00    -0.380 OA
ATOM     58  H   UNL     1       9.607  -2.990  22.916  0.00  0.00    +0.210 HD
ENDBRANCH  40  57
ENDBRANCH  38  42
ENDBRANCH  37  38
ENDBRANCH  34  37
ENDBRANCH  33  34
ENDBRANCH   1  33
TORSDOF 19
ENDMDL
MODEL 2
REMARK VINA RESULT:      -7.6      2.881      9.300
REMARK  Name = 
REMARK  19 active torsions:
REMARK  status: ('A' for Active; 'I' for Inactive)
REMARK    1  A    between atoms: C_2  and  C_4
REMARK    2  A    between atoms: N_8  and  C_10
REMARK    3  A    between atoms: C_13  and  C_15
REMARK    4  A    between atoms: C_15  and  O_16
REMARK    5  A    between atoms: O_16  and  P_17
REMARK    6  A    between atoms: P_17  and  O_20
REMARK    7  A    between atoms: O_20  and  P_21
REMARK    8  A    between atoms: P_21  and  O_22
REMARK    9  A    between atoms: P_21  and  O_24
REMARK   10  A    between atoms: O_24  and  C_25
REMARK   11  A    between atoms: C_25  and  C_26
REMARK   12  A    between atoms: C_29  and  N_41
REMARK   13  A    between atoms: C_31  and  O_33
REMARK   14  A    between atoms: O_33  and  P_34
REMARK   15  A    between atoms: P_34  and  O_35
REMARK   16  A    between atoms: P_34  and  O_36
REMARK   17  A    between atoms: C_38  and  O_40
REMARK   18  A    between atoms: C_51  and  O_53
REMARK   19  A    between atoms: C_54  and  O_56
REMARK                            x       y       z     vdW  Elec       q    Type
REMARK                         _______ _______ _______ _____ _____    ______ ____
ROOT
ATOM      1  P   UNL     1       8.388  -4.529  24.759  0.00  0.00    +0.480 P 
ATOM      2  O   UNL     1       9.885  -4.871  24.833  0.00  0.00    -0.227 OA
ENDROOT
BRANCH   1   3
ATOM      3  O   UNL     1       7.694  -5.642  25.736  0.00  0.00    -0.302 OA
ATOM      4  H   UNL     1       6.752  -5.722  25.468  0.00  0.00    +0.222 HD
ENDBRANCH   1   3
BRANCH   1   5
ATOM      5  O   UNL     1       8.600  -3.583  26.192  0.00  0.00    -0.284 OA
BRANCH   5   6
ATOM      6  C   UNL     1       7.998  -2.280  26.160  0.00  0.00    +0.206 C 
BRANCH   6   7
ATOM      7  C   UNL     1       7.903  -1.719  24.738  0.00  0.00    +0.178 C 
ATOM      8  C   UNL     1       6.564  -1.044  24.433  0.00  0.00    +0.179 C 
ATOM      9  C   UNL     1       6.804   0.453  24.625  0.00  0.00    +0.211 C 
ATOM     10  C   UNL     1       8.298   0.528  24.956  0.00  0.00    +0.254 C 
ATOM     11  O   UNL     1       8.905  -0.710  24.554  0.00  0.00    -0.346 OA
BRANCH  10  12
ATOM     12  N   UNL     1       9.013   1.615  24.333  0.00  0.00    -0.285 N 
ATOM     13  C   UNL     1       8.925   2.943  24.638  0.00  0.00    +0.167 A 
ATOM     14  N   UNL     1       8.165   3.534  25.575  0.00  0.00    -0.216 NA
ATOM     15  C   UNL     1       8.349   4.871  25.559  0.00  0.00    +0.225 A 
ATOM     16  N   UNL     1       9.170   5.604  24.764  0.00  0.00    -0.219 NA
ATOM     17  C   UNL     1       9.938   4.948  23.870  0.00  0.00    +0.147 A 
ATOM     18  N   UNL     1      10.806   5.687  23.079  0.00  0.00    -0.341 N 
ATOM     19  H   UNL     1      11.076   5.211  22.223  0.00  0.00    +0.144 HD
ATOM     20  H   UNL     1      10.531   6.654  23.008  0.00  0.00    +0.144 HD
ATOM     21  C   UNL     1       9.816   3.556  23.764  0.00  0.00    +0.147 A 
ATOM     22  N   UNL     1      10.428   2.626  22.952  0.00  0.00    -0.231 NA
ATOM     23  C   UNL     1       9.910   1.473  23.315  0.00  0.00    +0.203 A 
ENDBRANCH  10  12
BRANCH   8  24
ATOM     24  O   UNL     1       6.203  -1.298  23.068  0.00  0.00    -0.386 OA
ATOM     25  H   UNL     1       6.917  -0.970  22.488  0.00  0.00    +0.210 HD
ENDBRANCH   8  24
BRANCH   9  26
ATOM     26  O   UNL     1       6.068   0.969  25.727  0.00  0.00    -0.276 OA
BRANCH  26  27
ATOM     27  P   UNL     1       4.729   1.801  25.461  0.00  0.00    +0.473 P 
ATOM     28  O   UNL     1       3.500   1.317  26.140  0.00  0.00    -0.228 OA
BRANCH  27  29
ATOM     29  O   UNL     1       5.253   3.248  25.898  0.00  0.00    -0.303 OA
ATOM     30  H   UNL     1       4.987   3.924  25.249  0.00  0.00    +0.222 HD
ENDBRANCH  27  29
BRANCH  27  31
ATOM     31  O   UNL     1       4.747   1.879  23.879  0.00  0.00    -0.303 OA
ATOM     32  H   UNL     1       4.291   2.650  23.508  0.00  0.00    +0.222 HD
ENDBRANCH  27  31
ENDBRANCH  26  27
ENDBRANCH   9  26
ENDBRANCH   6   7
ENDBRANCH   5   6
ENDBRANCH   1   5
BRANCH   1  33
ATOM     33  O   UNL     1       8.176  -5.476  23.327  0.00  0.00    -0.229 OA
BRANCH  33  34
ATOM     34  P   UNL     1       7.085  -4.664  22.256  0.00  0.00    +0.222 P 
ATOM     35  O   UNL     1       5.995  -3.853  21.184  0.00  0.00    -0.437 OA
ATOM     36  O   UNL     1       6.693  -6.070  21.766  0.00  0.00    -0.517 OA
BRANCH  34  37
ATOM     37  O   UNL     1       6.059  -4.364  23.594  0.00  0.00    -0.324 OA
BRANCH  37  38
ATOM     38  C   UNL     1       4.674  -4.463  23.258  0.00  0.00    +0.202 C 
BRANCH  38  42
ATOM     39  C   UNL     1       3.635  -7.437  25.047  0.00  0.00    +0.439 C 
ATOM     40  C   UNL     1       2.375  -7.232  24.181  0.00  0.00    +0.244 C 
ATOM     41  C   UNL     1       2.577  -5.890  23.475  0.00  0.00    +0.183 C 
ATOM     42  C   UNL     1       3.865  -5.403  24.095  0.00  0.00    +0.182 C 
ATOM     43  O   UNL     1       4.613  -6.575  24.453  0.00  0.00    -0.309 OA
BRANCH  39  46
ATOM     44  C   UNL     1       4.715  -6.584  28.553  0.00  0.00    +0.100 A 
ATOM     45  C   UNL     1       4.704  -6.850  27.183  0.00  0.00    +0.324 A 
ATOM     46  N   UNL     1       3.537  -7.090  26.512  0.00  0.00    -0.173 N 
ATOM     47  C   UNL     1       2.368  -7.100  27.192  0.00  0.00    +0.311 A 
ATOM     48  C   UNL     1       2.336  -6.847  28.563  0.00  0.00    +0.071 A 
ATOM     49  C   UNL     1       3.517  -6.593  29.254  0.00  0.00    +0.025 A 
BRANCH  44  53
ATOM     50  N   UNL     1       6.242  -6.851  30.447  0.00  0.00    -0.325 N 
ATOM     51  H   UNL     1       5.523  -7.205  31.060  0.00  0.00    +0.145 HD
ATOM     52  H   UNL     1       7.134  -6.627  30.876  0.00  0.00    +0.145 HD
ATOM     53  C   UNL     1       6.034  -6.364  29.189  0.00  0.00    +0.247 C 
ATOM     54  O   UNL     1       6.900  -5.741  28.593  0.00  0.00    -0.270 OA
ENDBRANCH  44  53
ENDBRANCH  39  46
BRANCH  41  55
ATOM     55  O   UNL     1       1.510  -5.003  23.804  0.00  0.00    -0.386 OA
ATOM     56  H   UNL     1       0.972  -5.450  24.494  0.00  0.00    +0.210 HD
ENDBRANCH  41  55
BRANCH  40  57
ATOM     57  O   UNL     1       2.274  -8.300  23.223  0.00  0.00    -0.380 OA
ATOM     58  H   UNL     1       3.166  -8.526  22.889  0.00  0.00    +0.210 HD
ENDBRANCH  40  57
ENDBRANCH  38  42
ENDBRANCH  37  38
ENDBRANCH  34  37
ENDBRANCH  33  34
ENDBRANCH   1  33
TORSDOF 19
ENDMDL
MODEL 3
REMARK VINA RESULT:      -7.5      2.872      6.484
REMARK  Name = 
REMARK  19 active torsions:
REMARK  status: ('A' for Active; 'I' for Inactive)
REMARK    1  A    between atoms: C_2  and  C_4
REMARK    2  A    between atoms: N_8  and  C_10
REMARK    3  A    between atoms: C_13  and  C_15
REMARK    4  A    between atoms: C_15  and  O_16
REMARK    5  A    between atoms: O_16  and  P_17
REMARK    6  A    between atoms: P_17  and  O_20
REMARK    7  A    between atoms: O_20  and  P_21
REMARK    8  A    between atoms: P_21  and  O_22
REMARK    9  A    between atoms: P_21  and  O_24
REMARK   10  A    between atoms: O_24  and  C_25
REMARK   11  A    between atoms: C_25  and  C_26
REMARK   12  A    between atoms: C_29  and  N_41
REMARK   13  A    between atoms: C_31  and  O_33
REMARK   14  A    between atoms: O_33  and  P_34
REMARK   15  A    between atoms: P_34  and  O_35
REMARK   16  A    between atoms: P_34  and  O_36
REMARK   17  A    between atoms: C_38  and  O_40
REMARK   18  A    between atoms: C_51  and  O_53
REMARK   19  A    between atoms: C_54  and  O_56
REMARK                            x       y       z     vdW  Elec       q    Type
REMARK                         _______ _______ _______ _____ _____    ______ ____
ROOT
ATOM      1  P   UNL     1       5.512  -6.322  27.566  0.00  0.00    +0.480 P 
ATOM      2  O   UNL     1       5.899  -7.416  28.575  0.00  0.00    -0.227 OA
ENDROOT
BRANCH   1   3
ATOM      3  O   UNL     1       5.106  -5.054  28.514  0.00  0.00    -0.302 OA
ATOM      4  H   UNL     1       5.342  -5.290  29.438  0.00  0.00    +0.222 HD
ENDBRANCH   1   3
BRANCH   1   5
ATOM      5  O   UNL     1       7.134  -5.733  27.681  0.00  0.00    -0.284 OA
BRANCH   5   6
ATOM      6  C   UNL     1       7.368  -4.457  27.063  0.00  0.00    +0.206 C 
BRANCH   6   7
ATOM      7  C   UNL     1       8.569  -4.485  26.113  0.00  0.00    +0.178 C 
ATOM      8  C   UNL     1       8.315  -5.274  24.826  0.00  0.00    +0.179 C 
ATOM      9  C   UNL     1       7.954  -4.232  23.768  0.00  0.00    +0.211 C 
ATOM     10  C   UNL     1       8.103  -2.905  24.519  0.00  0.00    +0.254 C 
ATOM     11  O   UNL     1       8.882  -3.148  25.700  0.00  0.00    -0.346 OA
BRANCH  10  12
ATOM     12  N   UNL     1       8.722  -1.840  23.768  0.00  0.00    -0.285 N 
ATOM     13  C   UNL     1       8.129  -0.696  23.316  0.00  0.00    +0.167 A 
ATOM     14  N   UNL     1       6.853  -0.304  23.465  0.00  0.00    -0.216 NA
ATOM     15  C   UNL     1       6.651   0.887  22.862  0.00  0.00    +0.225 A 
ATOM     16  N   UNL     1       7.543   1.660  22.193  0.00  0.00    -0.219 NA
ATOM     17  C   UNL     1       8.819   1.230  22.113  0.00  0.00    +0.147 A 
ATOM     18  N   UNL     1       9.745   2.033  21.462  0.00  0.00    -0.341 N 
ATOM     19  H   UNL     1      10.560   1.522  21.132  0.00  0.00    +0.144 HD
ATOM     20  H   UNL     1       9.310   2.680  20.823  0.00  0.00    +0.144 HD
ATOM     21  C   UNL     1       9.153  -0.011  22.671  0.00  0.00    +0.147 A 
ATOM     22  N   UNL     1      10.334  -0.718  22.731  0.00  0.00    -0.231 NA
ATOM     23  C   UNL     1      10.032  -1.818  23.387  0.00  0.00    +0.203 A 
ENDBRANCH  10  12
BRANCH   8  24
ATOM     24  O   UNL     1       9.519  -5.951  24.438  0.00  0.00    -0.386 OA
ATOM     25  H   UNL     1      10.153  -5.914  25.180  0.00  0.00    +0.210 HD
ENDBRANCH   8  24
BRANCH   9  26
ATOM     26  O   UNL     1       6.604  -4.363  23.339  0.00  0.00    -0.276 OA
BRANCH  26  27
ATOM     27  P   UNL     1       6.277  -5.174  22.000  0.00  0.00    +0.473 P 
ATOM     28  O   UNL     1       7.404  -5.921  21.384  0.00  0.00    -0.228 OA
BRANCH  27  29
ATOM     29  O   UNL     1       5.059  -6.056  22.544  0.00  0.00    -0.303 OA
ATOM     30  H   UNL     1       4.302  -5.491  22.786  0.00  0.00    +0.222 HD
ENDBRANCH  27  29
BRANCH  27  31
ATOM     31  O   UNL     1       5.552  -4.049  21.151  0.00  0.00    -0.303 OA
ATOM     32  H   UNL     1       5.896  -3.154  21.291  0.00  0.00    +0.222 HD
ENDBRANCH  27  31
ENDBRANCH  26  27
ENDBRANCH   9  26
ENDBRANCH   6   7
ENDBRANCH   5   6
ENDBRANCH   1   5
BRANCH   1  33
ATOM     33  O   UNL     1       3.889  -6.912  27.451  0.00  0.00    -0.229 OA
BRANCH  33  34
ATOM     34  P   UNL     1       3.351  -6.804  25.811  0.00  0.00    +0.222 P 
ATOM     35  O   UNL     1       2.812  -6.696  24.170  0.00  0.00    -0.437 OA
ATOM     36  O   UNL     1       1.978  -6.432  26.400  0.00  0.00    -0.517 OA
BRANCH  34  37
ATOM     37  O   UNL     1       4.189  -5.316  25.677  0.00  0.00    -0.324 OA
BRANCH  37  38
ATOM     38  C   UNL     1       3.412  -4.303  25.035  0.00  0.00    +0.202 C 
BRANCH  38  42
ATOM     39  C   UNL     1       3.352  -1.963  27.799  0.00  0.00    +0.439 C 
ATOM     40  C   UNL     1       1.831  -2.121  27.593  0.00  0.00    +0.244 C 
ATOM     41  C   UNL     1       1.675  -2.960  26.322  0.00  0.00    +0.183 C 
ATOM     42  C   UNL     1       3.106  -3.093  25.860  0.00  0.00    +0.182 C 
ATOM     43  O   UNL     1       3.922  -3.036  27.041  0.00  0.00    -0.309 OA
BRANCH  39  46
ATOM     44  C   UNL     1       6.028   0.519  26.869  0.00  0.00    +0.100 A 
ATOM     45  C   UNL     1       5.350  -0.645  27.231  0.00  0.00    +0.324 A 
ATOM     46  N   UNL     1       3.987  -0.676  27.334  0.00  0.00    -0.173 N 
ATOM     47  C   UNL     1       3.277   0.454  27.112  0.00  0.00    +0.311 A 
ATOM     48  C   UNL     1       3.917   1.642  26.758  0.00  0.00    +0.071 A 
ATOM     49  C   UNL     1       5.303   1.681  26.640  0.00  0.00    +0.025 A 
BRANCH  44  53
ATOM     50  N   UNL     1       8.174   1.389  26.077  0.00  0.00    -0.325 N 
ATOM     51  H   UNL     1       7.747   2.031  25.427  0.00  0.00    +0.145 HD
ATOM     52  H   UNL     1       9.181   1.275  26.009  0.00  0.00    +0.145 HD
ATOM     53  C   UNL     1       7.506   0.452  26.811  0.00  0.00    +0.247 C 
ATOM     54  O   UNL     1       8.097  -0.440  27.400  0.00  0.00    -0.270 OA
ENDBRANCH  44  53
ENDBRANCH  39  46
BRANCH  41  55
ATOM     55  O   UNL     1       0.915  -2.238  25.355  0.00  0.00    -0.386 OA
ATOM     56  H   UNL     1       0.693  -1.371  25.758  0.00  0.00    +0.210 HD
ENDBRANCH  41  55
BRANCH  40  57
ATOM     57  O   UNL     1       1.263  -2.803  28.724  0.00  0.00    -0.380 OA
ATOM     58  H   UNL     1       1.977  -3.071  29.338  0.00  0.00    +0.210 HD
ENDBRANCH  40  57
ENDBRANCH  38  42
ENDBRANCH  37  38
ENDBRANCH  34  37
ENDBRANCH  33  34
ENDBRANCH   1  33
TORSDOF 19
ENDMDL
MODEL 4
REMARK VINA RESULT:      -7.3      2.940      5.899
REMARK  Name = 
REMARK  19 active torsions:
REMARK  status: ('A' for Active; 'I' for Inactive)
REMARK    1  A    between atoms: C_2  and  C_4
REMARK    2  A    between atoms: N_8  and  C_10
REMARK    3  A    between atoms: C_13  and  C_15
REMARK    4  A    between atoms: C_15  and  O_16
REMARK    5  A    between atoms: O_16  and  P_17
REMARK    6  A    between atoms: P_17  and  O_20
REMARK    7  A    between atoms: O_20  and  P_21
REMARK    8  A    between atoms: P_21  and  O_22
REMARK    9  A    between atoms: P_21  and  O_24
REMARK   10  A    between atoms: O_24  and  C_25
REMARK   11  A    between atoms: C_25  and  C_26
REMARK   12  A    between atoms: C_29  and  N_41
REMARK   13  A    between atoms: C_31  and  O_33
REMARK   14  A    between atoms: O_33  and  P_34
REMARK   15  A    between atoms: P_34  and  O_35
REMARK   16  A    between atoms: P_34  and  O_36
REMARK   17  A    between atoms: C_38  and  O_40
REMARK   18  A    between atoms: C_51  and  O_53
REMARK   19  A    between atoms: C_54  and  O_56
REMARK                            x       y       z     vdW  Elec       q    Type
REMARK                         _______ _______ _______ _____ _____    ______ ____
ROOT
ATOM      1  P   UNL     1       5.122  -6.397  27.316  0.00  0.00    +0.480 P 
ATOM      2  O   UNL     1       5.321  -7.517  28.349  0.00  0.00    -0.227 OA
ENDROOT
BRANCH   1   3
ATOM      3  O   UNL     1       5.184  -5.032  28.214  0.00  0.00    -0.302 OA
ATOM      4  H   UNL     1       4.524  -4.406  27.843  0.00  0.00    +0.222 HD
ENDBRANCH   1   3
BRANCH   1   5
ATOM      5  O   UNL     1       6.844  -6.267  27.220  0.00  0.00    -0.284 OA
BRANCH   5   6
ATOM      6  C   UNL     1       7.372  -4.948  27.430  0.00  0.00    +0.206 C 
BRANCH   6   7
ATOM      7  C   UNL     1       8.421  -4.569  26.380  0.00  0.00    +0.178 C 
ATOM      8  C   UNL     1       8.416  -5.482  25.151  0.00  0.00    +0.179 C 
ATOM      9  C   UNL     1       7.604  -4.740  24.090  0.00  0.00    +0.211 C 
ATOM     10  C   UNL     1       7.266  -3.412  24.774  0.00  0.00    +0.254 C 
ATOM     11  O   UNL     1       8.153  -3.248  25.891  0.00  0.00    -0.346 OA
BRANCH  10  12
ATOM     12  N   UNL     1       7.363  -2.244  23.933  0.00  0.00    -0.285 N 
ATOM     13  C   UNL     1       8.480  -1.767  23.308  0.00  0.00    +0.167 A 
ATOM     14  N   UNL     1       9.725  -2.268  23.331  0.00  0.00    -0.216 NA
ATOM     15  C   UNL     1      10.558  -1.501  22.595  0.00  0.00    +0.225 A 
ATOM     16  N   UNL     1      10.271  -0.380  21.886  0.00  0.00    -0.219 NA
ATOM     17  C   UNL     1       8.993   0.050  21.870  0.00  0.00    +0.147 A 
ATOM     18  N   UNL     1       8.686   1.175  21.117  0.00  0.00    -0.341 N 
ATOM     19  H   UNL     1       7.832   1.640  21.417  0.00  0.00    +0.144 HD
ATOM     20  H   UNL     1       9.494   1.752  20.942  0.00  0.00    +0.144 HD
ATOM     21  C   UNL     1       8.035  -0.641  22.623  0.00  0.00    +0.147 A 
ATOM     22  N   UNL     1       6.687  -0.441  22.825  0.00  0.00    -0.231 NA
ATOM     23  C   UNL     1       6.322  -1.417  23.628  0.00  0.00    +0.203 A 
ENDBRANCH  10  12
BRANCH   8  24
ATOM     24  O   UNL     1       9.761  -5.659  24.685  0.00  0.00    -0.386 OA
ATOM     25  H   UNL     1      10.159  -4.781  24.533  0.00  0.00    +0.210 HD
ENDBRANCH   8  24
BRANCH   9  26
ATOM     26  O   UNL     1       6.391  -5.417  23.786  0.00  0.00    -0.276 OA
BRANCH  26  27
ATOM     27  P   UNL     1       5.815  -5.371  22.294  0.00  0.00    +0.473 P 
ATOM     28  O   UNL     1       6.292  -4.259  21.432  0.00  0.00    -0.228 OA
BRANCH  27  29
ATOM     29  O   UNL     1       6.224  -6.847  21.833  0.00  0.00    -0.303 OA
ATOM     30  H   UNL     1       6.380  -7.421  22.605  0.00  0.00    +0.222 HD
ENDBRANCH  27  29
BRANCH  27  31
ATOM     31  O   UNL     1       4.263  -5.504  22.580  0.00  0.00    -0.303 OA
ATOM     32  H   UNL     1       3.940  -6.417  22.642  0.00  0.00    +0.222 HD
ENDBRANCH  27  31
ENDBRANCH  26  27
ENDBRANCH   9  26
ENDBRANCH   6   7
ENDBRANCH   5   6
ENDBRANCH   1   5
BRANCH   1  33
ATOM     33  O   UNL     1       3.399  -6.527  27.411  0.00  0.00    -0.229 OA
BRANCH  33  34
ATOM     34  P   UNL     1       2.701  -6.057  25.899  0.00  0.00    +0.222 P 
ATOM     35  O   UNL     1       2.002  -5.587  24.387  0.00  0.00    -0.437 OA
ATOM     36  O   UNL     1       1.581  -5.416  26.740  0.00  0.00    -0.517 OA
BRANCH  34  37
ATOM     37  O   UNL     1       3.902  -4.842  25.769  0.00  0.00    -0.324 OA
BRANCH  37  38
ATOM     38  C   UNL     1       3.377  -3.600  25.297  0.00  0.00    +0.202 C 
BRANCH  38  42
ATOM     39  C   UNL     1       4.558  -1.501  28.002  0.00  0.00    +0.439 C 
ATOM     40  C   UNL     1       3.047  -1.454  28.312  0.00  0.00    +0.244 C 
ATOM     41  C   UNL     1       2.367  -2.162  27.138  0.00  0.00    +0.183 C 
ATOM     42  C   UNL     1       3.534  -2.432  26.219  0.00  0.00    +0.182 C 
ATOM     43  O   UNL     1       4.690  -2.571  27.060  0.00  0.00    -0.309 OA
BRANCH  39  46
ATOM     44  C   UNL     1       7.159   0.743  26.458  0.00  0.00    +0.100 A 
ATOM     45  C   UNL     1       6.479  -0.362  26.972  0.00  0.00    +0.324 A 
ATOM     46  N   UNL     1       5.183  -0.268  27.399  0.00  0.00    -0.173 N 
ATOM     47  C   UNL     1       4.551   0.927  27.351  0.00  0.00    +0.311 A 
ATOM     48  C   UNL     1       5.198   2.058  26.853  0.00  0.00    +0.071 A 
ATOM     49  C   UNL     1       6.514   1.971  26.408  0.00  0.00    +0.025 A 
BRANCH  44  53
ATOM     50  N   UNL     1       9.143   1.457  25.217  0.00  0.00    -0.325 N 
ATOM     51  H   UNL     1       8.649   2.177  24.713  0.00  0.00    +0.145 HD
ATOM     52  H   UNL     1      10.089   1.254  24.907  0.00  0.00    +0.145 HD
ATOM     53  C   UNL     1       8.567   0.541  26.049  0.00  0.00    +0.247 C 
ATOM     54  O   UNL     1       9.180  -0.439  26.443  0.00  0.00    -0.270 OA
ENDBRANCH  44  53
ENDBRANCH  39  46
BRANCH  41  55
ATOM     55  O   UNL     1       1.443  -1.277  26.508  0.00  0.00    -0.386 OA
ATOM     56  H   UNL     1       1.316  -1.604  25.591  0.00  0.00    +0.210 HD
ENDBRANCH  41  55
BRANCH  40  57
ATOM     57  O   UNL     1       2.789  -2.151  29.543  0.00  0.00    -0.380 OA
ATOM     58  H   UNL     1       2.316  -2.987  29.354  0.00  0.00    +0.210 HD
ENDBRANCH  40  57
ENDBRANCH  38  42
ENDBRANCH  37  38
ENDBRANCH  34  37
ENDBRANCH  33  34
ENDBRANCH   1  33
TORSDOF 19
ENDMDL
MODEL 5
REMARK VINA RESULT:      -7.2      2.217      8.116
REMARK  Name = 
REMARK  19 active torsions:
REMARK  status: ('A' for Active; 'I' for Inactive)
REMARK    1  A    between atoms: C_2  and  C_4
REMARK    2  A    between atoms: N_8  and  C_10
REMARK    3  A    between atoms: C_13  and  C_15
REMARK    4  A    between atoms: C_15  and  O_16
REMARK    5  A    between atoms: O_16  and  P_17
REMARK    6  A    between atoms: P_17  and  O_20
REMARK    7  A    between atoms: O_20  and  P_21
REMARK    8  A    between atoms: P_21  and  O_22
REMARK    9  A    between atoms: P_21  and  O_24
REMARK   10  A    between atoms: O_24  and  C_25
REMARK   11  A    between atoms: C_25  and  C_26
REMARK   12  A    between atoms: C_29  and  N_41
REMARK   13  A    between atoms: C_31  and  O_33
REMARK   14  A    between atoms: O_33  and  P_34
REMARK   15  A    between atoms: P_34  and  O_35
REMARK   16  A    between atoms: P_34  and  O_36
REMARK   17  A    between atoms: C_38  and  O_40
REMARK   18  A    between atoms: C_51  and  O_53
REMARK   19  A    between atoms: C_54  and  O_56
REMARK                            x       y       z     vdW  Elec       q    Type
REMARK                         _______ _______ _______ _____ _____    ______ ____
ROOT
ATOM      1  P   UNL     1       4.533  -2.863  28.326  0.00  0.00    +0.480 P 
ATOM      2  O   UNL     1       3.114  -2.797  27.738  0.00  0.00    -0.227 OA
ENDROOT
BRANCH   1   3
ATOM      3  O   UNL     1       5.468  -3.209  27.029  0.00  0.00    -0.302 OA
ATOM      4  H   UNL     1       6.056  -2.436  26.877  0.00  0.00    +0.222 HD
ENDBRANCH   1   3
BRANCH   1   5
ATOM      5  O   UNL     1       4.728  -1.205  27.870  0.00  0.00    -0.284 OA
BRANCH   5   6
ATOM      6  C   UNL     1       5.563  -0.978  26.724  0.00  0.00    +0.206 C 
BRANCH   6   7
ATOM      7  C   UNL     1       6.788  -0.122  27.060  0.00  0.00    +0.178 C 
ATOM      8  C   UNL     1       8.120  -0.800  26.729  0.00  0.00    +0.179 C 
ATOM      9  C   UNL     1       8.542  -0.237  25.372  0.00  0.00    +0.211 C 
ATOM     10  C   UNL     1       7.445   0.787  25.061  0.00  0.00    +0.254 C 
ATOM     11  O   UNL     1       6.755   1.084  26.285  0.00  0.00    -0.346 OA
BRANCH  10  12
ATOM     12  N   UNL     1       7.905   2.024  24.479  0.00  0.00    -0.285 N 
ATOM     13  C   UNL     1       7.160   2.945  23.801  0.00  0.00    +0.167 A 
ATOM     14  N   UNL     1       5.846   2.912  23.525  0.00  0.00    -0.216 NA
ATOM     15  C   UNL     1       5.483   4.005  22.820  0.00  0.00    +0.225 A 
ATOM     16  N   UNL     1       6.254   5.047  22.417  0.00  0.00    -0.219 NA
ATOM     17  C   UNL     1       7.558   5.041  22.760  0.00  0.00    +0.147 A 
ATOM     18  N   UNL     1       8.345   6.120  22.383  0.00  0.00    -0.341 N 
ATOM     19  H   UNL     1       9.338   5.904  22.351  0.00  0.00    +0.144 HD
ATOM     20  H   UNL     1       7.953   6.626  21.604  0.00  0.00    +0.144 HD
ATOM     21  C   UNL     1       8.068   3.943  23.465  0.00  0.00    +0.147 A 
ATOM     22  N   UNL     1       9.329   3.637  23.929  0.00  0.00    -0.231 NA
ATOM     23  C   UNL     1       9.194   2.470  24.521  0.00  0.00    +0.203 A 
ENDBRANCH  10  12
BRANCH   8  24
ATOM     24  O   UNL     1       9.095  -0.441  27.718  0.00  0.00    -0.386 OA
ATOM     25  H   UNL     1       9.925  -0.918  27.529  0.00  0.00    +0.210 HD
ENDBRANCH   8  24
BRANCH   9  26
ATOM     26  O   UNL     1       8.531  -1.236  24.360  0.00  0.00    -0.276 OA
BRANCH  26  27
ATOM     27  P   UNL     1       9.757  -1.338  23.339  0.00  0.00    +0.473 P 
ATOM     28  O   UNL     1      10.739  -0.224  23.366  0.00  0.00    -0.228 OA
BRANCH  27  29
ATOM     29  O   UNL     1      10.310  -2.776  23.769  0.00  0.00    -0.303 OA
ATOM     30  H   UNL     1      10.711  -2.742  24.657  0.00  0.00    +0.222 HD
ENDBRANCH  27  29
BRANCH  27  31
ATOM     31  O   UNL     1       8.985  -1.642  21.989  0.00  0.00    -0.303 OA
ATOM     32  H   UNL     1       9.512  -1.515  21.185  0.00  0.00    +0.222 HD
ENDBRANCH  27  31
ENDBRANCH  26  27
ENDBRANCH   9  26
ENDBRANCH   6   7
ENDBRANCH   5   6
ENDBRANCH   1   5
BRANCH   1  33
ATOM     33  O   UNL     1       4.338  -4.520  28.781  0.00  0.00    -0.229 OA
BRANCH  33  34
ATOM     34  P   UNL     1       5.787  -5.392  28.416  0.00  0.00    +0.222 P 
ATOM     35  O   UNL     1       7.237  -6.264  28.052  0.00  0.00    -0.437 OA
ATOM     36  O   UNL     1       6.052  -5.371  29.933  0.00  0.00    -0.517 OA
BRANCH  34  37
ATOM     37  O   UNL     1       4.832  -6.790  28.158  0.00  0.00    -0.324 OA
BRANCH  37  38
ATOM     38  C   UNL     1       3.620  -6.506  27.457  0.00  0.00    +0.202 C 
BRANCH  38  42
ATOM     39  C   UNL     1       3.592  -5.336  24.029  0.00  0.00    +0.439 C 
ATOM     40  C   UNL     1       2.600  -6.509  23.884  0.00  0.00    +0.244 C 
ATOM     41  C   UNL     1       2.629  -7.238  25.229  0.00  0.00    +0.183 C 
ATOM     42  C   UNL     1       3.718  -6.492  25.964  0.00  0.00    +0.182 C 
ATOM     43  O   UNL     1       3.716  -5.153  25.444  0.00  0.00    -0.309 OA
BRANCH  39  46
ATOM     44  C   UNL     1       7.353  -5.330  23.821  0.00  0.00    +0.100 A 
ATOM     45  C   UNL     1       6.038  -5.247  24.278  0.00  0.00    +0.324 A 
ATOM     46  N   UNL     1       4.977  -5.522  23.461  0.00  0.00    -0.173 N 
ATOM     47  C   UNL     1       5.202  -5.855  22.169  0.00  0.00    +0.311 A 
ATOM     48  C   UNL     1       6.501  -5.941  21.668  0.00  0.00    +0.071 A 
ATOM     49  C   UNL     1       7.588  -5.671  22.495  0.00  0.00    +0.025 A 
BRANCH  44  53
ATOM     50  N   UNL     1       8.157  -4.085  25.768  0.00  0.00    -0.325 N 
ATOM     51  H   UNL     1       7.339  -3.497  25.811  0.00  0.00    +0.145 HD
ATOM     52  H   UNL     1       8.935  -3.826  26.367  0.00  0.00    +0.145 HD
ATOM     53  C   UNL     1       8.428  -4.985  24.779  0.00  0.00    +0.247 C 
ATOM     54  O   UNL     1       9.532  -5.494  24.661  0.00  0.00    -0.270 OA
ENDBRANCH  44  53
ENDBRANCH  39  46
BRANCH  41  55
ATOM     55  O   UNL     1       3.013  -8.598  25.036  0.00  0.00    -0.386 OA
ATOM     56  H   UNL     1       2.606  -9.114  25.766  0.00  0.00    +0.210 HD
ENDBRANCH  41  55
BRANCH  40  57
ATOM     57  O   UNL     1       1.285  -5.993  23.614  0.00  0.00    -0.380 OA
ATOM     58  H   UNL     1       1.260  -5.616  22.711  0.00  0.00    +0.210 HD
ENDBRANCH  40  57
ENDBRANCH  38  42
ENDBRANCH  37  38
ENDBRANCH  34  37
ENDBRANCH  33  34
ENDBRANCH   1  33
TORSDOF 19
ENDMDL
MODEL 6
REMARK VINA RESULT:      -7.1      2.962      8.957
REMARK  Name = 
REMARK  19 active torsions:
REMARK  status: ('A' for Active; 'I' for Inactive)
REMARK    1  A    between atoms: C_2  and  C_4
REMARK    2  A    between atoms: N_8  and  C_10
REMARK    3  A    between atoms: C_13  and  C_15
REMARK    4  A    between atoms: C_15  and  O_16
REMARK    5  A    between atoms: O_16  and  P_17
REMARK    6  A    between atoms: P_17  and  O_20
REMARK    7  A    between atoms: O_20  and  P_21
REMARK    8  A    between atoms: P_21  and  O_22
REMARK    9  A    between atoms: P_21  and  O_24
REMARK   10  A    between atoms: O_24  and  C_25
REMARK   11  A    between atoms: C_25  and  C_26
REMARK   12  A    between atoms: C_29  and  N_41
REMARK   13  A    between atoms: C_31  and  O_33
REMARK   14  A    between atoms: O_33  and  P_34
REMARK   15  A    between atoms: P_34  and  O_35
REMARK   16  A    between atoms: P_34  and  O_36
REMARK   17  A    between atoms: C_38  and  O_40
REMARK   18  A    between atoms: C_51  and  O_53
REMARK   19  A    between atoms: C_54  and  O_56
REMARK                            x       y       z     vdW  Elec       q    Type
REMARK                         _______ _______ _______ _____ _____    ______ ____
ROOT
ATOM      1  P   UNL     1       7.953  -4.595  24.803  0.00  0.00    +0.480 P 
ATOM      2  O   UNL     1       9.449  -4.776  25.107  0.00  0.00    -0.227 OA
ENDROOT
BRANCH   1   3
ATOM      3  O   UNL     1       7.266  -5.924  25.463  0.00  0.00    -0.302 OA
ATOM      4  H   UNL     1       7.433  -5.891  26.430  0.00  0.00    +0.222 HD
ENDBRANCH   1   3
BRANCH   1   5
ATOM      5  O   UNL     1       7.787  -3.881  26.370  0.00  0.00    -0.284 OA
BRANCH   5   6
ATOM      6  C   UNL     1       6.733  -2.914  26.494  0.00  0.00    +0.206 C 
BRANCH   6   7
ATOM      7  C   UNL     1       7.269  -1.497  26.721  0.00  0.00    +0.178 C 
ATOM      8  C   UNL     1       8.579  -1.211  25.983  0.00  0.00    +0.179 C 
ATOM      9  C   UNL     1       8.179  -0.472  24.706  0.00  0.00    +0.211 C 
ATOM     10  C   UNL     1       6.661  -0.323  24.849  0.00  0.00    +0.254 C 
ATOM     11  O   UNL     1       6.321  -0.542  26.226  0.00  0.00    -0.346 OA
BRANCH  10  12
ATOM     12  N   UNL     1       6.127   0.952  24.438  0.00  0.00    -0.285 N 
ATOM     13  C   UNL     1       6.653   1.810  23.515  0.00  0.00    +0.167 A 
ATOM     14  N   UNL     1       7.772   1.665  22.786  0.00  0.00    -0.216 NA
ATOM     15  C   UNL     1       7.961   2.740  21.992  0.00  0.00    +0.225 A 
ATOM     16  N   UNL     1       7.185   3.845  21.864  0.00  0.00    -0.219 NA
ATOM     17  C   UNL     1       6.053   3.913  22.593  0.00  0.00    +0.147 A 
ATOM     18  N   UNL     1       5.236   5.024  22.441  0.00  0.00    -0.341 N 
ATOM     19  H   UNL     1       4.622   5.186  23.235  0.00  0.00    +0.144 HD
ATOM     20  H   UNL     1       5.733   5.818  22.067  0.00  0.00    +0.144 HD
ATOM     21  C   UNL     1       5.758   2.874  23.485  0.00  0.00    +0.147 A 
ATOM     22  N   UNL     1       4.717   2.667  24.364  0.00  0.00    -0.231 NA
ATOM     23  C   UNL     1       4.981   1.508  24.927  0.00  0.00    +0.203 A 
ENDBRANCH  10  12
BRANCH   8  24
ATOM     24  O   UNL     1       9.403  -0.358  26.789  0.00  0.00    -0.386 OA
ATOM     25  H   UNL     1      10.138  -0.022  26.242  0.00  0.00    +0.210 HD
ENDBRANCH   8  24
BRANCH   9  26
ATOM     26  O   UNL     1       8.453  -1.243  23.542  0.00  0.00    -0.276 OA
BRANCH  26  27
ATOM     27  P   UNL     1       9.927  -1.238  22.921  0.00  0.00    +0.473 P 
ATOM     28  O   UNL     1      10.703  -2.498  23.043  0.00  0.00    -0.228 OA
BRANCH  27  29
ATOM     29  O   UNL     1       9.560  -0.775  21.435  0.00  0.00    -0.303 OA
ATOM     30  H   UNL     1      10.120  -0.027  21.156  0.00  0.00    +0.222 HD
ENDBRANCH  27  29
BRANCH  27  31
ATOM     31  O   UNL     1      10.510   0.084  23.572  0.00  0.00    -0.303 OA
ATOM     32  H   UNL     1      10.321   0.895  23.075  0.00  0.00    +0.222 HD
ENDBRANCH  27  31
ENDBRANCH  26  27
ENDBRANCH   9  26
ENDBRANCH   6   7
ENDBRANCH   5   6
ENDBRANCH   1   5
BRANCH   1  33
ATOM     33  O   UNL     1       8.118  -5.309  23.236  0.00  0.00    -0.229 OA
BRANCH  33  34
ATOM     34  P   UNL     1       6.990  -4.578  22.147  0.00  0.00    +0.222 P 
ATOM     35  O   UNL     1       5.862  -3.848  21.057  0.00  0.00    -0.437 OA
ATOM     36  O   UNL     1       6.654  -6.014  21.703  0.00  0.00    -0.517 OA
BRANCH  34  37
ATOM     37  O   UNL     1       5.958  -4.279  23.481  0.00  0.00    -0.324 OA
BRANCH  37  38
ATOM     38  C   UNL     1       4.576  -4.409  23.146  0.00  0.00    +0.202 C 
BRANCH  38  42
ATOM     39  C   UNL     1       3.552  -7.361  24.980  0.00  0.00    +0.439 C 
ATOM     40  C   UNL     1       2.269  -7.144  24.150  0.00  0.00    +0.244 C 
ATOM     41  C   UNL     1       2.468  -5.808  23.431  0.00  0.00    +0.183 C 
ATOM     42  C   UNL     1       3.779  -5.334  24.012  0.00  0.00    +0.182 C 
ATOM     43  O   UNL     1       4.522  -6.514  24.353  0.00  0.00    -0.309 OA
BRANCH  39  46
ATOM     44  C   UNL     1       4.742  -6.469  28.440  0.00  0.00    +0.100 A 
ATOM     45  C   UNL     1       4.686  -6.744  27.073  0.00  0.00    +0.324 A 
ATOM     46  N   UNL     1       3.500  -7.006  26.445  0.00  0.00    -0.173 N 
ATOM     47  C   UNL     1       2.356  -7.029  27.166  0.00  0.00    +0.311 A 
ATOM     48  C   UNL     1       2.369  -6.768  28.536  0.00  0.00    +0.071 A 
ATOM     49  C   UNL     1       3.570  -6.491  29.184  0.00  0.00    +0.025 A 
BRANCH  44  53
ATOM     50  N   UNL     1       7.178  -6.363  28.232  0.00  0.00    -0.325 N 
ATOM     51  H   UNL     1       7.183  -6.782  27.315  0.00  0.00    +0.145 HD
ATOM     52  H   UNL     1       8.080  -6.249  28.684  0.00  0.00    +0.145 HD
ATOM     53  C   UNL     1       6.079  -6.225  29.028  0.00  0.00    +0.247 C 
ATOM     54  O   UNL     1       6.177  -5.924  30.208  0.00  0.00    -0.270 OA
ENDBRANCH  44  53
ENDBRANCH  39  46
BRANCH  41  55
ATOM     55  O   UNL     1       1.422  -4.906  23.787  0.00  0.00    -0.386 OA
ATOM     56  H   UNL     1       1.621  -4.052  23.346  0.00  0.00    +0.210 HD
ENDBRANCH  41  55
BRANCH  40  57
ATOM     57  O   UNL     1       2.127  -8.215  23.200  0.00  0.00    -0.380 OA
ATOM     58  H   UNL     1       2.634  -8.994  23.506  0.00  0.00    +0.210 HD
ENDBRANCH  40  57
ENDBRANCH  38  42
ENDBRANCH  37  38
ENDBRANCH  34  37
ENDBRANCH  33  34
ENDBRANCH   1  33
TORSDOF 19
ENDMDL
MODEL 7
REMARK VINA RESULT:      -7.1      2.816      5.612
REMARK  Name = 
REMARK  19 active torsions:
REMARK  status: ('A' for Active; 'I' for Inactive)
REMARK    1  A    between atoms: C_2  and  C_4
REMARK    2  A    between atoms: N_8  and  C_10
REMARK    3  A    between atoms: C_13  and  C_15
REMARK    4  A    between atoms: C_15  and  O_16
REMARK    5  A    between atoms: O_16  and  P_17
REMARK    6  A    between atoms: P_17  and  O_20
REMARK    7  A    between atoms: O_20  and  P_21
REMARK    8  A    between atoms: P_21  and  O_22
REMARK    9  A    between atoms: P_21  and  O_24
REMARK   10  A    between atoms: O_24  and  C_25
REMARK   11  A    between atoms: C_25  and  C_26
REMARK   12  A    between atoms: C_29  and  N_41
REMARK   13  A    between atoms: C_31  and  O_33
REMARK   14  A    between atoms: O_33  and  P_34
REMARK   15  A    between atoms: P_34  and  O_35
REMARK   16  A    between atoms: P_34  and  O_36
REMARK   17  A    between atoms: C_38  and  O_40
REMARK   18  A    between atoms: C_51  and  O_53
REMARK   19  A    between atoms: C_54  and  O_56
REMARK                            x       y       z     vdW  Elec       q    Type
REMARK                         _______ _______ _______ _____ _____    ______ ____
ROOT
ATOM      1  P   UNL     1       5.695  -5.943  27.431  0.00  0.00    +0.480 P 
ATOM      2  O   UNL     1       5.897  -7.243  28.226  0.00  0.00    -0.227 OA
ENDROOT
BRANCH   1   3
ATOM      3  O   UNL     1       5.551  -4.803  28.594  0.00  0.00    -0.302 OA
ATOM      4  H   UNL     1       6.325  -4.202  28.514  0.00  0.00    +0.222 HD
ENDBRANCH   1   3
BRANCH   1   5
ATOM      5  O   UNL     1       7.400  -5.680  27.554  0.00  0.00    -0.284 OA
BRANCH   5   6
ATOM      6  C   UNL     1       7.845  -4.364  27.189  0.00  0.00    +0.206 C 
BRANCH   6   7
ATOM      7  C   UNL     1       8.897  -4.395  26.076  0.00  0.00    +0.178 C 
ATOM      8  C   UNL     1       8.517  -5.296  24.898  0.00  0.00    +0.179 C 
ATOM      9  C   UNL     1       7.937  -4.363  23.836  0.00  0.00    +0.211 C 
ATOM     10  C   UNL     1       8.100  -2.975  24.463  0.00  0.00    +0.254 C 
ATOM     11  O   UNL     1       9.055  -3.079  25.530  0.00  0.00    -0.346 OA
BRANCH  10  12
ATOM     12  N   UNL     1       8.531  -1.937  23.559  0.00  0.00    -0.285 N 
ATOM     13  C   UNL     1       9.119  -0.749  23.884  0.00  0.00    +0.167 A 
ATOM     14  N   UNL     1       9.429  -0.280  25.105  0.00  0.00    -0.216 NA
ATOM     15  C   UNL     1       9.989   0.945  25.012  0.00  0.00    +0.225 A 
ATOM     16  N   UNL     1      10.258   1.672  23.898  0.00  0.00    -0.219 NA
ATOM     17  C   UNL     1       9.959   1.128  22.700  0.00  0.00    +0.147 A 
ATOM     18  N   UNL     1      10.264   1.850  21.554  0.00  0.00    -0.341 N 
ATOM     19  H   UNL     1       9.717   1.571  20.744  0.00  0.00    +0.144 HD
ATOM     20  H   UNL     1      10.356   2.838  21.736  0.00  0.00    +0.144 HD
ATOM     21  C   UNL     1       9.341  -0.128  22.660  0.00  0.00    +0.147 A 
ATOM     22  N   UNL     1       8.902  -0.918  21.620  0.00  0.00    -0.231 NA
ATOM     23  C   UNL     1       8.409  -1.990  22.200  0.00  0.00    +0.203 A 
ENDBRANCH  10  12
BRANCH   8  24
ATOM     24  O   UNL     1       9.696  -5.929  24.384  0.00  0.00    -0.386 OA
ATOM     25  H   UNL     1      10.269  -5.248  23.982  0.00  0.00    +0.210 HD
ENDBRANCH   8  24
BRANCH   9  26
ATOM     26  O   UNL     1       6.552  -4.604  23.620  0.00  0.00    -0.276 OA
BRANCH  26  27
ATOM     27  P   UNL     1       6.047  -5.062  22.174  0.00  0.00    +0.473 P 
ATOM     28  O   UNL     1       5.679  -3.979  21.225  0.00  0.00    -0.228 OA
BRANCH  27  29
ATOM     29  O   UNL     1       7.296  -5.970  21.759  0.00  0.00    -0.303 OA
ATOM     30  H   UNL     1       7.907  -6.084  22.510  0.00  0.00    +0.222 HD
ENDBRANCH  27  29
BRANCH  27  31
ATOM     31  O   UNL     1       4.947  -6.130  22.576  0.00  0.00    -0.303 OA
ATOM     32  H   UNL     1       5.080  -6.537  23.447  0.00  0.00    +0.222 HD
ENDBRANCH  27  31
ENDBRANCH  26  27
ENDBRANCH   9  26
ENDBRANCH   6   7
ENDBRANCH   5   6
ENDBRANCH   1   5
BRANCH   1  33
ATOM     33  O   UNL     1       3.989  -6.206  27.308  0.00  0.00    -0.229 OA
BRANCH  33  34
ATOM     34  P   UNL     1       3.399  -5.488  25.849  0.00  0.00    +0.222 P 
ATOM     35  O   UNL     1       2.807  -4.771  24.389  0.00  0.00    -0.437 OA
ATOM     36  O   UNL     1       1.992  -5.744  26.422  0.00  0.00    -0.517 OA
BRANCH  34  37
ATOM     37  O   UNL     1       3.852  -3.956  26.468  0.00  0.00    -0.324 OA
BRANCH  37  38
ATOM     38  C   UNL     1       3.998  -2.972  25.443  0.00  0.00    +0.202 C 
BRANCH  38  42
ATOM     39  C   UNL     1       5.964   0.068  25.571  0.00  0.00    +0.439 C 
ATOM     40  C   UNL     1       6.211  -0.431  27.010  0.00  0.00    +0.244 C 
ATOM     41  C   UNL     1       5.293  -1.643  27.186  0.00  0.00    +0.183 C 
ATOM     42  C   UNL     1       4.525  -1.643  25.885  0.00  0.00    +0.182 C 
ATOM     43  O   UNL     1       5.394  -1.062  24.900  0.00  0.00    -0.309 OA
BRANCH  39  46
ATOM     44  C   UNL     1       4.287   3.035  23.966  0.00  0.00    +0.100 A 
ATOM     45  C   UNL     1       5.071   1.904  24.199  0.00  0.00    +0.324 A 
ATOM     46  N   UNL     1       5.028   1.238  25.392  0.00  0.00    -0.173 N 
ATOM     47  C   UNL     1       4.230   1.698  26.383  0.00  0.00    +0.311 A 
ATOM     48  C   UNL     1       3.438   2.830  26.194  0.00  0.00    +0.071 A 
ATOM     49  C   UNL     1       3.468   3.511  24.981  0.00  0.00    +0.025 A 
BRANCH  44  53
ATOM     50  N   UNL     1       5.682   3.889  22.145  0.00  0.00    -0.325 N 
ATOM     51  H   UNL     1       6.541   3.772  22.662  0.00  0.00    +0.145 HD
ATOM     52  H   UNL     1       5.744   4.402  21.272  0.00  0.00    +0.145 HD
ATOM     53  C   UNL     1       4.429   3.698  22.650  0.00  0.00    +0.247 C 
ATOM     54  O   UNL     1       3.433   4.075  22.050  0.00  0.00    -0.270 OA
ENDBRANCH  44  53
ENDBRANCH  39  46
BRANCH  41  55
ATOM     55  O   UNL     1       4.403  -1.423  28.278  0.00  0.00    -0.386 OA
ATOM     56  H   UNL     1       4.954  -1.388  29.090  0.00  0.00    +0.210 HD
ENDBRANCH  41  55
BRANCH  40  57
ATOM     57  O   UNL     1       7.590  -0.814  27.154  0.00  0.00    -0.380 OA
ATOM     58  H   UNL     1       8.131  -0.023  27.350  0.00  0.00    +0.210 HD
ENDBRANCH  40  57
ENDBRANCH  38  42
ENDBRANCH  37  38
ENDBRANCH  34  37
ENDBRANCH  33  34
ENDBRANCH   1  33
TORSDOF 19
ENDMDL
MODEL 8
REMARK VINA RESULT:      -7.0      2.991      5.562
REMARK  Name = 
REMARK  19 active torsions:
REMARK  status: ('A' for Active; 'I' for Inactive)
REMARK    1  A    between atoms: C_2  and  C_4
REMARK    2  A    between atoms: N_8  and  C_10
REMARK    3  A    between atoms: C_13  and  C_15
REMARK    4  A    between atoms: C_15  and  O_16
REMARK    5  A    between atoms: O_16  and  P_17
REMARK    6  A    between atoms: P_17  and  O_20
REMARK    7  A    between atoms: O_20  and  P_21
REMARK    8  A    between atoms: P_21  and  O_22
REMARK    9  A    between atoms: P_21  and  O_24
REMARK   10  A    between atoms: O_24  and  C_25
REMARK   11  A    between atoms: C_25  and  C_26
REMARK   12  A    between atoms: C_29  and  N_41
REMARK   13  A    between atoms: C_31  and  O_33
REMARK   14  A    between atoms: O_33  and  P_34
REMARK   15  A    between atoms: P_34  and  O_35
REMARK   16  A    between atoms: P_34  and  O_36
REMARK   17  A    between atoms: C_38  and  O_40
REMARK   18  A    between atoms: C_51  and  O_53
REMARK   19  A    between atoms: C_54  and  O_56
REMARK                            x       y       z     vdW  Elec       q    Type
REMARK                         _______ _______ _______ _____ _____    ______ ____
ROOT
ATOM      1  P   UNL     1       6.678  -5.273  27.676  0.00  0.00    +0.480 P 
ATOM      2  O   UNL     1       7.202  -3.893  27.246  0.00  0.00    -0.227 OA
ENDROOT
BRANCH   1   3
ATOM      3  O   UNL     1       5.566  -5.632  26.533  0.00  0.00    -0.302 OA
ATOM      4  H   UNL     1       4.983  -6.334  26.900  0.00  0.00    +0.222 HD
ENDBRANCH   1   3
BRANCH   1   5
ATOM      5  O   UNL     1       7.834  -5.976  26.599  0.00  0.00    -0.284 OA
BRANCH   5   6
ATOM      6  C   UNL     1       8.964  -5.146  26.286  0.00  0.00    +0.206 C 
BRANCH   6   7
ATOM      7  C   UNL     1       9.184  -5.011  24.776  0.00  0.00    +0.178 C 
ATOM      8  C   UNL     1       7.927  -5.281  23.947  0.00  0.00    +0.179 C 
ATOM      9  C   UNL     1       7.343  -3.906  23.625  0.00  0.00    +0.211 C 
ATOM     10  C   UNL     1       8.362  -2.941  24.237  0.00  0.00    +0.254 C 
ATOM     11  O   UNL     1       9.578  -3.667  24.469  0.00  0.00    -0.346 OA
BRANCH  10  12
ATOM     12  N   UNL     1       8.664  -1.777  23.441  0.00  0.00    -0.285 N 
ATOM     13  C   UNL     1       9.465  -0.726  23.783  0.00  0.00    +0.167 A 
ATOM     14  N   UNL     1      10.148  -0.538  24.925  0.00  0.00    -0.216 NA
ATOM     15  C   UNL     1      10.816   0.635  24.888  0.00  0.00    +0.225 A 
ATOM     16  N   UNL     1      10.868   1.549  23.886  0.00  0.00    -0.219 NA
ATOM     17  C   UNL     1      10.192   1.283  22.749  0.00  0.00    +0.147 A 
ATOM     18  N   UNL     1      10.269   2.196  21.707  0.00  0.00    -0.341 N 
ATOM     19  H   UNL     1       9.494   2.128  21.053  0.00  0.00    +0.144 HD
ATOM     20  H   UNL     1      10.533   3.116  22.023  0.00  0.00    +0.144 HD
ATOM     21  C   UNL     1       9.430   0.110  22.673  0.00  0.00    +0.147 A 
ATOM     22  N   UNL     1       8.630  -0.419  21.683  0.00  0.00    -0.231 NA
ATOM     23  C   UNL     1       8.178  -1.546  22.187  0.00  0.00    +0.203 A 
ENDBRANCH  10  12
BRANCH   8  24
ATOM     24  O   UNL     1       8.294  -5.941  22.727  0.00  0.00    -0.386 OA
ATOM     25  H   UNL     1       7.511  -6.402  22.370  0.00  0.00    +0.210 HD
ENDBRANCH   8  24
BRANCH   9  26
ATOM     26  O   UNL     1       6.086  -3.705  24.261  0.00  0.00    -0.276 OA
BRANCH  26  27
ATOM     27  P   UNL     1       4.752  -4.236  23.558  0.00  0.00    +0.473 P 
ATOM     28  O   UNL     1       4.434  -5.676  23.739  0.00  0.00    -0.228 OA
BRANCH  27  29
ATOM     29  O   UNL     1       3.714  -3.199  24.193  0.00  0.00    -0.303 OA
ATOM     30  H   UNL     1       4.180  -2.513  24.707  0.00  0.00    +0.222 HD
ENDBRANCH  27  29
BRANCH  27  31
ATOM     31  O   UNL     1       4.958  -3.680  22.089  0.00  0.00    -0.303 OA
ATOM     32  H   UNL     1       4.507  -4.188  21.397  0.00  0.00    +0.222 HD
ENDBRANCH  27  31
ENDBRANCH  26  27
ENDBRANCH   9  26
ENDBRANCH   6   7
ENDBRANCH   5   6
ENDBRANCH   1   5
BRANCH   1  33
ATOM     33  O   UNL     1       5.521  -4.569  28.754  0.00  0.00    -0.229 OA
BRANCH  33  34
ATOM     34  P   UNL     1       4.331  -3.708  27.840  0.00  0.00    +0.222 P 
ATOM     35  O   UNL     1       3.140  -2.847  26.925  0.00  0.00    -0.437 OA
ATOM     36  O   UNL     1       3.291  -4.526  28.628  0.00  0.00    -0.517 OA
BRANCH  34  37
ATOM     37  O   UNL     1       4.637  -2.333  28.814  0.00  0.00    -0.324 OA
BRANCH  37  38
ATOM     38  C   UNL     1       4.162  -1.123  28.222  0.00  0.00    +0.202 C 
BRANCH  38  42
ATOM     39  C   UNL     1       7.328   0.302  27.191  0.00  0.00    +0.439 C 
ATOM     40  C   UNL     1       7.116   1.114  28.485  0.00  0.00    +0.244 C 
ATOM     41  C   UNL     1       5.709   0.755  28.968  0.00  0.00    +0.183 C 
ATOM     42  C   UNL     1       5.211  -0.124  27.846  0.00  0.00    +0.182 C 
ATOM     43  O   UNL     1       6.368  -0.758  27.280  0.00  0.00    -0.309 OA
BRANCH  39  46
ATOM     44  C   UNL     1       7.568   2.969  24.542  0.00  0.00    +0.100 A 
ATOM     45  C   UNL     1       7.755   2.209  25.698  0.00  0.00    +0.324 A 
ATOM     46  N   UNL     1       7.115   1.014  25.879  0.00  0.00    -0.173 N 
ATOM     47  C   UNL     1       6.258   0.568  24.932  0.00  0.00    +0.311 A 
ATOM     48  C   UNL     1       6.036   1.301  23.766  0.00  0.00    +0.071 A 
ATOM     49  C   UNL     1       6.689   2.514  23.568  0.00  0.00    +0.025 A 
BRANCH  44  53
ATOM     50  N   UNL     1       8.175   5.141  25.493  0.00  0.00    -0.325 N 
ATOM     51  H   UNL     1       7.509   5.069  26.248  0.00  0.00    +0.145 HD
ATOM     52  H   UNL     1       8.630   6.040  25.372  0.00  0.00    +0.145 HD
ATOM     53  C   UNL     1       8.287   4.260  24.457  0.00  0.00    +0.247 C 
ATOM     54  O   UNL     1       8.948   4.523  23.463  0.00  0.00    -0.270 OA
ENDBRANCH  44  53
ENDBRANCH  39  46
BRANCH  41  55
ATOM     55  O   UNL     1       4.911   1.934  29.056  0.00  0.00    -0.386 OA
ATOM     56  H   UNL     1       5.517   2.697  28.930  0.00  0.00    +0.210 HD
ENDBRANCH  41  55
BRANCH  40  57
ATOM     57  O   UNL     1       8.101   0.729  29.460  0.00  0.00    -0.380 OA
ATOM     58  H   UNL     1       8.957   1.154  29.247  0.00  0.00    +0.210 HD
ENDBRANCH  40  57
ENDBRANCH  38  42
ENDBRANCH  37  38
ENDBRANCH  34  37
ENDBRANCH  33  34
ENDBRANCH   1  33
TORSDOF 19
ENDMDL
MODEL 9
REMARK VINA RESULT:      -7.0      2.620      5.135
REMARK  Name = 
REMARK  19 active torsions:
REMARK  status: ('A' for Active; 'I' for Inactive)
REMARK    1  A    between atoms: C_2  and  C_4
REMARK    2  A    between atoms: N_8  and  C_10
REMARK    3  A    between atoms: C_13  and  C_15
REMARK    4  A    between atoms: C_15  and  O_16
REMARK    5  A    between atoms: O_16  and  P_17
REMARK    6  A    between atoms: P_17  and  O_20
REMARK    7  A    between atoms: O_20  and  P_21
REMARK    8  A    between atoms: P_21  and  O_22
REMARK    9  A    between atoms: P_21  and  O_24
REMARK   10  A    between atoms: O_24  and  C_25
REMARK   11  A    between atoms: C_25  and  C_26
REMARK   12  A    between atoms: C_29  and  N_41
REMARK   13  A    between atoms: C_31  and  O_33
REMARK   14  A    between atoms: O_33  and  P_34
REMARK   15  A    between atoms: P_34  and  O_35
REMARK   16  A    between atoms: P_34  and  O_36
REMARK   17  A    between atoms: C_38  and  O_40
REMARK   18  A    between atoms: C_51  and  O_53
REMARK   19  A    between atoms: C_54  and  O_56
REMARK                            x       y       z     vdW  Elec       q    Type
REMARK                         _______ _______ _______ _____ _____    ______ ____
ROOT
ATOM      1  P   UNL     1       6.295   0.206  26.362  0.00  0.00    +0.480 P 
ATOM      2  O   UNL     1       5.319   0.037  25.186  0.00  0.00    -0.227 OA
ENDROOT
BRANCH   1   3
ATOM      3  O   UNL     1       5.959  -1.073  27.324  0.00  0.00    -0.302 OA
ATOM      4  H   UNL     1       5.099  -0.892  27.764  0.00  0.00    +0.222 HD
ENDBRANCH   1   3
BRANCH   1   5
ATOM      5  O   UNL     1       7.377  -0.859  25.532  0.00  0.00    -0.284 OA
BRANCH   5   6
ATOM      6  C   UNL     1       8.186  -1.692  26.378  0.00  0.00    +0.206 C 
BRANCH   6   7
ATOM      7  C   UNL     1       8.491  -3.048  25.734  0.00  0.00    +0.178 C 
ATOM      8  C   UNL     1       8.613  -4.193  26.743  0.00  0.00    +0.179 C 
ATOM      9  C   UNL     1       7.256  -4.895  26.734  0.00  0.00    +0.211 C 
ATOM     10  C   UNL     1       6.477  -4.138  25.655  0.00  0.00    +0.254 C 
ATOM     11  O   UNL     1       7.419  -3.411  24.853  0.00  0.00    -0.346 OA
BRANCH  10  12
ATOM     12  N   UNL     1       5.669  -4.960  24.788  0.00  0.00    -0.285 N 
ATOM     13  C   UNL     1       4.343  -5.254  24.927  0.00  0.00    +0.167 A 
ATOM     14  N   UNL     1       3.498  -4.851  25.889  0.00  0.00    -0.216 NA
ATOM     15  C   UNL     1       2.267  -5.368  25.684  0.00  0.00    +0.225 A 
ATOM     16  N   UNL     1       1.843  -6.171  24.676  0.00  0.00    -0.219 NA
ATOM     17  C   UNL     1       2.731  -6.508  23.718  0.00  0.00    +0.147 A 
ATOM     18  N   UNL     1       2.295  -7.300  22.665  0.00  0.00    -0.341 N 
ATOM     19  H   UNL     1       3.048  -7.796  22.195  0.00  0.00    +0.144 HD
ATOM     20  H   UNL     1       1.465  -7.824  22.897  0.00  0.00    +0.144 HD
ATOM     21  C   UNL     1       4.054  -6.063  23.833  0.00  0.00    +0.147 A 
ATOM     22  N   UNL     1       5.172  -6.252  23.051  0.00  0.00    -0.231 NA
ATOM     23  C   UNL     1       6.126  -5.585  23.664  0.00  0.00    +0.203 A 
ENDBRANCH  10  12
BRANCH   8  24
ATOM     24  O   UNL     1       9.627  -5.108  26.303  0.00  0.00    -0.386 OA
ATOM     25  H   UNL     1      10.144  -4.686  25.590  0.00  0.00    +0.210 HD
ENDBRANCH   8  24
BRANCH   9  26
ATOM     26  O   UNL     1       6.577  -4.746  27.975  0.00  0.00    -0.276 OA
BRANCH  26  27
ATOM     27  P   UNL     1       5.700  -5.955  28.545  0.00  0.00    +0.473 P 
ATOM     28  O   UNL     1       5.687  -7.203  27.740  0.00  0.00    -0.228 OA
BRANCH  27  29
ATOM     29  O   UNL     1       6.354  -6.062  30.001  0.00  0.00    -0.303 OA
ATOM     30  H   UNL     1       5.692  -6.348  30.658  0.00  0.00    +0.222 HD
ENDBRANCH  27  29
BRANCH  27  31
ATOM     31  O   UNL     1       4.329  -5.212  28.823  0.00  0.00    -0.303 OA
ATOM     32  H   UNL     1       4.405  -4.419  29.376  0.00  0.00    +0.222 HD
ENDBRANCH  27  31
ENDBRANCH  26  27
ENDBRANCH   9  26
ENDBRANCH   6   7
ENDBRANCH   5   6
ENDBRANCH   1   5
BRANCH   1  33
ATOM     33  O   UNL     1       5.213   1.270  27.192  0.00  0.00    -0.229 OA
BRANCH  33  34
ATOM     34  P   UNL     1       6.122   2.488  28.017  0.00  0.00    +0.222 P 
ATOM     35  O   UNL     1       7.033   3.707  28.843  0.00  0.00    -0.437 OA
ATOM     36  O   UNL     1       7.370   1.788  27.449  0.00  0.00    -0.517 OA
BRANCH  34  37
ATOM     37  O   UNL     1       5.653   3.602  26.803  0.00  0.00    -0.324 OA
BRANCH  37  38
ATOM     38  C   UNL     1       6.770   4.256  26.197  0.00  0.00    +0.202 C 
BRANCH  38  42
ATOM     39  C   UNL     1       8.763   3.658  23.232  0.00  0.00    +0.439 C 
ATOM     40  C   UNL     1       7.372   3.723  22.569  0.00  0.00    +0.244 C 
ATOM     41  C   UNL     1       6.371   3.798  23.725  0.00  0.00    +0.183 C 
ATOM     42  C   UNL     1       7.272   3.644  24.927  0.00  0.00    +0.182 C 
ATOM     43  O   UNL     1       8.550   4.180  24.549  0.00  0.00    -0.309 OA
BRANCH  39  46
ATOM     44  C   UNL     1       9.230  -0.071  22.969  0.00  0.00    +0.100 A 
ATOM     45  C   UNL     1       8.742   1.230  22.837  0.00  0.00    +0.324 A 
ATOM     46  N   UNL     1       9.407   2.300  23.368  0.00  0.00    -0.173 N 
ATOM     47  C   UNL     1      10.549   2.095  24.063  0.00  0.00    +0.311 A 
ATOM     48  C   UNL     1      11.066   0.810  24.226  0.00  0.00    +0.071 A 
ATOM     49  C   UNL     1      10.402  -0.285  23.682  0.00  0.00    +0.025 A 
BRANCH  44  53
ATOM     50  N   UNL     1       7.108  -1.270  22.740  0.00  0.00    -0.325 N 
ATOM     51  H   UNL     1       6.673  -0.777  23.505  0.00  0.00    +0.145 HD
ATOM     52  H   UNL     1       6.602  -2.066  22.366  0.00  0.00    +0.145 HD
ATOM     53  C   UNL     1       8.420  -1.161  22.380  0.00  0.00    +0.247 C 
ATOM     54  O   UNL     1       8.937  -1.949  21.602  0.00  0.00    -0.270 OA
ENDBRANCH  44  53
ENDBRANCH  39  46
BRANCH  41  55
ATOM     55  O   UNL     1       5.463   2.701  23.652  0.00  0.00    -0.386 OA
ATOM     56  H   UNL     1       4.567   3.082  23.525  0.00  0.00    +0.210 HD
ENDBRANCH  41  55
BRANCH  40  57
ATOM     57  O   UNL     1       7.287   4.899  21.747  0.00  0.00    -0.380 OA
ATOM     58  H   UNL     1       7.707   5.653  22.210  0.00  0.00    +0.210 HD
ENDBRANCH  40  57
ENDBRANCH  38  42
ENDBRANCH  37  38
ENDBRANCH  34  37
ENDBRANCH  33  34
ENDBRANCH   1  33
TORSDOF 19
ENDMDL
