MODEL 1
REMARK VINA RESULT:      -6.7      0.000      0.000
REMARK  Name = 
REMARK  7 active torsions:
REMARK  status: ('A' for Active; 'I' for Inactive)
REMARK    1  A    between atoms: C_2  and  C_3
REMARK    2  A    between atoms: C_3  and  O_4
REMARK    3  A    between atoms: C_6  and  C_8
REMARK    4  A    between atoms: C_12  and  C_13
REMARK    5  A    between atoms: C_18  and  O_20
REMARK    6  A    between atoms: C_21  and  O_23
REMARK    7  A    between atoms: C_24  and  O_26
REMARK                            x       y       z     vdW  Elec       q    Type
REMARK                         _______ _______ _______ _____ _____    ______ ____
ROOT
ATOM      1  C   UNL     1       6.538  -4.231  25.331  0.00  0.00    +0.175 C 
ATOM      2  C   UNL     1       7.236  -4.761  26.596  0.00  0.00    +0.176 C 
ATOM      3  C   UNL     1       8.693  -4.293  26.708  0.00  0.00    +0.177 C 
ATOM      4  C   UNL     1       9.452  -4.553  25.400  0.00  0.00    +0.181 C 
ATOM      5  C   UNL     1       8.698  -4.042  24.169  0.00  0.00    +0.205 C 
ATOM      6  O   UNL     1       7.310  -4.394  24.131  0.00  0.00    -0.359 OA
ENDROOT
BRANCH   5   7
ATOM      7  C   UNL     1       8.931  -2.596  23.791  0.00  0.00    +0.111 A 
ATOM      8  S   UNL     1       8.345  -2.103  22.247  0.00  0.00    -0.069 S 
ATOM      9  C   UNL     1       9.174  -0.616  22.393  0.00  0.00    +0.039 A 
ATOM     10  C   UNL     1       9.726  -0.513  23.671  0.00  0.00    +0.079 A 
ATOM     11  C   UNL     1      10.320   0.724  24.033  0.00  0.00    +0.032 A 
ATOM     12  C   UNL     1      10.359   1.787  23.103  0.00  0.00    -0.048 A 
ATOM     13  C   UNL     1       9.900   1.589  21.802  0.00  0.00    +0.004 A 
ATOM     14  C   UNL     1      10.825   3.166  23.486  0.00  0.00    +0.044 C 
ATOM     15  C   UNL     1       9.287   0.397  21.434  0.00  0.00    +0.017 A 
ATOM     16  N   UNL     1       9.635  -1.680  24.440  0.00  0.00    -0.241 NA
ENDBRANCH   5   7
BRANCH   2  17
ATOM     17  O   UNL     1       7.177  -6.199  26.586  0.00  0.00    -0.386 OA
ATOM     18  H   UNL     1       7.563  -6.510  27.431  0.00  0.00    +0.210 HD
ENDBRANCH   2  17
BRANCH   3  19
ATOM     19  O   UNL     1       8.721  -2.927  27.109  0.00  0.00    -0.386 OA
ATOM     20  H   UNL     1       7.818  -2.558  27.073  0.00  0.00    +0.210 HD
ENDBRANCH   3  19
BRANCH   4  21
ATOM     21  O   UNL     1       9.627  -5.987  25.275  0.00  0.00    -0.386 OA
ATOM     22  H   UNL     1      10.241  -6.277  25.977  0.00  0.00    +0.210 HD
ENDBRANCH   4  21
BRANCH   1  23
ATOM     23  C   UNL     1       5.995  -2.801  25.471  0.00  0.00    +0.190 C 
BRANCH  23  24
ATOM     24  O   UNL     1       5.757  -2.484  26.844  0.00  0.00    -0.392 OA
ATOM     25  H   UNL     1       6.531  -2.009  27.185  0.00  0.00    +0.210 HD
ENDBRANCH  23  24
ENDBRANCH   1  23
TORSDOF 6
ENDMDL
MODEL 2
REMARK VINA RESULT:      -6.6      3.659      6.568
REMARK  Name = 
REMARK  7 active torsions:
REMARK  status: ('A' for Active; 'I' for Inactive)
REMARK    1  A    between atoms: C_2  and  C_3
REMARK    2  A    between atoms: C_3  and  O_4
REMARK    3  A    between atoms: C_6  and  C_8
REMARK    4  A    between atoms: C_12  and  C_13
REMARK    5  A    between atoms: C_18  and  O_20
REMARK    6  A    between atoms: C_21  and  O_23
REMARK    7  A    between atoms: C_24  and  O_26
REMARK                            x       y       z     vdW  Elec       q    Type
REMARK                         _______ _______ _______ _____ _____    ______ ____
ROOT
ATOM      1  C   UNL     1       8.775   2.194  24.563  0.00  0.00    +0.175 C 
ATOM      2  C   UNL     1       8.347   3.102  23.396  0.00  0.00    +0.176 C 
ATOM      3  C   UNL     1       8.181   2.334  22.078  0.00  0.00    +0.177 C 
ATOM      4  C   UNL     1       9.413   1.465  21.794  0.00  0.00    +0.181 C 
ATOM      5  C   UNL     1       9.822   0.610  22.998  0.00  0.00    +0.205 C 
ATOM      6  O   UNL     1       9.866   1.316  24.244  0.00  0.00    -0.359 OA
ENDROOT
BRANCH   5   7
ATOM      7  C   UNL     1       9.142  -0.735  23.127  0.00  0.00    +0.111 A 
ATOM      8  S   UNL     1       9.593  -1.694  24.487  0.00  0.00    -0.069 S 
ATOM      9  C   UNL     1       8.750  -3.032  23.839  0.00  0.00    +0.039 A 
ATOM     10  C   UNL     1       8.045  -2.632  22.702  0.00  0.00    +0.079 A 
ATOM     11  C   UNL     1       7.157  -3.572  22.115  0.00  0.00    +0.032 A 
ATOM     12  C   UNL     1       7.031  -4.865  22.670  0.00  0.00    -0.048 A 
ATOM     13  C   UNL     1       7.846  -5.248  23.734  0.00  0.00    +0.004 A 
ATOM     14  C   UNL     1       5.989  -5.840  22.192  0.00  0.00    +0.044 C 
ATOM     15  C   UNL     1       8.701  -4.336  24.343  0.00  0.00    +0.017 A 
ATOM     16  N   UNL     1       8.329  -1.331  22.267  0.00  0.00    -0.241 NA
ENDBRANCH   5   7
BRANCH   2  17
ATOM     17  O   UNL     1       9.325   4.146  23.242  0.00  0.00    -0.386 OA
ATOM     18  H   UNL     1       9.289   4.698  24.051  0.00  0.00    +0.210 HD
ENDBRANCH   2  17
BRANCH   3  19
ATOM     19  O   UNL     1       6.968   1.590  22.114  0.00  0.00    -0.386 OA
ATOM     20  H   UNL     1       6.542   1.618  21.236  0.00  0.00    +0.210 HD
ENDBRANCH   3  19
BRANCH   4  21
ATOM     21  O   UNL     1      10.509   2.356  21.465  0.00  0.00    -0.386 OA
ATOM     22  H   UNL     1      10.131   3.233  21.260  0.00  0.00    +0.210 HD
ENDBRANCH   4  21
BRANCH   1  23
ATOM     23  C   UNL     1       7.612   1.441  25.227  0.00  0.00    +0.190 C 
BRANCH  23  24
ATOM     24  O   UNL     1       7.971   1.024  26.546  0.00  0.00    -0.392 OA
ATOM     25  H   UNL     1       8.923   1.167  26.662  0.00  0.00    +0.210 HD
ENDBRANCH  23  24
ENDBRANCH   1  23
TORSDOF 6
ENDMDL
MODEL 3
REMARK VINA RESULT:      -6.2      3.523      6.450
REMARK  Name = 
REMARK  7 active torsions:
REMARK  status: ('A' for Active; 'I' for Inactive)
REMARK    1  A    between atoms: C_2  and  C_3
REMARK    2  A    between atoms: C_3  and  O_4
REMARK    3  A    between atoms: C_6  and  C_8
REMARK    4  A    between atoms: C_12  and  C_13
REMARK    5  A    between atoms: C_18  and  O_20
REMARK    6  A    between atoms: C_21  and  O_23
REMARK    7  A    between atoms: C_24  and  O_26
REMARK                            x       y       z     vdW  Elec       q    Type
REMARK                         _______ _______ _______ _____ _____    ______ ____
ROOT
ATOM      1  C   UNL     1       8.876   2.544  24.595  0.00  0.00    +0.175 C 
ATOM      2  C   UNL     1       8.294   3.126  23.294  0.00  0.00    +0.176 C 
ATOM      3  C   UNL     1       8.225   2.092  22.163  0.00  0.00    +0.177 C 
ATOM      4  C   UNL     1       9.569   1.372  21.998  0.00  0.00    +0.181 C 
ATOM      5  C   UNL     1      10.124   0.847  23.326  0.00  0.00    +0.205 C 
ATOM      6  O   UNL     1      10.082   1.788  24.404  0.00  0.00    -0.359 OA
ENDROOT
BRANCH   5   7
ATOM      7  C   UNL     1       9.659  -0.529  23.750  0.00  0.00    +0.111 A 
ATOM      8  S   UNL     1       9.234  -1.618  22.483  0.00  0.00    -0.069 S 
ATOM      9  C   UNL     1       8.579  -2.709  23.624  0.00  0.00    +0.039 A 
ATOM     10  C   UNL     1       8.857  -2.255  24.915  0.00  0.00    +0.079 A 
ATOM     11  C   UNL     1       8.528  -3.113  25.997  0.00  0.00    +0.032 A 
ATOM     12  C   UNL     1       7.921  -4.364  25.747  0.00  0.00    -0.048 A 
ATOM     13  C   UNL     1       7.559  -4.714  24.448  0.00  0.00    +0.004 A 
ATOM     14  C   UNL     1       7.704  -5.378  26.838  0.00  0.00    +0.044 C 
ATOM     15  C   UNL     1       7.897  -3.904  23.369  0.00  0.00    +0.017 A 
ATOM     16  N   UNL     1       9.418  -0.974  24.974  0.00  0.00    -0.241 NA
ENDBRANCH   5   7
BRANCH   2  17
ATOM     17  O   UNL     1       9.100   4.248  22.892  0.00  0.00    -0.386 OA
ATOM     18  H   UNL     1       9.226   4.181  21.923  0.00  0.00    +0.210 HD
ENDBRANCH   2  17
BRANCH   3  19
ATOM     19  O   UNL     1       7.139   1.202  22.403  0.00  0.00    -0.386 OA
ATOM     20  H   UNL     1       7.481   0.360  22.760  0.00  0.00    +0.210 HD
ENDBRANCH   3  19
BRANCH   4  21
ATOM     21  O   UNL     1      10.510   2.328  21.448  0.00  0.00    -0.386 OA
ATOM     22  H   UNL     1      10.739   2.037  20.544  0.00  0.00    +0.210 HD
ENDBRANCH   4  21
BRANCH   1  23
ATOM     23  C   UNL     1       7.854   1.780  25.450  0.00  0.00    +0.190 C 
BRANCH  23  24
ATOM     24  O   UNL     1       7.583   2.486  26.663  0.00  0.00    -0.392 OA
ATOM     25  H   UNL     1       6.668   2.803  26.633  0.00  0.00    +0.210 HD
ENDBRANCH  23  24
ENDBRANCH   1  23
TORSDOF 6
ENDMDL
MODEL 4
REMARK VINA RESULT:      -6.2      1.652      2.244
REMARK  Name = 
REMARK  7 active torsions:
REMARK  status: ('A' for Active; 'I' for Inactive)
REMARK    1  A    between atoms: C_2  and  C_3
REMARK    2  A    between atoms: C_3  and  O_4
REMARK    3  A    between atoms: C_6  and  C_8
REMARK    4  A    between atoms: C_12  and  C_13
REMARK    5  A    between atoms: C_18  and  O_20
REMARK    6  A    between atoms: C_21  and  O_23
REMARK    7  A    between atoms: C_24  and  O_26
REMARK                            x       y       z     vdW  Elec       q    Type
REMARK                         _______ _______ _______ _____ _____    ______ ____
ROOT
ATOM      1  C   UNL     1       6.045  -4.898  24.463  0.00  0.00    +0.175 C 
ATOM      2  C   UNL     1       5.473  -5.154  25.869  0.00  0.00    +0.176 C 
ATOM      3  C   UNL     1       6.166  -4.318  26.952  0.00  0.00    +0.177 C 
ATOM      4  C   UNL     1       7.691  -4.446  26.849  0.00  0.00    +0.181 C 
ATOM      5  C   UNL     1       8.206  -4.220  25.423  0.00  0.00    +0.205 C 
ATOM      6  O   UNL     1       7.480  -4.923  24.408  0.00  0.00    -0.359 OA
ENDROOT
BRANCH   5   7
ATOM      7  C   UNL     1       8.494  -2.787  25.032  0.00  0.00    +0.111 A 
ATOM      8  S   UNL     1       9.738  -2.547  23.865  0.00  0.00    -0.069 S 
ATOM      9  C   UNL     1       9.702  -0.863  24.154  0.00  0.00    +0.039 A 
ATOM     10  C   UNL     1       8.641  -0.560  25.010  0.00  0.00    +0.079 A 
ATOM     11  C   UNL     1       8.354   0.811  25.241  0.00  0.00    +0.032 A 
ATOM     12  C   UNL     1       9.145   1.810  24.631  0.00  0.00    -0.048 A 
ATOM     13  C   UNL     1      10.264   1.450  23.882  0.00  0.00    +0.004 A 
ATOM     14  C   UNL     1       8.786   3.269  24.707  0.00  0.00    +0.044 C 
ATOM     15  C   UNL     1      10.548   0.115  23.618  0.00  0.00    +0.017 A 
ATOM     16  N   UNL     1       7.997  -1.677  25.558  0.00  0.00    -0.241 NA
ENDBRANCH   5   7
BRANCH   2  17
ATOM     17  O   UNL     1       5.599  -6.556  26.168  0.00  0.00    -0.386 OA
ATOM     18  H   UNL     1       6.294  -6.644  26.854  0.00  0.00    +0.210 HD
ENDBRANCH   2  17
BRANCH   3  19
ATOM     19  O   UNL     1       5.711  -2.971  26.872  0.00  0.00    -0.386 OA
ATOM     20  H   UNL     1       5.916  -2.609  25.988  0.00  0.00    +0.210 HD
ENDBRANCH   3  19
BRANCH   4  21
ATOM     21  O   UNL     1       8.045  -5.789  27.262  0.00  0.00    -0.386 OA
ATOM     22  H   UNL     1       8.668  -6.152  26.603  0.00  0.00    +0.210 HD
ENDBRANCH   4  21
BRANCH   1  23
ATOM     23  C   UNL     1       5.469  -3.653  23.772  0.00  0.00    +0.190 C 
BRANCH  23  24
ATOM     24  O   UNL     1       4.881  -4.000  22.517  0.00  0.00    -0.392 OA
ATOM     25  H   UNL     1       5.300  -4.815  22.200  0.00  0.00    +0.210 HD
ENDBRANCH  23  24
ENDBRANCH   1  23
TORSDOF 6
ENDMDL
MODEL 5
REMARK VINA RESULT:      -6.1      2.408      3.658
REMARK  Name = 
REMARK  7 active torsions:
REMARK  status: ('A' for Active; 'I' for Inactive)
REMARK    1  A    between atoms: C_2  and  C_3
REMARK    2  A    between atoms: C_3  and  O_4
REMARK    3  A    between atoms: C_6  and  C_8
REMARK    4  A    between atoms: C_12  and  C_13
REMARK    5  A    between atoms: C_18  and  O_20
REMARK    6  A    between atoms: C_21  and  O_23
REMARK    7  A    between atoms: C_24  and  O_26
REMARK                            x       y       z     vdW  Elec       q    Type
REMARK                         _______ _______ _______ _____ _____    ______ ____
ROOT
ATOM      1  C   UNL     1       6.570  -6.099  22.761  0.00  0.00    +0.175 C 
ATOM      2  C   UNL     1       5.046  -6.119  22.977  0.00  0.00    +0.176 C 
ATOM      3  C   UNL     1       4.521  -4.825  23.613  0.00  0.00    +0.177 C 
ATOM      4  C   UNL     1       5.339  -4.457  24.858  0.00  0.00    +0.181 C 
ATOM      5  C   UNL     1       6.850  -4.490  24.602  0.00  0.00    +0.205 C 
ATOM      6  O   UNL     1       7.312  -5.655  23.908  0.00  0.00    -0.359 OA
ENDROOT
BRANCH   5   7
ATOM      7  C   UNL     1       7.465  -3.219  24.058  0.00  0.00    +0.111 A 
ATOM      8  S   UNL     1       9.183  -3.104  24.142  0.00  0.00    -0.069 S 
ATOM      9  C   UNL     1       9.107  -1.456  23.695  0.00  0.00    +0.039 A 
ATOM     10  C   UNL     1       7.793  -1.125  23.359  0.00  0.00    +0.079 A 
ATOM     11  C   UNL     1       7.560   0.163  22.810  0.00  0.00    +0.032 A 
ATOM     12  C   UNL     1       8.635   1.065  22.644  0.00  0.00    -0.048 A 
ATOM     13  C   UNL     1       9.905   0.725  23.107  0.00  0.00    +0.004 A 
ATOM     14  C   UNL     1       8.475   2.373  21.918  0.00  0.00    +0.044 C 
ATOM     15  C   UNL     1      10.164  -0.541  23.621  0.00  0.00    +0.017 A 
ATOM     16  N   UNL     1       6.851  -2.125  23.633  0.00  0.00    -0.241 NA
ENDBRANCH   5   7
BRANCH   2  17
ATOM     17  O   UNL     1       4.714  -7.249  23.804  0.00  0.00    -0.386 OA
ATOM     18  H   UNL     1       5.494  -7.434  24.368  0.00  0.00    +0.210 HD
ENDBRANCH   2  17
BRANCH   3  19
ATOM     19  O   UNL     1       4.499  -3.792  22.633  0.00  0.00    -0.386 OA
ATOM     20  H   UNL     1       4.544  -4.187  21.742  0.00  0.00    +0.210 HD
ENDBRANCH   3  19
BRANCH   4  21
ATOM     21  O   UNL     1       5.023  -5.426  25.889  0.00  0.00    -0.386 OA
ATOM     22  H   UNL     1       5.858  -5.848  26.170  0.00  0.00    +0.210 HD
ENDBRANCH   4  21
BRANCH   1  23
ATOM     23  C   UNL     1       7.010  -5.372  21.481  0.00  0.00    +0.190 C 
BRANCH  23  24
ATOM     24  O   UNL     1       5.963  -5.388  20.508  0.00  0.00    -0.392 OA
ATOM     25  H   UNL     1       5.263  -5.979  20.825  0.00  0.00    +0.210 HD
ENDBRANCH  23  24
ENDBRANCH   1  23
TORSDOF 6
ENDMDL
MODEL 6
REMARK VINA RESULT:      -6.0      2.368      3.832
REMARK  Name = 
REMARK  7 active torsions:
REMARK  status: ('A' for Active; 'I' for Inactive)
REMARK    1  A    between atoms: C_2  and  C_3
REMARK    2  A    between atoms: C_3  and  O_4
REMARK    3  A    between atoms: C_6  and  C_8
REMARK    4  A    between atoms: C_12  and  C_13
REMARK    5  A    between atoms: C_18  and  O_20
REMARK    6  A    between atoms: C_21  and  O_23
REMARK    7  A    between atoms: C_24  and  O_26
REMARK                            x       y       z     vdW  Elec       q    Type
REMARK                         _______ _______ _______ _____ _____    ______ ____
ROOT
ATOM      1  C   UNL     1       8.671  -2.720  22.880  0.00  0.00    +0.175 C 
ATOM      2  C   UNL     1       7.154  -2.983  22.911  0.00  0.00    +0.176 C 
ATOM      3  C   UNL     1       6.391  -1.950  23.750  0.00  0.00    +0.177 C 
ATOM      4  C   UNL     1       7.040  -1.782  25.130  0.00  0.00    +0.181 C 
ATOM      5  C   UNL     1       8.554  -1.562  25.048  0.00  0.00    +0.205 C 
ATOM      6  O   UNL     1       9.241  -2.465  24.174  0.00  0.00    -0.359 OA
ENDROOT
BRANCH   5   7
ATOM      7  C   UNL     1       9.016  -0.133  24.870  0.00  0.00    +0.111 A 
ATOM      8  S   UNL     1       7.952   1.094  25.450  0.00  0.00    -0.069 S 
ATOM      9  C   UNL     1       8.900   2.294  24.688  0.00  0.00    +0.039 A 
ATOM     10  C   UNL     1      10.055   1.712  24.163  0.00  0.00    +0.079 A 
ATOM     11  C   UNL     1      11.043   2.580  23.628  0.00  0.00    +0.032 A 
ATOM     12  C   UNL     1      10.826   3.975  23.619  0.00  0.00    -0.048 A 
ATOM     13  C   UNL     1       9.605   4.492  24.047  0.00  0.00    +0.004 A 
ATOM     14  C   UNL     1      11.903   4.948  23.218  0.00  0.00    +0.044 C 
ATOM     15  C   UNL     1       8.635   3.666  24.603  0.00  0.00    +0.017 A 
ATOM     16  N   UNL     1      10.079   0.312  24.216  0.00  0.00    -0.241 NA
ENDBRANCH   5   7
BRANCH   2  17
ATOM     17  O   UNL     1       6.927  -4.307  23.427  0.00  0.00    -0.386 OA
ATOM     18  H   UNL     1       6.302  -4.751  22.818  0.00  0.00    +0.210 HD
ENDBRANCH   2  17
BRANCH   3  19
ATOM     19  O   UNL     1       6.296  -0.729  23.024  0.00  0.00    -0.386 OA
ATOM     20  H   UNL     1       6.146   0.009  23.645  0.00  0.00    +0.210 HD
ENDBRANCH   3  19
BRANCH   4  21
ATOM     21  O   UNL     1       6.788  -2.996  25.881  0.00  0.00    -0.386 OA
ATOM     22  H   UNL     1       5.874  -3.283  25.690  0.00  0.00    +0.210 HD
ENDBRANCH   4  21
BRANCH   1  23
ATOM     23  C   UNL     1       9.102  -1.666  21.849  0.00  0.00    +0.190 C 
BRANCH  23  24
ATOM     24  O   UNL     1      10.527  -1.567  21.796  0.00  0.00    -0.392 OA
ATOM     25  H   UNL     1      10.762  -0.950  21.085  0.00  0.00    +0.210 HD
ENDBRANCH  23  24
ENDBRANCH   1  23
TORSDOF 6
ENDMDL
MODEL 7
REMARK VINA RESULT:      -5.9      3.260      6.341
REMARK  Name = 
REMARK  7 active torsions:
REMARK  status: ('A' for Active; 'I' for Inactive)
REMARK    1  A    between atoms: C_2  and  C_3
REMARK    2  A    between atoms: C_3  and  O_4
REMARK    3  A    between atoms: C_6  and  C_8
REMARK    4  A    between atoms: C_12  and  C_13
REMARK    5  A    between atoms: C_18  and  O_20
REMARK    6  A    between atoms: C_21  and  O_23
REMARK    7  A    between atoms: C_24  and  O_26
REMARK                            x       y       z     vdW  Elec       q    Type
REMARK                         _______ _______ _______ _____ _____    ______ ____
ROOT
ATOM      1  C   UNL     1       9.955   0.337  24.889  0.00  0.00    +0.175 C 
ATOM      2  C   UNL     1       9.426   1.707  24.429  0.00  0.00    +0.176 C 
ATOM      3  C   UNL     1       8.299   1.591  23.395  0.00  0.00    +0.177 C 
ATOM      4  C   UNL     1       8.698   0.644  22.256  0.00  0.00    +0.181 C 
ATOM      5  C   UNL     1       9.254  -0.690  22.765  0.00  0.00    +0.205 C 
ATOM      6  O   UNL     1      10.228  -0.571  23.809  0.00  0.00    -0.359 OA
ENDROOT
BRANCH   5   7
ATOM      7  C   UNL     1       8.239  -1.774  23.052  0.00  0.00    +0.111 A 
ATOM      8  S   UNL     1       8.845  -3.222  23.763  0.00  0.00    -0.069 S 
ATOM      9  C   UNL     1       7.341  -3.992  23.510  0.00  0.00    +0.039 A 
ATOM     10  C   UNL     1       6.414  -3.060  23.037  0.00  0.00    +0.079 A 
ATOM     11  C   UNL     1       5.063  -3.479  22.917  0.00  0.00    +0.032 A 
ATOM     12  C   UNL     1       4.704  -4.805  23.247  0.00  0.00    -0.048 A 
ATOM     13  C   UNL     1       5.689  -5.725  23.600  0.00  0.00    +0.004 A 
ATOM     14  C   UNL     1       3.268  -5.253  23.297  0.00  0.00    +0.044 C 
ATOM     15  C   UNL     1       7.014  -5.331  23.753  0.00  0.00    +0.017 A 
ATOM     16  N   UNL     1       6.957  -1.809  22.718  0.00  0.00    -0.241 NA
ENDBRANCH   5   7
BRANCH   2  17
ATOM     17  O   UNL     1      10.522   2.464  23.885  0.00  0.00    -0.386 OA
ATOM     18  H   UNL     1      11.336   1.938  24.029  0.00  0.00    +0.210 HD
ENDBRANCH   2  17
BRANCH   3  19
ATOM     19  O   UNL     1       7.096   1.202  24.050  0.00  0.00    -0.386 OA
ATOM     20  H   UNL     1       6.330   1.431  23.490  0.00  0.00    +0.210 HD
ENDBRANCH   3  19
BRANCH   4  21
ATOM     21  O   UNL     1       9.726   1.308  21.478  0.00  0.00    -0.386 OA
ATOM     22  H   UNL     1       9.802   2.226  21.803  0.00  0.00    +0.210 HD
ENDBRANCH   4  21
BRANCH   1  23
ATOM     23  C   UNL     1       9.108  -0.323  25.988  0.00  0.00    +0.190 C 
BRANCH  23  24
ATOM     24  O   UNL     1       8.350   0.659  26.697  0.00  0.00    -0.392 OA
ATOM     25  H   UNL     1       8.698   1.535  26.469  0.00  0.00    +0.210 HD
ENDBRANCH  23  24
ENDBRANCH   1  23
TORSDOF 6
ENDMDL
MODEL 8
REMARK VINA RESULT:      -5.9      2.655      6.223
REMARK  Name = 
REMARK  7 active torsions:
REMARK  status: ('A' for Active; 'I' for Inactive)
REMARK    1  A    between atoms: C_2  and  C_3
REMARK    2  A    between atoms: C_3  and  O_4
REMARK    3  A    between atoms: C_6  and  C_8
REMARK    4  A    between atoms: C_12  and  C_13
REMARK    5  A    between atoms: C_18  and  O_20
REMARK    6  A    between atoms: C_21  and  O_23
REMARK    7  A    between atoms: C_24  and  O_26
REMARK                            x       y       z     vdW  Elec       q    Type
REMARK                         _______ _______ _______ _____ _____    ______ ____
ROOT
ATOM      1  C   UNL     1       9.421   0.169  24.422  0.00  0.00    +0.175 C 
ATOM      2  C   UNL     1       8.736   0.794  23.194  0.00  0.00    +0.176 C 
ATOM      3  C   UNL     1       7.965  -0.236  22.358  0.00  0.00    +0.177 C 
ATOM      4  C   UNL     1       8.841  -1.457  22.051  0.00  0.00    +0.181 C 
ATOM      5  C   UNL     1       9.531  -2.017  23.299  0.00  0.00    +0.205 C 
ATOM      6  O   UNL     1      10.155  -1.031  24.130  0.00  0.00    -0.359 OA
ENDROOT
BRANCH   5   7
ATOM      7  C   UNL     1       8.744  -3.027  24.105  0.00  0.00    +0.111 A 
ATOM      8  S   UNL     1       7.633  -4.009  23.226  0.00  0.00    -0.069 S 
ATOM      9  C   UNL     1       6.972  -4.594  24.689  0.00  0.00    +0.039 A 
ATOM     10  C   UNL     1       7.732  -4.126  25.763  0.00  0.00    +0.079 A 
ATOM     11  C   UNL     1       7.430  -4.636  27.053  0.00  0.00    +0.032 A 
ATOM     12  C   UNL     1       6.376  -5.562  27.217  0.00  0.00    -0.048 A 
ATOM     13  C   UNL     1       5.574  -5.903  26.129  0.00  0.00    +0.004 A 
ATOM     14  C   UNL     1       6.120  -6.257  28.527  0.00  0.00    +0.044 C 
ATOM     15  C   UNL     1       5.869  -5.440  24.851  0.00  0.00    +0.017 A 
ATOM     16  N   UNL     1       8.704  -3.178  25.420  0.00  0.00    -0.241 NA
ENDBRANCH   5   7
BRANCH   2  17
ATOM     17  O   UNL     1       9.738   1.437  22.386  0.00  0.00    -0.386 OA
ATOM     18  H   UNL     1       9.643   1.088  21.475  0.00  0.00    +0.210 HD
ENDBRANCH   2  17
BRANCH   3  19
ATOM     19  O   UNL     1       6.752  -0.572  23.025  0.00  0.00    -0.386 OA
ATOM     20  H   UNL     1       6.270   0.244  23.258  0.00  0.00    +0.210 HD
ENDBRANCH   3  19
BRANCH   4  21
ATOM     21  O   UNL     1       9.859  -1.036  21.108  0.00  0.00    -0.386 OA
ATOM     22  H   UNL     1      10.251  -0.206  21.441  0.00  0.00    +0.210 HD
ENDBRANCH   4  21
BRANCH   1  23
ATOM     23  C   UNL     1       8.491  -0.012  25.631  0.00  0.00    +0.190 C 
BRANCH  23  24
ATOM     24  O   UNL     1       9.232  -0.433  26.779  0.00  0.00    -0.392 OA
ATOM     25  H   UNL     1       8.769  -1.183  27.182  0.00  0.00    +0.210 HD
ENDBRANCH  23  24
ENDBRANCH   1  23
TORSDOF 6
ENDMDL
MODEL 9
REMARK VINA RESULT:      -5.9      3.171      6.574
REMARK  Name = 
REMARK  7 active torsions:
REMARK  status: ('A' for Active; 'I' for Inactive)
REMARK    1  A    between atoms: C_2  and  C_3
REMARK    2  A    between atoms: C_3  and  O_4
REMARK    3  A    between atoms: C_6  and  C_8
REMARK    4  A    between atoms: C_12  and  C_13
REMARK    5  A    between atoms: C_18  and  O_20
REMARK    6  A    between atoms: C_21  and  O_23
REMARK    7  A    between atoms: C_24  and  O_26
REMARK                            x       y       z     vdW  Elec       q    Type
REMARK                         _______ _______ _______ _____ _____    ______ ____
ROOT
ATOM      1  C   UNL     1       9.788   0.652  22.215  0.00  0.00    +0.175 C 
ATOM      2  C   UNL     1      10.218   1.793  23.154  0.00  0.00    +0.176 C 
ATOM      3  C   UNL     1       9.464   1.776  24.490  0.00  0.00    +0.177 C 
ATOM      4  C   UNL     1       7.950   1.671  24.262  0.00  0.00    +0.181 C 
ATOM      5  C   UNL     1       7.578   0.547  23.290  0.00  0.00    +0.205 C 
ATOM      6  O   UNL     1       8.364   0.507  22.093  0.00  0.00    -0.359 OA
ENDROOT
BRANCH   5   7
ATOM      7  C   UNL     1       7.387  -0.827  23.894  0.00  0.00    +0.111 A 
ATOM      8  S   UNL     1       6.754  -2.042  22.849  0.00  0.00    -0.069 S 
ATOM      9  C   UNL     1       6.544  -3.094  24.179  0.00  0.00    +0.039 A 
ATOM     10  C   UNL     1       7.107  -2.520  25.321  0.00  0.00    +0.079 A 
ATOM     11  C   UNL     1       7.168  -3.317  26.494  0.00  0.00    +0.032 A 
ATOM     12  C   UNL     1       6.649  -4.631  26.483  0.00  0.00    -0.048 A 
ATOM     13  C   UNL     1       5.992  -5.109  25.351  0.00  0.00    +0.004 A 
ATOM     14  C   UNL     1       6.836  -5.573  27.642  0.00  0.00    +0.044 C 
ATOM     15  C   UNL     1       5.945  -4.360  24.181  0.00  0.00    +0.017 A 
ATOM     16  N   UNL     1       7.528  -1.195  25.159  0.00  0.00    -0.241 NA
ENDBRANCH   5   7
BRANCH   2  17
ATOM     17  O   UNL     1      10.007   3.047  22.481  0.00  0.00    -0.386 OA
ATOM     18  H   UNL     1       9.058   3.090  22.241  0.00  0.00    +0.210 HD
ENDBRANCH   2  17
BRANCH   3  19
ATOM     19  O   UNL     1       9.979   0.733  25.310  0.00  0.00    -0.386 OA
ATOM     20  H   UNL     1      10.023  -0.096  24.795  0.00  0.00    +0.210 HD
ENDBRANCH   3  19
BRANCH   4  21
ATOM     21  O   UNL     1       7.506   2.933  23.704  0.00  0.00    -0.386 OA
ATOM     22  H   UNL     1       7.852   2.997  22.793  0.00  0.00    +0.210 HD
ENDBRANCH   4  21
BRANCH   1  23
ATOM     23  C   UNL     1      10.475  -0.690  22.507  0.00  0.00    +0.190 C 
BRANCH  23  24
ATOM     24  O   UNL     1      10.151  -1.651  21.500  0.00  0.00    -0.392 OA
ATOM     25  H   UNL     1       9.187  -1.676  21.402  0.00  0.00    +0.210 HD
ENDBRANCH  23  24
ENDBRANCH   1  23
TORSDOF 6
ENDMDL
