MODEL 1
REMARK VINA RESULT:      -6.3      0.000      0.000
REMARK  Name = 
REMARK  25 active torsions:
REMARK  status: ('A' for Active; 'I' for Inactive)
REMARK    1  A    between atoms: N_10  and  C_11
REMARK    2  A    between atoms: C_14  and  C_16
REMARK    3  A    between atoms: C_16  and  O_17
REMARK    4  A    between atoms: O_17  and  P_18
REMARK    5  A    between atoms: P_18  and  O_19
REMARK    6  A    between atoms: P_18  and  O_21
REMARK    7  A    between atoms: O_21  and  P_22
REMARK    8  A    between atoms: P_22  and  O_23
REMARK    9  A    between atoms: P_22  and  O_25
REMARK   10  A    between atoms: O_25  and  P_26
REMARK   11  A    between atoms: P_26  and  O_27
REMARK   12  A    between atoms: P_26  and  O_29
REMARK   13  A    between atoms: O_29  and  P_30
REMARK   14  A    between atoms: P_30  and  O_31
REMARK   15  A    between atoms: P_30  and  O_33
REMARK   16  A    between atoms: O_33  and  P_34
REMARK   17  A    between atoms: P_34  and  O_35
REMARK   18  A    between atoms: P_34  and  O_37
REMARK   19  A    between atoms: O_37  and  C_38
REMARK   20  A    between atoms: C_38  and  C_39
REMARK   21  A    between atoms: C_42  and  N_50
REMARK   22  A    between atoms: C_44  and  O_46
REMARK   23  A    between atoms: C_47  and  O_49
REMARK   24  A    between atoms: C_60  and  O_62
REMARK   25  A    between atoms: C_63  and  O_65
REMARK                            x       y       z     vdW  Elec       q    Type
REMARK                         _______ _______ _______ _____ _____    ______ ____
ROOT
ATOM      1  P   UNL     1       4.837   3.572  25.779  0.00  0.00    +0.492 P 
ATOM      2  O   UNL     1       4.195   4.759  26.501  0.00  0.00    -0.226 OA
ENDROOT
BRANCH   1   3
ATOM      3  O   UNL     1       6.447   3.870  25.699  0.00  0.00    -0.302 OA
ATOM      4  H   UNL     1       6.698   4.515  26.395  0.00  0.00    +0.222 HD
ENDBRANCH   1   3
BRANCH   1   5
ATOM      5  O   UNL     1       5.012   2.736  27.283  0.00  0.00    -0.186 OA
BRANCH   5   6
ATOM      6  P   UNL     1       5.602   1.145  26.940  0.00  0.00    +0.492 P 
ATOM      7  O   UNL     1       6.134   1.135  25.497  0.00  0.00    -0.226 OA
BRANCH   6   8
ATOM      8  O   UNL     1       7.175   1.609  27.487  0.00  0.00    -0.302 OA
ATOM      9  H   UNL     1       7.748   0.818  27.507  0.00  0.00    +0.222 HD
ENDBRANCH   6   8
BRANCH   6  10
ATOM     10  O   UNL     1       4.027   0.680  26.393  0.00  0.00    -0.186 OA
BRANCH  10  11
ATOM     11  P   UNL     1       3.391  -0.541  27.439  0.00  0.00    +0.483 P 
ATOM     12  O   UNL     1       2.039  -0.400  26.740  0.00  0.00    -0.227 OA
BRANCH  11  13
ATOM     13  O   UNL     1       3.342   0.529  28.660  0.00  0.00    -0.302 OA
ATOM     14  H   UNL     1       2.620   1.165  28.500  0.00  0.00    +0.222 HD
ENDBRANCH  11  13
BRANCH  11  15
ATOM     15  O   UNL     1       2.755  -1.764  28.484  0.00  0.00    -0.284 OA
BRANCH  15  16
ATOM     16  C   UNL     1       3.700  -2.777  28.823  0.00  0.00    +0.206 C 
BRANCH  16  17
ATOM     17  C   UNL     1       3.273  -4.152  28.303  0.00  0.00    +0.178 C 
ATOM     18  C   UNL     1       1.896  -4.160  27.646  0.00  0.00    +0.178 C 
ATOM     19  C   UNL     1       2.166  -4.085  26.144  0.00  0.00    +0.195 C 
ATOM     20  C   UNL     1       3.698  -4.090  26.033  0.00  0.00    +0.253 C 
ATOM     21  O   UNL     1       4.191  -4.602  27.289  0.00  0.00    -0.346 OA
BRANCH  20  22
ATOM     22  N   UNL     1       4.192  -4.912  24.948  0.00  0.00    -0.286 N 
ATOM     23  C   UNL     1       4.801  -4.423  23.822  0.00  0.00    +0.167 A 
ATOM     24  N   UNL     1       5.039  -3.137  23.510  0.00  0.00    -0.216 NA
ATOM     25  C   UNL     1       5.657  -3.053  22.310  0.00  0.00    +0.225 A 
ATOM     26  N   UNL     1       5.996  -4.052  21.467  0.00  0.00    -0.219 NA
ATOM     27  C   UNL     1       5.703  -5.322  21.824  0.00  0.00    +0.147 A 
ATOM     28  N   UNL     1       6.026  -6.350  20.945  0.00  0.00    -0.341 N 
ATOM     29  H   UNL     1       6.098  -7.258  21.390  0.00  0.00    +0.144 HD
ATOM     30  H   UNL     1       6.745  -6.085  20.286  0.00  0.00    +0.144 HD
ATOM     31  C   UNL     1       5.098  -5.547  23.069  0.00  0.00    +0.147 A 
ATOM     32  N   UNL     1       4.724  -6.697  23.734  0.00  0.00    -0.231 NA
ATOM     33  C   UNL     1       4.203  -6.276  24.867  0.00  0.00    +0.203 A 
ENDBRANCH  20  22
BRANCH  19  34
ATOM     34  O   UNL     1       1.588  -2.903  25.585  0.00  0.00    -0.385 OA
ATOM     35  H   UNL     1       2.309  -2.431  25.121  0.00  0.00    +0.210 HD
ENDBRANCH  19  34
BRANCH  18  36
ATOM     36  O   UNL     1       1.235  -5.396  27.962  0.00  0.00    -0.386 OA
ATOM     37  H   UNL     1       1.486  -6.065  27.298  0.00  0.00    +0.210 HD
ENDBRANCH  18  36
ENDBRANCH  16  17
ENDBRANCH  15  16
ENDBRANCH  11  15
ENDBRANCH  10  11
ENDBRANCH   6  10
ENDBRANCH   5   6
ENDBRANCH   1   5
BRANCH   1  38
ATOM     38  O   UNL     1       4.661   4.408  24.275  0.00  0.00    -0.186 OA
BRANCH  38  39
ATOM     39  P   UNL     1       6.132   4.289  23.373  0.00  0.00    +0.492 P 
ATOM     40  O   UNL     1       5.659   2.939  22.810  0.00  0.00    -0.226 OA
BRANCH  39  41
ATOM     41  O   UNL     1       5.629   5.366  22.243  0.00  0.00    -0.302 OA
ATOM     42  H   UNL     1       6.225   6.166  22.266  0.00  0.00    +0.222 HD
ENDBRANCH  39  41
BRANCH  39  43
ATOM     43  O   UNL     1       7.604   4.170  22.472  0.00  0.00    -0.186 OA
BRANCH  43  44
ATOM     44  P   UNL     1       8.901   4.852  23.392  0.00  0.00    +0.483 P 
ATOM     45  O   UNL     1       7.952   5.819  24.093  0.00  0.00    -0.227 OA
BRANCH  44  46
ATOM     46  O   UNL     1      10.198   5.533  24.312  0.00  0.00    -0.302 OA
ATOM     47  H   UNL     1       9.987   5.271  25.232  0.00  0.00    +0.222 HD
ENDBRANCH  44  46
BRANCH  44  48
ATOM     48  O   UNL     1       9.015   3.471  24.291  0.00  0.00    -0.284 OA
BRANCH  48  49
ATOM     49  C   UNL     1       9.602   2.416  23.551  0.00  0.00    +0.206 C 
BRANCH  49  53
ATOM     50  C   UNL     1       9.584  -1.159  23.552  0.00  0.00    +0.253 C 
ATOM     51  C   UNL     1       8.872  -0.845  22.230  0.00  0.00    +0.195 C 
ATOM     52  C   UNL     1       8.213   0.518  22.462  0.00  0.00    +0.178 C 
ATOM     53  C   UNL     1       8.921   1.066  23.706  0.00  0.00    +0.178 C 
ATOM     54  O   UNL     1       9.989   0.145  24.023  0.00  0.00    -0.346 OA
BRANCH  50  62
ATOM     55  N   UNL     1       7.018  -4.848  27.611  0.00  0.00    -0.341 N 
ATOM     56  H   UNL     1       7.226  -4.160  28.325  0.00  0.00    +0.144 HD
ATOM     57  H   UNL     1       7.118  -5.825  27.856  0.00  0.00    +0.144 HD
ATOM     58  C   UNL     1       7.593  -4.558  26.379  0.00  0.00    +0.147 A 
ATOM     59  C   UNL     1       8.010  -3.274  26.002  0.00  0.00    +0.147 A 
ATOM     60  N   UNL     1       7.987  -2.061  26.661  0.00  0.00    -0.231 NA
ATOM     61  C   UNL     1       8.533  -1.214  25.815  0.00  0.00    +0.203 A 
ATOM     62  N   UNL     1       8.882  -1.818  24.628  0.00  0.00    -0.286 N 
ATOM     63  C   UNL     1       8.588  -3.147  24.751  0.00  0.00    +0.167 A 
ATOM     64  N   UNL     1       8.819  -4.123  23.863  0.00  0.00    -0.216 NA
ATOM     65  C   UNL     1       8.371  -5.310  24.328  0.00  0.00    +0.225 A 
ATOM     66  N   UNL     1       7.792  -5.580  25.510  0.00  0.00    -0.219 NA
ENDBRANCH  50  62
BRANCH  52  67
ATOM     67  O   UNL     1       6.824   0.331  22.721  0.00  0.00    -0.386 OA
ATOM     68  H   UNL     1       6.332   0.585  21.918  0.00  0.00    +0.210 HD
ENDBRANCH  52  67
BRANCH  51  69
ATOM     69  O   UNL     1       9.861  -0.711  21.181  0.00  0.00    -0.385 OA
ATOM     70  H   UNL     1       9.616   0.050  20.627  0.00  0.00    +0.210 HD
ENDBRANCH  51  69
ENDBRANCH  49  53
ENDBRANCH  48  49
ENDBRANCH  44  48
ENDBRANCH  43  44
ENDBRANCH  39  43
ENDBRANCH  38  39
ENDBRANCH   1  38
TORSDOF 25
ENDMDL
MODEL 2
REMARK VINA RESULT:      -6.2      3.550      7.348
REMARK  Name = 
REMARK  25 active torsions:
REMARK  status: ('A' for Active; 'I' for Inactive)
REMARK    1  A    between atoms: N_10  and  C_11
REMARK    2  A    between atoms: C_14  and  C_16
REMARK    3  A    between atoms: C_16  and  O_17
REMARK    4  A    between atoms: O_17  and  P_18
REMARK    5  A    between atoms: P_18  and  O_19
REMARK    6  A    between atoms: P_18  and  O_21
REMARK    7  A    between atoms: O_21  and  P_22
REMARK    8  A    between atoms: P_22  and  O_23
REMARK    9  A    between atoms: P_22  and  O_25
REMARK   10  A    between atoms: O_25  and  P_26
REMARK   11  A    between atoms: P_26  and  O_27
REMARK   12  A    between atoms: P_26  and  O_29
REMARK   13  A    between atoms: O_29  and  P_30
REMARK   14  A    between atoms: P_30  and  O_31
REMARK   15  A    between atoms: P_30  and  O_33
REMARK   16  A    between atoms: O_33  and  P_34
REMARK   17  A    between atoms: P_34  and  O_35
REMARK   18  A    between atoms: P_34  and  O_37
REMARK   19  A    between atoms: O_37  and  C_38
REMARK   20  A    between atoms: C_38  and  C_39
REMARK   21  A    between atoms: C_42  and  N_50
REMARK   22  A    between atoms: C_44  and  O_46
REMARK   23  A    between atoms: C_47  and  O_49
REMARK   24  A    between atoms: C_60  and  O_62
REMARK   25  A    between atoms: C_63  and  O_65
REMARK                            x       y       z     vdW  Elec       q    Type
REMARK                         _______ _______ _______ _____ _____    ______ ____
ROOT
ATOM      1  P   UNL     1       4.906  -4.049  27.692  0.00  0.00    +0.492 P 
ATOM      2  O   UNL     1       4.314  -3.308  28.894  0.00  0.00    -0.226 OA
ENDROOT
BRANCH   1   3
ATOM      3  O   UNL     1       6.431  -4.489  28.101  0.00  0.00    -0.302 OA
ATOM      4  H   UNL     1       6.531  -4.464  29.077  0.00  0.00    +0.222 HD
ENDBRANCH   1   3
BRANCH   1   5
ATOM      5  O   UNL     1       4.261  -5.543  28.280  0.00  0.00    -0.186 OA
BRANCH   5   6
ATOM      6  P   UNL     1       4.555  -6.755  27.081  0.00  0.00    +0.492 P 
ATOM      7  O   UNL     1       5.854  -6.390  26.343  0.00  0.00    -0.226 OA
BRANCH   6   8
ATOM      8  O   UNL     1       5.491  -7.657  28.221  0.00  0.00    -0.302 OA
ATOM      9  H   UNL     1       5.650  -8.552  27.862  0.00  0.00    +0.222 HD
ENDBRANCH   6   8
BRANCH   6  10
ATOM     10  O   UNL     1       3.618  -5.853  25.939  0.00  0.00    -0.186 OA
BRANCH  10  11
ATOM     11  P   UNL     1       4.243  -6.113  24.347  0.00  0.00    +0.483 P 
ATOM     12  O   UNL     1       3.140  -5.211  23.794  0.00  0.00    -0.227 OA
BRANCH  11  13
ATOM     13  O   UNL     1       3.603  -7.606  24.340  0.00  0.00    -0.302 OA
ATOM     14  H   UNL     1       3.140  -7.760  25.186  0.00  0.00    +0.222 HD
ENDBRANCH  11  13
BRANCH  11  15
ATOM     15  O   UNL     1       4.869  -6.372  22.756  0.00  0.00    -0.284 OA
BRANCH  15  16
ATOM     16  C   UNL     1       6.287  -6.244  22.669  0.00  0.00    +0.206 C 
BRANCH  16  17
ATOM     17  C   UNL     1       6.700  -5.119  21.717  0.00  0.00    +0.178 C 
ATOM     18  C   UNL     1       5.636  -4.040  21.543  0.00  0.00    +0.178 C 
ATOM     19  C   UNL     1       6.055  -2.905  22.475  0.00  0.00    +0.195 C 
ATOM     20  C   UNL     1       7.375  -3.390  23.094  0.00  0.00    +0.253 C 
ATOM     21  O   UNL     1       7.861  -4.440  22.232  0.00  0.00    -0.346 OA
BRANCH  20  22
ATOM     22  N   UNL     1       8.375  -2.349  23.201  0.00  0.00    -0.286 N 
ATOM     23  C   UNL     1       8.694  -1.698  24.364  0.00  0.00    +0.167 A 
ATOM     24  N   UNL     1       8.154  -1.882  25.582  0.00  0.00    -0.216 NA
ATOM     25  C   UNL     1       8.727  -1.049  26.479  0.00  0.00    +0.225 A 
ATOM     26  N   UNL     1       9.684  -0.118  26.271  0.00  0.00    -0.219 NA
ATOM     27  C   UNL     1      10.165   0.040  25.017  0.00  0.00    +0.147 A 
ATOM     28  N   UNL     1      11.130   1.017  24.795  0.00  0.00    -0.341 N 
ATOM     29  H   UNL     1      11.677   0.864  23.956  0.00  0.00    +0.144 HD
ATOM     30  H   UNL     1      11.617   1.279  25.640  0.00  0.00    +0.144 HD
ATOM     31  C   UNL     1       9.680  -0.796  24.002  0.00  0.00    +0.147 A 
ATOM     32  N   UNL     1       9.992  -0.921  22.663  0.00  0.00    -0.231 NA
ATOM     33  C   UNL     1       9.203  -1.877  22.222  0.00  0.00    +0.203 A 
ENDBRANCH  20  22
BRANCH  19  34
ATOM     34  O   UNL     1       5.050  -2.666  23.463  0.00  0.00    -0.385 OA
ATOM     35  H   UNL     1       4.405  -3.398  23.390  0.00  0.00    +0.210 HD
ENDBRANCH  19  34
BRANCH  18  36
ATOM     36  O   UNL     1       5.653  -3.583  20.180  0.00  0.00    -0.386 OA
ATOM     37  H   UNL     1       5.209  -2.716  20.134  0.00  0.00    +0.210 HD
ENDBRANCH  18  36
ENDBRANCH  16  17
ENDBRANCH  15  16
ENDBRANCH  11  15
ENDBRANCH  10  11
ENDBRANCH   6  10
ENDBRANCH   5   6
ENDBRANCH   1   5
BRANCH   1  38
ATOM     38  O   UNL     1       5.550  -2.555  27.105  0.00  0.00    -0.186 OA
BRANCH  38  39
ATOM     39  P   UNL     1       4.259  -1.434  26.842  0.00  0.00    +0.492 P 
ATOM     40  O   UNL     1       5.008  -0.882  25.618  0.00  0.00    -0.226 OA
BRANCH  39  41
ATOM     41  O   UNL     1       3.278  -2.580  26.197  0.00  0.00    -0.302 OA
ATOM     42  H   UNL     1       2.549  -2.134  25.681  0.00  0.00    +0.222 HD
ENDBRANCH  39  41
BRANCH  39  43
ATOM     43  O   UNL     1       2.968  -0.313  26.579  0.00  0.00    -0.186 OA
BRANCH  43  44
ATOM     44  P   UNL     1       2.549   0.446  28.076  0.00  0.00    +0.483 P 
ATOM     45  O   UNL     1       2.275  -0.903  28.733  0.00  0.00    -0.227 OA
BRANCH  44  46
ATOM     46  O   UNL     1       2.131   1.206  29.573  0.00  0.00    -0.302 OA
ATOM     47  H   UNL     1       1.900   0.452  30.155  0.00  0.00    +0.222 HD
ENDBRANCH  44  46
BRANCH  44  48
ATOM     48  O   UNL     1       4.129   0.854  28.333  0.00  0.00    -0.284 OA
BRANCH  48  49
ATOM     49  C   UNL     1       4.370   2.216  28.033  0.00  0.00    +0.206 C 
BRANCH  49  53
ATOM     50  C   UNL     1       5.889   4.319  25.572  0.00  0.00    +0.253 C 
ATOM     51  C   UNL     1       4.484   4.123  24.988  0.00  0.00    +0.195 C 
ATOM     52  C   UNL     1       4.033   2.759  25.520  0.00  0.00    +0.178 C 
ATOM     53  C   UNL     1       5.001   2.472  26.673  0.00  0.00    +0.178 C 
ATOM     54  O   UNL     1       5.806   3.659  26.854  0.00  0.00    -0.346 OA
BRANCH  50  62
ATOM     55  N   UNL     1      10.112   2.155  21.809  0.00  0.00    -0.341 N 
ATOM     56  H   UNL     1      10.796   2.719  22.300  0.00  0.00    +0.144 HD
ATOM     57  H   UNL     1      10.202   2.074  20.805  0.00  0.00    +0.144 HD
ATOM     58  C   UNL     1       8.801   2.416  22.194  0.00  0.00    +0.147 A 
ATOM     59  C   UNL     1       8.458   3.017  23.414  0.00  0.00    +0.147 A 
ATOM     60  N   UNL     1       9.221   3.482  24.466  0.00  0.00    -0.231 NA
ATOM     61  C   UNL     1       8.346   3.962  25.323  0.00  0.00    +0.203 A 
ATOM     62  N   UNL     1       7.050   3.804  24.886  0.00  0.00    -0.286 N 
ATOM     63  C   UNL     1       7.111   3.235  23.645  0.00  0.00    +0.167 A 
ATOM     64  N   UNL     1       6.093   2.959  22.819  0.00  0.00    -0.216 NA
ATOM     65  C   UNL     1       6.540   2.379  21.684  0.00  0.00    +0.225 A 
ATOM     66  N   UNL     1       7.806   2.104  21.328  0.00  0.00    -0.219 NA
ENDBRANCH  50  62
BRANCH  52  67
ATOM     67  O   UNL     1       4.178   1.781  24.492  0.00  0.00    -0.386 OA
ATOM     68  H   UNL     1       3.581   2.024  23.761  0.00  0.00    +0.210 HD
ENDBRANCH  52  67
BRANCH  51  69
ATOM     69  O   UNL     1       3.605   5.143  25.519  0.00  0.00    -0.385 OA
ATOM     70  H   UNL     1       3.763   5.967  25.027  0.00  0.00    +0.210 HD
ENDBRANCH  51  69
ENDBRANCH  49  53
ENDBRANCH  48  49
ENDBRANCH  44  48
ENDBRANCH  43  44
ENDBRANCH  39  43
ENDBRANCH  38  39
ENDBRANCH   1  38
TORSDOF 25
ENDMDL
MODEL 3
REMARK VINA RESULT:      -6.1      4.461      8.138
REMARK  Name = 
REMARK  25 active torsions:
REMARK  status: ('A' for Active; 'I' for Inactive)
REMARK    1  A    between atoms: N_10  and  C_11
REMARK    2  A    between atoms: C_14  and  C_16
REMARK    3  A    between atoms: C_16  and  O_17
REMARK    4  A    between atoms: O_17  and  P_18
REMARK    5  A    between atoms: P_18  and  O_19
REMARK    6  A    between atoms: P_18  and  O_21
REMARK    7  A    between atoms: O_21  and  P_22
REMARK    8  A    between atoms: P_22  and  O_23
REMARK    9  A    between atoms: P_22  and  O_25
REMARK   10  A    between atoms: O_25  and  P_26
REMARK   11  A    between atoms: P_26  and  O_27
REMARK   12  A    between atoms: P_26  and  O_29
REMARK   13  A    between atoms: O_29  and  P_30
REMARK   14  A    between atoms: P_30  and  O_31
REMARK   15  A    between atoms: P_30  and  O_33
REMARK   16  A    between atoms: O_33  and  P_34
REMARK   17  A    between atoms: P_34  and  O_35
REMARK   18  A    between atoms: P_34  and  O_37
REMARK   19  A    between atoms: O_37  and  C_38
REMARK   20  A    between atoms: C_38  and  C_39
REMARK   21  A    between atoms: C_42  and  N_50
REMARK   22  A    between atoms: C_44  and  O_46
REMARK   23  A    between atoms: C_47  and  O_49
REMARK   24  A    between atoms: C_60  and  O_62
REMARK   25  A    between atoms: C_63  and  O_65
REMARK                            x       y       z     vdW  Elec       q    Type
REMARK                         _______ _______ _______ _____ _____    ______ ____
ROOT
ATOM      1  P   UNL     1       5.515  -6.102  27.899  0.00  0.00    +0.492 P 
ATOM      2  O   UNL     1       5.301  -5.080  29.019  0.00  0.00    -0.226 OA
ENDROOT
BRANCH   1   3
ATOM      3  O   UNL     1       5.932  -7.518  28.612  0.00  0.00    -0.302 OA
ATOM      4  H   UNL     1       6.361  -7.338  29.476  0.00  0.00    +0.222 HD
ENDBRANCH   1   3
BRANCH   1   5
ATOM      5  O   UNL     1       3.835  -6.516  27.940  0.00  0.00    -0.186 OA
BRANCH   5   6
ATOM      6  P   UNL     1       2.937  -5.064  28.220  0.00  0.00    +0.492 P 
ATOM      7  O   UNL     1       1.452  -5.363  27.955  0.00  0.00    -0.226 OA
BRANCH   6   8
ATOM      8  O   UNL     1       2.706  -5.524  29.871  0.00  0.00    -0.302 OA
ATOM      9  H   UNL     1       2.355  -4.758  30.366  0.00  0.00    +0.222 HD
ENDBRANCH   6   8
BRANCH   6  10
ATOM     10  O   UNL     1       3.169  -4.603  26.568  0.00  0.00    -0.186 OA
BRANCH  10  11
ATOM     11  P   UNL     1       3.572  -2.923  26.490  0.00  0.00    +0.483 P 
ATOM     12  O   UNL     1       2.170  -2.637  25.954  0.00  0.00    -0.227 OA
BRANCH  11  13
ATOM     13  O   UNL     1       4.475  -3.202  25.168  0.00  0.00    -0.302 OA
ATOM     14  H   UNL     1       3.984  -2.907  24.377  0.00  0.00    +0.222 HD
ENDBRANCH  11  13
BRANCH  11  15
ATOM     15  O   UNL     1       3.975  -1.242  26.412  0.00  0.00    -0.284 OA
BRANCH  15  16
ATOM     16  C   UNL     1       4.855  -0.816  27.450  0.00  0.00    +0.206 C 
BRANCH  16  17
ATOM     17  C   UNL     1       4.438   0.538  28.030  0.00  0.00    +0.178 C 
ATOM     18  C   UNL     1       5.523   1.208  28.870  0.00  0.00    +0.178 C 
ATOM     19  C   UNL     1       6.182   2.225  27.941  0.00  0.00    +0.195 C 
ATOM     20  C   UNL     1       5.391   2.108  26.628  0.00  0.00    +0.253 C 
ATOM     21  O   UNL     1       4.146   1.462  26.965  0.00  0.00    -0.346 OA
BRANCH  20  22
ATOM     22  N   UNL     1       5.120   3.387  26.006  0.00  0.00    -0.286 N 
ATOM     23  C   UNL     1       4.813   3.553  24.681  0.00  0.00    +0.167 A 
ATOM     24  N   UNL     1       4.718   2.603  23.735  0.00  0.00    -0.216 NA
ATOM     25  C   UNL     1       4.399   3.157  22.543  0.00  0.00    +0.225 A 
ATOM     26  N   UNL     1       4.213   4.462  22.246  0.00  0.00    -0.219 NA
ATOM     27  C   UNL     1       4.353   5.373  23.235  0.00  0.00    +0.147 A 
ATOM     28  N   UNL     1       4.190   6.719  22.925  0.00  0.00    -0.341 N 
ATOM     29  H   UNL     1       3.972   7.298  23.729  0.00  0.00    +0.144 HD
ATOM     30  H   UNL     1       3.656   6.860  22.079  0.00  0.00    +0.144 HD
ATOM     31  C   UNL     1       4.642   4.919  24.530  0.00  0.00    +0.147 A 
ATOM     32  N   UNL     1       4.794   5.570  25.737  0.00  0.00    -0.231 NA
ATOM     33  C   UNL     1       5.060   4.614  26.603  0.00  0.00    +0.203 A 
ENDBRANCH  20  22
BRANCH  19  34
ATOM     34  O   UNL     1       7.568   1.925  27.764  0.00  0.00    -0.385 OA
ATOM     35  H   UNL     1       7.924   2.598  27.150  0.00  0.00    +0.210 HD
ENDBRANCH  19  34
BRANCH  18  36
ATOM     36  O   UNL     1       4.905   1.886  29.976  0.00  0.00    -0.386 OA
ATOM     37  H   UNL     1       4.186   2.451  29.636  0.00  0.00    +0.210 HD
ENDBRANCH  18  36
ENDBRANCH  16  17
ENDBRANCH  15  16
ENDBRANCH  11  15
ENDBRANCH  10  11
ENDBRANCH   6  10
ENDBRANCH   5   6
ENDBRANCH   1   5
BRANCH   1  38
ATOM     38  O   UNL     1       7.193  -5.687  27.859  0.00  0.00    -0.186 OA
BRANCH  38  39
ATOM     39  P   UNL     1       7.562  -4.924  26.350  0.00  0.00    +0.492 P 
ATOM     40  O   UNL     1       8.326  -3.828  27.110  0.00  0.00    -0.226 OA
BRANCH  39  41
ATOM     41  O   UNL     1       8.732  -6.015  25.985  0.00  0.00    -0.302 OA
ATOM     42  H   UNL     1       8.410  -6.606  25.249  0.00  0.00    +0.222 HD
ENDBRANCH  39  41
BRANCH  39  43
ATOM     43  O   UNL     1       7.931  -4.161  24.842  0.00  0.00    -0.186 OA
BRANCH  43  44
ATOM     44  P   UNL     1       7.238  -5.077  23.548  0.00  0.00    +0.483 P 
ATOM     45  O   UNL     1       6.216  -5.711  24.486  0.00  0.00    -0.227 OA
BRANCH  44  46
ATOM     46  O   UNL     1       6.545  -5.991  22.253  0.00  0.00    -0.302 OA
ATOM     47  H   UNL     1       6.312  -6.844  22.676  0.00  0.00    +0.222 HD
ENDBRANCH  44  46
BRANCH  44  48
ATOM     48  O   UNL     1       6.587  -3.703  22.900  0.00  0.00    -0.284 OA
BRANCH  48  49
ATOM     49  C   UNL     1       7.593  -2.799  22.482  0.00  0.00    +0.206 C 
BRANCH  49  53
ATOM     50  C   UNL     1       8.674   0.263  23.978  0.00  0.00    +0.253 C 
ATOM     51  C   UNL     1       7.746  -0.300  25.061  0.00  0.00    +0.195 C 
ATOM     52  C   UNL     1       6.733  -1.155  24.293  0.00  0.00    +0.178 C 
ATOM     53  C   UNL     1       7.384  -1.358  22.920  0.00  0.00    +0.178 C 
ATOM     54  O   UNL     1       8.713  -0.796  22.997  0.00  0.00    -0.346 OA
BRANCH  50  62
ATOM     55  N   UNL     1       7.742   5.899  21.966  0.00  0.00    -0.341 N 
ATOM     56  H   UNL     1       7.953   5.568  21.032  0.00  0.00    +0.144 HD
ATOM     57  H   UNL     1       8.077   6.817  22.228  0.00  0.00    +0.144 HD
ATOM     58  C   UNL     1       7.989   4.953  22.956  0.00  0.00    +0.147 A 
ATOM     59  C   UNL     1       8.066   3.575  22.708  0.00  0.00    +0.147 A 
ATOM     60  N   UNL     1       7.943   2.833  21.551  0.00  0.00    -0.231 NA
ATOM     61  C   UNL     1       8.132   1.588  21.934  0.00  0.00    +0.203 A 
ATOM     62  N   UNL     1       8.345   1.490  23.291  0.00  0.00    -0.286 N 
ATOM     63  C   UNL     1       8.344   2.761  23.792  0.00  0.00    +0.167 A 
ATOM     64  N   UNL     1       8.575   3.144  25.055  0.00  0.00    -0.216 NA
ATOM     65  C   UNL     1       8.468   4.485  25.176  0.00  0.00    +0.225 A 
ATOM     66  N   UNL     1       8.203   5.392  24.221  0.00  0.00    -0.219 NA
ENDBRANCH  50  62
BRANCH  52  67
ATOM     67  O   UNL     1       5.510  -0.434  24.163  0.00  0.00    -0.386 OA
ATOM     68  H   UNL     1       4.978  -0.599  24.964  0.00  0.00    +0.210 HD
ENDBRANCH  52  67
BRANCH  51  69
ATOM     69  O   UNL     1       8.511  -1.161  25.938  0.00  0.00    -0.385 OA
ATOM     70  H   UNL     1       9.456  -1.020  25.755  0.00  0.00    +0.210 HD
ENDBRANCH  51  69
ENDBRANCH  49  53
ENDBRANCH  48  49
ENDBRANCH  44  48
ENDBRANCH  43  44
ENDBRANCH  39  43
ENDBRANCH  38  39
ENDBRANCH   1  38
TORSDOF 25
ENDMDL
MODEL 4
REMARK VINA RESULT:      -6.0      4.701      7.327
REMARK  Name = 
REMARK  25 active torsions:
REMARK  status: ('A' for Active; 'I' for Inactive)
REMARK    1  A    between atoms: N_10  and  C_11
REMARK    2  A    between atoms: C_14  and  C_16
REMARK    3  A    between atoms: C_16  and  O_17
REMARK    4  A    between atoms: O_17  and  P_18
REMARK    5  A    between atoms: P_18  and  O_19
REMARK    6  A    between atoms: P_18  and  O_21
REMARK    7  A    between atoms: O_21  and  P_22
REMARK    8  A    between atoms: P_22  and  O_23
REMARK    9  A    between atoms: P_22  and  O_25
REMARK   10  A    between atoms: O_25  and  P_26
REMARK   11  A    between atoms: P_26  and  O_27
REMARK   12  A    between atoms: P_26  and  O_29
REMARK   13  A    between atoms: O_29  and  P_30
REMARK   14  A    between atoms: P_30  and  O_31
REMARK   15  A    between atoms: P_30  and  O_33
REMARK   16  A    between atoms: O_33  and  P_34
REMARK   17  A    between atoms: P_34  and  O_35
REMARK   18  A    between atoms: P_34  and  O_37
REMARK   19  A    between atoms: O_37  and  C_38
REMARK   20  A    between atoms: C_38  and  C_39
REMARK   21  A    between atoms: C_42  and  N_50
REMARK   22  A    between atoms: C_44  and  O_46
REMARK   23  A    between atoms: C_47  and  O_49
REMARK   24  A    between atoms: C_60  and  O_62
REMARK   25  A    between atoms: C_63  and  O_65
REMARK                            x       y       z     vdW  Elec       q    Type
REMARK                         _______ _______ _______ _____ _____    ______ ____
ROOT
ATOM      1  P   UNL     1       7.941  -3.856  22.937  0.00  0.00    +0.492 P 
ATOM      2  O   UNL     1       6.651  -4.225  22.199  0.00  0.00    -0.226 OA
ENDROOT
BRANCH   1   3
ATOM      3  O   UNL     1       7.523  -2.863  24.173  0.00  0.00    -0.302 OA
ATOM      4  H   UNL     1       6.590  -2.578  24.065  0.00  0.00    +0.222 HD
ENDBRANCH   1   3
BRANCH   1   5
ATOM      5  O   UNL     1       7.783  -5.257  23.939  0.00  0.00    -0.186 OA
BRANCH   5   6
ATOM      6  P   UNL     1       7.591  -4.721  25.573  0.00  0.00    +0.492 P 
ATOM      7  O   UNL     1       7.536  -5.963  26.480  0.00  0.00    -0.226 OA
BRANCH   6   8
ATOM      8  O   UNL     1       9.309  -4.691  25.767  0.00  0.00    -0.302 OA
ATOM      9  H   UNL     1       9.607  -3.761  25.795  0.00  0.00    +0.222 HD
ENDBRANCH   6   8
BRANCH   6  10
ATOM     10  O   UNL     1       5.872  -4.750  25.380  0.00  0.00    -0.186 OA
BRANCH  10  11
ATOM     11  P   UNL     1       5.138  -3.756  26.590  0.00  0.00    +0.483 P 
ATOM     12  O   UNL     1       4.746  -2.760  25.499  0.00  0.00    -0.227 OA
BRANCH  11  13
ATOM     13  O   UNL     1       6.609  -3.275  27.085  0.00  0.00    -0.302 OA
ATOM     14  H   UNL     1       7.097  -4.044  27.436  0.00  0.00    +0.222 HD
ENDBRANCH  11  13
BRANCH  11  15
ATOM     15  O   UNL     1       4.404  -2.762  27.801  0.00  0.00    -0.284 OA
BRANCH  15  16
ATOM     16  C   UNL     1       3.504  -1.788  27.274  0.00  0.00    +0.206 C 
BRANCH  16  17
ATOM     17  C   UNL     1       3.862  -0.373  27.735  0.00  0.00    +0.178 C 
ATOM     18  C   UNL     1       5.360  -0.149  27.924  0.00  0.00    +0.178 C 
ATOM     19  C   UNL     1       5.828   0.547  26.647  0.00  0.00    +0.195 C 
ATOM     20  C   UNL     1       4.545   0.724  25.820  0.00  0.00    +0.253 C 
ATOM     21  O   UNL     1       3.447   0.588  26.747  0.00  0.00    -0.346 OA
BRANCH  20  22
ATOM     22  N   UNL     1       4.462   2.010  25.158  0.00  0.00    -0.286 N 
ATOM     23  C   UNL     1       5.212   2.369  24.069  0.00  0.00    +0.167 A 
ATOM     24  N   UNL     1       6.141   1.634  23.434  0.00  0.00    -0.216 NA
ATOM     25  C   UNL     1       6.669   2.333  22.404  0.00  0.00    +0.225 A 
ATOM     26  N   UNL     1       6.388   3.596  22.014  0.00  0.00    -0.219 NA
ATOM     27  C   UNL     1       5.465   4.294  22.712  0.00  0.00    +0.147 A 
ATOM     28  N   UNL     1       5.195   5.604  22.329  0.00  0.00    -0.341 N 
ATOM     29  H   UNL     1       4.295   5.943  22.649  0.00  0.00    +0.144 HD
ATOM     30  H   UNL     1       5.461   5.791  21.373  0.00  0.00    +0.144 HD
ATOM     31  C   UNL     1       4.813   3.663  23.781  0.00  0.00    +0.147 A 
ATOM     32  N   UNL     1       3.813   4.072  24.640  0.00  0.00    -0.231 NA
ATOM     33  C   UNL     1       3.616   3.044  25.439  0.00  0.00    +0.203 A 
ENDBRANCH  20  22
BRANCH  19  34
ATOM     34  O   UNL     1       6.803  -0.247  25.967  0.00  0.00    -0.385 OA
ATOM     35  H   UNL     1       6.441  -1.155  25.920  0.00  0.00    +0.210 HD
ENDBRANCH  19  34
BRANCH  18  36
ATOM     36  O   UNL     1       5.564   0.716  29.053  0.00  0.00    -0.386 OA
ATOM     37  H   UNL     1       6.156   0.270  29.687  0.00  0.00    +0.210 HD
ENDBRANCH  18  36
ENDBRANCH  16  17
ENDBRANCH  15  16
ENDBRANCH  11  15
ENDBRANCH  10  11
ENDBRANCH   6  10
ENDBRANCH   5   6
ENDBRANCH   1   5
BRANCH   1  38
ATOM     38  O   UNL     1       8.099  -2.456  21.934  0.00  0.00    -0.186 OA
BRANCH  38  39
ATOM     39  P   UNL     1       9.242  -1.367  22.640  0.00  0.00    +0.492 P 
ATOM     40  O   UNL     1       9.463  -0.728  21.259  0.00  0.00    -0.226 OA
BRANCH  39  41
ATOM     41  O   UNL     1       8.071  -0.430  23.304  0.00  0.00    -0.302 OA
ATOM     42  H   UNL     1       7.963  -0.674  24.266  0.00  0.00    +0.222 HD
ENDBRANCH  39  41
BRANCH  39  43
ATOM     43  O   UNL     1      10.385  -0.277  23.346  0.00  0.00    -0.186 OA
BRANCH  43  44
ATOM     44  P   UNL     1       9.566   0.798  24.427  0.00  0.00    +0.483 P 
ATOM     45  O   UNL     1       9.947  -0.056  25.633  0.00  0.00    -0.227 OA
BRANCH  44  46
ATOM     46  O   UNL     1       8.748   1.873  25.507  0.00  0.00    -0.302 OA
ATOM     47  H   UNL     1       9.280   2.694  25.458  0.00  0.00    +0.222 HD
ENDBRANCH  44  46
BRANCH  44  48
ATOM     48  O   UNL     1      10.732   1.947  24.198  0.00  0.00    -0.284 OA
BRANCH  48  49
ATOM     49  C   UNL     1      10.257   3.015  23.400  0.00  0.00    +0.206 C 
BRANCH  49  53
ATOM     50  C   UNL     1       8.152   5.707  24.451  0.00  0.00    +0.253 C 
ATOM     51  C   UNL     1       9.031   6.394  23.398  0.00  0.00    +0.195 C 
ATOM     52  C   UNL     1      10.344   5.606  23.421  0.00  0.00    +0.178 C 
ATOM     53  C   UNL     1       9.986   4.308  24.152  0.00  0.00    +0.178 C 
ATOM     54  O   UNL     1       8.556   4.324  24.363  0.00  0.00    -0.346 OA
BRANCH  50  62
ATOM     55  N   UNL     1       7.831   6.466  30.451  0.00  0.00    -0.341 N 
ATOM     56  H   UNL     1       8.790   6.791  30.431  0.00  0.00    +0.144 HD
ATOM     57  H   UNL     1       7.545   5.889  31.231  0.00  0.00    +0.144 HD
ATOM     58  C   UNL     1       7.398   5.948  29.235  0.00  0.00    +0.147 A 
ATOM     59  C   UNL     1       8.004   6.247  28.006  0.00  0.00    +0.147 A 
ATOM     60  N   UNL     1       9.084   7.040  27.673  0.00  0.00    -0.231 NA
ATOM     61  C   UNL     1       9.196   6.916  26.368  0.00  0.00    +0.203 A 
ATOM     62  N   UNL     1       8.221   6.100  25.838  0.00  0.00    -0.286 N 
ATOM     63  C   UNL     1       7.475   5.634  26.884  0.00  0.00    +0.167 A 
ATOM     64  N   UNL     1       6.459   4.761  26.841  0.00  0.00    -0.216 NA
ATOM     65  C   UNL     1       5.951   4.556  28.075  0.00  0.00    +0.225 A 
ATOM     66  N   UNL     1       6.356   5.080  29.244  0.00  0.00    -0.219 NA
ENDBRANCH  50  62
BRANCH  52  67
ATOM     67  O   UNL     1      11.321   6.340  24.156  0.00  0.00    -0.386 OA
ATOM     68  H   UNL     1      11.981   5.706  24.493  0.00  0.00    +0.210 HD
ENDBRANCH  52  67
BRANCH  51  69
ATOM     69  O   UNL     1       8.418   6.238  22.096  0.00  0.00    -0.385 OA
ATOM     70  H   UNL     1       9.093   6.419  21.419  0.00  0.00    +0.210 HD
ENDBRANCH  51  69
ENDBRANCH  49  53
ENDBRANCH  48  49
ENDBRANCH  44  48
ENDBRANCH  43  44
ENDBRANCH  39  43
ENDBRANCH  38  39
ENDBRANCH   1  38
TORSDOF 25
ENDMDL
MODEL 5
REMARK VINA RESULT:      -5.8      3.772      5.838
REMARK  Name = 
REMARK  25 active torsions:
REMARK  status: ('A' for Active; 'I' for Inactive)
REMARK    1  A    between atoms: N_10  and  C_11
REMARK    2  A    between atoms: C_14  and  C_16
REMARK    3  A    between atoms: C_16  and  O_17
REMARK    4  A    between atoms: O_17  and  P_18
REMARK    5  A    between atoms: P_18  and  O_19
REMARK    6  A    between atoms: P_18  and  O_21
REMARK    7  A    between atoms: O_21  and  P_22
REMARK    8  A    between atoms: P_22  and  O_23
REMARK    9  A    between atoms: P_22  and  O_25
REMARK   10  A    between atoms: O_25  and  P_26
REMARK   11  A    between atoms: P_26  and  O_27
REMARK   12  A    between atoms: P_26  and  O_29
REMARK   13  A    between atoms: O_29  and  P_30
REMARK   14  A    between atoms: P_30  and  O_31
REMARK   15  A    between atoms: P_30  and  O_33
REMARK   16  A    between atoms: O_33  and  P_34
REMARK   17  A    between atoms: P_34  and  O_35
REMARK   18  A    between atoms: P_34  and  O_37
REMARK   19  A    between atoms: O_37  and  C_38
REMARK   20  A    between atoms: C_38  and  C_39
REMARK   21  A    between atoms: C_42  and  N_50
REMARK   22  A    between atoms: C_44  and  O_46
REMARK   23  A    between atoms: C_47  and  O_49
REMARK   24  A    between atoms: C_60  and  O_62
REMARK   25  A    between atoms: C_63  and  O_65
REMARK                            x       y       z     vdW  Elec       q    Type
REMARK                         _______ _______ _______ _____ _____    ______ ____
ROOT
ATOM      1  P   UNL     1       8.245   4.216  24.754  0.00  0.00    +0.492 P 
ATOM      2  O   UNL     1       9.480   5.030  24.357  0.00  0.00    -0.226 OA
ENDROOT
BRANCH   1   3
ATOM      3  O   UNL     1       8.775   2.742  25.239  0.00  0.00    -0.302 OA
ATOM      4  H   UNL     1       9.554   2.479  24.703  0.00  0.00    +0.222 HD
ENDBRANCH   1   3
BRANCH   1   5
ATOM      5  O   UNL     1       8.337   4.838  26.366  0.00  0.00    -0.186 OA
BRANCH   5   6
ATOM      6  P   UNL     1       6.752   4.764  27.054  0.00  0.00    +0.492 P 
ATOM      7  O   UNL     1       6.441   6.133  27.683  0.00  0.00    -0.226 OA
BRANCH   6   8
ATOM      8  O   UNL     1       6.078   5.328  25.565  0.00  0.00    -0.302 OA
ATOM      9  H   UNL     1       5.433   6.036  25.758  0.00  0.00    +0.222 HD
ENDBRANCH   6   8
BRANCH   6  10
ATOM     10  O   UNL     1       7.425   4.200  28.545  0.00  0.00    -0.186 OA
BRANCH  10  11
ATOM     11  P   UNL     1       6.804   2.625  28.899  0.00  0.00    +0.483 P 
ATOM     12  O   UNL     1       7.862   2.480  29.992  0.00  0.00    -0.227 OA
BRANCH  11  13
ATOM     13  O   UNL     1       7.509   2.045  27.556  0.00  0.00    -0.302 OA
ATOM     14  H   UNL     1       7.433   2.706  26.842  0.00  0.00    +0.222 HD
ENDBRANCH  11  13
BRANCH  11  15
ATOM     15  O   UNL     1       6.181   1.051  29.254  0.00  0.00    -0.284 OA
BRANCH  15  16
ATOM     16  C   UNL     1       4.762   0.958  29.147  0.00  0.00    +0.206 C 
BRANCH  16  17
ATOM     17  C   UNL     1       4.329   0.368  27.802  0.00  0.00    +0.178 C 
ATOM     18  C   UNL     1       2.816   0.280  27.628  0.00  0.00    +0.178 C 
ATOM     19  C   UNL     1       2.433   1.502  26.796  0.00  0.00    +0.195 C 
ATOM     20  C   UNL     1       3.773   2.193  26.500  0.00  0.00    +0.253 C 
ATOM     21  O   UNL     1       4.796   1.201  26.725  0.00  0.00    -0.346 OA
BRANCH  20  22
ATOM     22  N   UNL     1       3.873   2.694  25.145  0.00  0.00    -0.286 N 
ATOM     23  C   UNL     1       3.078   3.679  24.623  0.00  0.00    +0.167 A 
ATOM     24  N   UNL     1       2.080   4.340  25.235  0.00  0.00    -0.216 NA
ATOM     25  C   UNL     1       1.524   5.238  24.392  0.00  0.00    +0.225 A 
ATOM     26  N   UNL     1       1.837   5.485  23.101  0.00  0.00    -0.219 NA
ATOM     27  C   UNL     1       2.831   4.766  22.532  0.00  0.00    +0.147 A 
ATOM     28  N   UNL     1       3.136   4.999  21.195  0.00  0.00    -0.341 N 
ATOM     29  H   UNL     1       4.067   4.697  20.932  0.00  0.00    +0.144 HD
ATOM     30  H   UNL     1       2.822   5.905  20.878  0.00  0.00    +0.144 HD
ATOM     31  C   UNL     1       3.516   3.829  23.317  0.00  0.00    +0.147 A 
ATOM     32  N   UNL     1       4.582   2.991  23.058  0.00  0.00    -0.231 NA
ATOM     33  C   UNL     1       4.781   2.341  24.186  0.00  0.00    +0.203 A 
ENDBRANCH  20  22
BRANCH  19  34
ATOM     34  O   UNL     1       1.538   2.347  27.521  0.00  0.00    -0.385 OA
ATOM     35  H   UNL     1       0.686   1.868  27.579  0.00  0.00    +0.210 HD
ENDBRANCH  19  34
BRANCH  18  36
ATOM     36  O   UNL     1       2.498  -0.921  26.905  0.00  0.00    -0.386 OA
ATOM     37  H   UNL     1       3.319  -1.429  26.764  0.00  0.00    +0.210 HD
ENDBRANCH  18  36
ENDBRANCH  16  17
ENDBRANCH  15  16
ENDBRANCH  11  15
ENDBRANCH  10  11
ENDBRANCH   6  10
ENDBRANCH   5   6
ENDBRANCH   1   5
BRANCH   1  38
ATOM     38  O   UNL     1       8.153   3.595  23.142  0.00  0.00    -0.186 OA
BRANCH  38  39
ATOM     39  P   UNL     1       9.113   2.161  23.021  0.00  0.00    +0.492 P 
ATOM     40  O   UNL     1       7.827   1.319  23.011  0.00  0.00    -0.226 OA
BRANCH  39  41
ATOM     41  O   UNL     1       9.421   2.397  21.427  0.00  0.00    -0.302 OA
ATOM     42  H   UNL     1      10.405   2.499  21.296  0.00  0.00    +0.222 HD
ENDBRANCH  39  41
BRANCH  39  43
ATOM     43  O   UNL     1      10.074   0.728  22.900  0.00  0.00    -0.186 OA
BRANCH  43  44
ATOM     44  P   UNL     1       9.081  -0.589  22.377  0.00  0.00    +0.483 P 
ATOM     45  O   UNL     1       9.724  -0.581  20.993  0.00  0.00    -0.227 OA
BRANCH  44  46
ATOM     46  O   UNL     1       8.089  -1.907  21.855  0.00  0.00    -0.302 OA
ATOM     47  H   UNL     1       7.913  -1.700  20.913  0.00  0.00    +0.222 HD
ENDBRANCH  44  46
BRANCH  44  48
ATOM     48  O   UNL     1       9.919  -1.632  23.348  0.00  0.00    -0.284 OA
BRANCH  48  49
ATOM     49  C   UNL     1       9.821  -1.263  24.711  0.00  0.00    +0.206 C 
BRANCH  49  53
ATOM     50  C   UNL     1       6.789  -3.149  24.888  0.00  0.00    +0.253 C 
ATOM     51  C   UNL     1       6.279  -1.720  25.110  0.00  0.00    +0.195 C 
ATOM     52  C   UNL     1       7.461  -0.983  25.747  0.00  0.00    +0.178 C 
ATOM     53  C   UNL     1       8.661  -1.894  25.465  0.00  0.00    +0.178 C 
ATOM     54  O   UNL     1       8.191  -2.955  24.603  0.00  0.00    -0.346 OA
BRANCH  50  62
ATOM     55  N   UNL     1       5.380  -7.539  28.815  0.00  0.00    -0.341 N 
ATOM     56  H   UNL     1       6.356  -7.810  28.816  0.00  0.00    +0.144 HD
ATOM     57  H   UNL     1       4.687  -8.275  28.847  0.00  0.00    +0.144 HD
ATOM     58  C   UNL     1       5.074  -6.579  27.856  0.00  0.00    +0.147 A 
ATOM     59  C   UNL     1       6.030  -5.732  27.276  0.00  0.00    +0.147 A 
ATOM     60  N   UNL     1       7.394  -5.616  27.453  0.00  0.00    -0.231 NA
ATOM     61  C   UNL     1       7.755  -4.663  26.620  0.00  0.00    +0.203 A 
ATOM     62  N   UNL     1       6.683  -4.139  25.934  0.00  0.00    -0.286 N 
ATOM     63  C   UNL     1       5.577  -4.844  26.317  0.00  0.00    +0.167 A 
ATOM     64  N   UNL     1       4.325  -4.718  25.857  0.00  0.00    -0.216 NA
ATOM     65  C   UNL     1       3.493  -5.574  26.489  0.00  0.00    +0.225 A 
ATOM     66  N   UNL     1       3.789  -6.482  27.434  0.00  0.00    -0.219 NA
ENDBRANCH  50  62
BRANCH  52  67
ATOM     67  O   UNL     1       7.243  -0.868  27.152  0.00  0.00    -0.386 OA
ATOM     68  H   UNL     1       7.821  -0.159  27.488  0.00  0.00    +0.210 HD
ENDBRANCH  52  67
BRANCH  51  69
ATOM     69  O   UNL     1       5.992  -1.115  23.826  0.00  0.00    -0.385 OA
ATOM     70  H   UNL     1       6.765  -1.244  23.250  0.00  0.00    +0.210 HD
ENDBRANCH  51  69
ENDBRANCH  49  53
ENDBRANCH  48  49
ENDBRANCH  44  48
ENDBRANCH  43  44
ENDBRANCH  39  43
ENDBRANCH  38  39
ENDBRANCH   1  38
TORSDOF 25
ENDMDL
MODEL 6
REMARK VINA RESULT:      -5.8      2.857      5.668
REMARK  Name = 
REMARK  25 active torsions:
REMARK  status: ('A' for Active; 'I' for Inactive)
REMARK    1  A    between atoms: N_10  and  C_11
REMARK    2  A    between atoms: C_14  and  C_16
REMARK    3  A    between atoms: C_16  and  O_17
REMARK    4  A    between atoms: O_17  and  P_18
REMARK    5  A    between atoms: P_18  and  O_19
REMARK    6  A    between atoms: P_18  and  O_21
REMARK    7  A    between atoms: O_21  and  P_22
REMARK    8  A    between atoms: P_22  and  O_23
REMARK    9  A    between atoms: P_22  and  O_25
REMARK   10  A    between atoms: O_25  and  P_26
REMARK   11  A    between atoms: P_26  and  O_27
REMARK   12  A    between atoms: P_26  and  O_29
REMARK   13  A    between atoms: O_29  and  P_30
REMARK   14  A    between atoms: P_30  and  O_31
REMARK   15  A    between atoms: P_30  and  O_33
REMARK   16  A    between atoms: O_33  and  P_34
REMARK   17  A    between atoms: P_34  and  O_35
REMARK   18  A    between atoms: P_34  and  O_37
REMARK   19  A    between atoms: O_37  and  C_38
REMARK   20  A    between atoms: C_38  and  C_39
REMARK   21  A    between atoms: C_42  and  N_50
REMARK   22  A    between atoms: C_44  and  O_46
REMARK   23  A    between atoms: C_47  and  O_49
REMARK   24  A    between atoms: C_60  and  O_62
REMARK   25  A    between atoms: C_63  and  O_65
REMARK                            x       y       z     vdW  Elec       q    Type
REMARK                         _______ _______ _______ _____ _____    ______ ____
ROOT
ATOM      1  P   UNL     1       4.241   0.969  26.974  0.00  0.00    +0.492 P 
ATOM      2  O   UNL     1       3.415  -0.248  27.399  0.00  0.00    -0.226 OA
ENDROOT
BRANCH   1   3
ATOM      3  O   UNL     1       4.002   2.131  28.106  0.00  0.00    -0.302 OA
ATOM      4  H   UNL     1       3.754   2.973  27.667  0.00  0.00    +0.222 HD
ENDBRANCH   1   3
BRANCH   1   5
ATOM      5  O   UNL     1       5.614   0.349  27.825  0.00  0.00    -0.186 OA
BRANCH   5   6
ATOM      6  P   UNL     1       7.034   1.023  27.103  0.00  0.00    +0.492 P 
ATOM      7  O   UNL     1       6.728   2.482  26.719  0.00  0.00    -0.226 OA
BRANCH   6   8
ATOM      8  O   UNL     1       7.564   1.573  28.654  0.00  0.00    -0.302 OA
ATOM      9  H   UNL     1       6.995   2.316  28.937  0.00  0.00    +0.222 HD
ENDBRANCH   6   8
BRANCH   6  10
ATOM     10  O   UNL     1       6.505   0.473  25.550  0.00  0.00    -0.186 OA
BRANCH  10  11
ATOM     11  P   UNL     1       7.494  -0.851  25.039  0.00  0.00    +0.483 P 
ATOM     12  O   UNL     1       6.279  -1.453  24.334  0.00  0.00    -0.227 OA
BRANCH  11  13
ATOM     13  O   UNL     1       7.450  -1.463  26.542  0.00  0.00    -0.302 OA
ATOM     14  H   UNL     1       8.357  -1.495  26.903  0.00  0.00    +0.222 HD
ENDBRANCH  11  13
BRANCH  11  15
ATOM     15  O   UNL     1       8.483  -2.174  24.527  0.00  0.00    -0.284 OA
BRANCH  15  16
ATOM     16  C   UNL     1       7.920  -2.930  23.456  0.00  0.00    +0.206 C 
BRANCH  16  17
ATOM     17  C   UNL     1       7.961  -4.434  23.737  0.00  0.00    +0.178 C 
ATOM     18  C   UNL     1       8.959  -4.829  24.821  0.00  0.00    +0.178 C 
ATOM     19  C   UNL     1       8.130  -4.988  26.094  0.00  0.00    +0.195 C 
ATOM     20  C   UNL     1       6.686  -4.720  25.642  0.00  0.00    +0.253 C 
ATOM     21  O   UNL     1       6.676  -4.883  24.209  0.00  0.00    -0.346 OA
BRANCH  20  22
ATOM     22  N   UNL     1       5.722  -5.621  26.238  0.00  0.00    -0.286 N 
ATOM     23  C   UNL     1       5.427  -5.665  27.575  0.00  0.00    +0.167 A 
ATOM     24  N   UNL     1       5.961  -4.921  28.559  0.00  0.00    -0.216 NA
ATOM     25  C   UNL     1       5.418  -5.258  29.750  0.00  0.00    +0.225 A 
ATOM     26  N   UNL     1       4.493  -6.207  30.014  0.00  0.00    -0.219 NA
ATOM     27  C   UNL     1       4.016  -6.944  28.986  0.00  0.00    +0.147 A 
ATOM     28  N   UNL     1       3.085  -7.940  29.260  0.00  0.00    -0.341 N 
ATOM     29  H   UNL     1       2.532  -8.211  28.455  0.00  0.00    +0.144 HD
ATOM     30  H   UNL     1       2.608  -7.793  30.138  0.00  0.00    +0.144 HD
ATOM     31  C   UNL     1       4.471  -6.661  27.690  0.00  0.00    +0.147 A 
ATOM     32  N   UNL     1       4.153  -7.183  26.453  0.00  0.00    -0.231 NA
ATOM     33  C   UNL     1       4.910  -6.518  25.604  0.00  0.00    +0.203 A 
ENDBRANCH  20  22
BRANCH  19  34
ATOM     34  O   UNL     1       8.562  -4.066  27.097  0.00  0.00    -0.385 OA
ATOM     35  H   UNL     1       9.441  -3.739  26.817  0.00  0.00    +0.210 HD
ENDBRANCH  19  34
BRANCH  18  36
ATOM     36  O   UNL     1       9.557  -6.088  24.469  0.00  0.00    -0.386 OA
ATOM     37  H   UNL     1      10.504  -5.945  24.286  0.00  0.00    +0.210 HD
ENDBRANCH  18  36
ENDBRANCH  16  17
ENDBRANCH  15  16
ENDBRANCH  11  15
ENDBRANCH  10  11
ENDBRANCH   6  10
ENDBRANCH   5   6
ENDBRANCH   1   5
BRANCH   1  38
ATOM     38  O   UNL     1       2.868   1.588  26.124  0.00  0.00    -0.186 OA
BRANCH  38  39
ATOM     39  P   UNL     1       3.258   3.132  25.447  0.00  0.00    +0.492 P 
ATOM     40  O   UNL     1       3.053   2.549  24.039  0.00  0.00    -0.226 OA
BRANCH  39  41
ATOM     41  O   UNL     1       1.787   3.760  25.811  0.00  0.00    -0.302 OA
ATOM     42  H   UNL     1       1.871   4.749  25.919  0.00  0.00    +0.222 HD
ENDBRANCH  39  41
BRANCH  39  43
ATOM     43  O   UNL     1       3.647   4.676  24.770  0.00  0.00    -0.186 OA
BRANCH  43  44
ATOM     44  P   UNL     1       3.914   5.814  26.045  0.00  0.00    +0.483 P 
ATOM     45  O   UNL     1       4.247   4.699  27.030  0.00  0.00    -0.227 OA
BRANCH  44  46
ATOM     46  O   UNL     1       4.180   6.953  27.319  0.00  0.00    -0.302 OA
ATOM     47  H   UNL     1       4.707   6.447  27.972  0.00  0.00    +0.222 HD
ENDBRANCH  44  46
BRANCH  44  48
ATOM     48  O   UNL     1       5.310   6.324  25.323  0.00  0.00    -0.284 OA
BRANCH  48  49
ATOM     49  C   UNL     1       5.236   6.214  23.914  0.00  0.00    +0.206 C 
BRANCH  49  53
ATOM     50  C   UNL     1       8.334   4.432  24.016  0.00  0.00    +0.253 C 
ATOM     51  C   UNL     1       8.794   5.829  23.582  0.00  0.00    +0.195 C 
ATOM     52  C   UNL     1       7.589   6.419  22.843  0.00  0.00    +0.178 C 
ATOM     53  C   UNL     1       6.420   5.519  23.261  0.00  0.00    +0.178 C 
ATOM     54  O   UNL     1       6.925   4.616  24.272  0.00  0.00    -0.346 OA
BRANCH  50  62
ATOM     55  N   UNL     1       9.489  -0.768  21.135  0.00  0.00    -0.341 N 
ATOM     56  H   UNL     1       8.567  -0.707  20.719  0.00  0.00    +0.144 HD
ATOM     57  H   UNL     1       9.820  -1.682  21.413  0.00  0.00    +0.144 HD
ATOM     58  C   UNL     1       9.715   0.189  22.119  0.00  0.00    +0.147 A 
ATOM     59  C   UNL     1       8.984   1.382  22.221  0.00  0.00    +0.147 A 
ATOM     60  N   UNL     1       7.944   1.899  21.474  0.00  0.00    -0.231 NA
ATOM     61  C   UNL     1       7.655   3.043  22.058  0.00  0.00    +0.203 A 
ATOM     62  N   UNL     1       8.478   3.301  23.131  0.00  0.00    -0.286 N 
ATOM     63  C   UNL     1       9.309   2.225  23.269  0.00  0.00    +0.167 A 
ATOM     64  N   UNL     1      10.230   2.017  24.220  0.00  0.00    -0.216 NA
ATOM     65  C   UNL     1      10.873   0.847  24.017  0.00  0.00    +0.225 A 
ATOM     66  N   UNL     1      10.668  -0.062  23.049  0.00  0.00    -0.219 NA
ENDBRANCH  50  62
BRANCH  52  67
ATOM     67  O   UNL     1       7.807   6.330  21.437  0.00  0.00    -0.386 OA
ATOM     68  H   UNL     1       8.697   5.957  21.295  0.00  0.00    +0.210 HD
ENDBRANCH  52  67
BRANCH  51  69
ATOM     69  O   UNL     1       9.054   6.630  24.760  0.00  0.00    -0.385 OA
ATOM     70  H   UNL     1       9.029   6.045  25.537  0.00  0.00    +0.210 HD
ENDBRANCH  51  69
ENDBRANCH  49  53
ENDBRANCH  48  49
ENDBRANCH  44  48
ENDBRANCH  43  44
ENDBRANCH  39  43
ENDBRANCH  38  39
ENDBRANCH   1  38
TORSDOF 25
ENDMDL
MODEL 7
REMARK VINA RESULT:      -5.7      3.577      8.434
REMARK  Name = 
REMARK  25 active torsions:
REMARK  status: ('A' for Active; 'I' for Inactive)
REMARK    1  A    between atoms: N_10  and  C_11
REMARK    2  A    between atoms: C_14  and  C_16
REMARK    3  A    between atoms: C_16  and  O_17
REMARK    4  A    between atoms: O_17  and  P_18
REMARK    5  A    between atoms: P_18  and  O_19
REMARK    6  A    between atoms: P_18  and  O_21
REMARK    7  A    between atoms: O_21  and  P_22
REMARK    8  A    between atoms: P_22  and  O_23
REMARK    9  A    between atoms: P_22  and  O_25
REMARK   10  A    between atoms: O_25  and  P_26
REMARK   11  A    between atoms: P_26  and  O_27
REMARK   12  A    between atoms: P_26  and  O_29
REMARK   13  A    between atoms: O_29  and  P_30
REMARK   14  A    between atoms: P_30  and  O_31
REMARK   15  A    between atoms: P_30  and  O_33
REMARK   16  A    between atoms: O_33  and  P_34
REMARK   17  A    between atoms: P_34  and  O_35
REMARK   18  A    between atoms: P_34  and  O_37
REMARK   19  A    between atoms: O_37  and  C_38
REMARK   20  A    between atoms: C_38  and  C_39
REMARK   21  A    between atoms: C_42  and  N_50
REMARK   22  A    between atoms: C_44  and  O_46
REMARK   23  A    between atoms: C_47  and  O_49
REMARK   24  A    between atoms: C_60  and  O_62
REMARK   25  A    between atoms: C_63  and  O_65
REMARK                            x       y       z     vdW  Elec       q    Type
REMARK                         _______ _______ _______ _____ _____    ______ ____
ROOT
ATOM      1  P   UNL     1       8.634  -1.168  25.704  0.00  0.00    +0.492 P 
ATOM      2  O   UNL     1       8.926  -2.355  26.626  0.00  0.00    -0.226 OA
ENDROOT
BRANCH   1   3
ATOM      3  O   UNL     1       9.697   0.018  26.095  0.00  0.00    -0.302 OA
ATOM      4  H   UNL     1      10.498  -0.378  26.500  0.00  0.00    +0.222 HD
ENDBRANCH   1   3
BRANCH   1   5
ATOM      5  O   UNL     1       9.711  -1.813  24.512  0.00  0.00    -0.186 OA
BRANCH   5   6
ATOM      6  P   UNL     1       9.283  -1.124  22.984  0.00  0.00    +0.492 P 
ATOM      7  O   UNL     1      10.385  -1.485  21.973  0.00  0.00    -0.226 OA
BRANCH   6   8
ATOM      8  O   UNL     1       8.456  -2.582  22.558  0.00  0.00    -0.302 OA
ATOM      9  H   UNL     1       7.591  -2.598  23.011  0.00  0.00    +0.222 HD
ENDBRANCH   6   8
BRANCH   6  10
ATOM     10  O   UNL     1      10.110   0.334  23.409  0.00  0.00    -0.186 OA
BRANCH  10  11
ATOM     11  P   UNL     1       9.227   1.695  22.809  0.00  0.00    +0.483 P 
ATOM     12  O   UNL     1       8.098   0.750  22.399  0.00  0.00    -0.227 OA
BRANCH  11  13
ATOM     13  O   UNL     1      10.207   1.759  21.514  0.00  0.00    -0.302 OA
ATOM     14  H   UNL     1      10.365   0.853  21.187  0.00  0.00    +0.222 HD
ENDBRANCH  11  13
BRANCH  11  15
ATOM     15  O   UNL     1       8.344   3.055  22.208  0.00  0.00    -0.284 OA
BRANCH  15  16
ATOM     16  C   UNL     1       6.976   2.769  21.921  0.00  0.00    +0.206 C 
BRANCH  16  17
ATOM     17  C   UNL     1       6.053   3.913  22.348  0.00  0.00    +0.178 C 
ATOM     18  C   UNL     1       4.609   3.480  22.586  0.00  0.00    +0.178 C 
ATOM     19  C   UNL     1       4.483   3.306  24.098  0.00  0.00    +0.195 C 
ATOM     20  C   UNL     1       5.865   3.703  24.641  0.00  0.00    +0.253 C 
ATOM     21  O   UNL     1       6.503   4.469  23.598  0.00  0.00    -0.346 OA
BRANCH  20  22
ATOM     22  N   UNL     1       5.800   4.495  25.852  0.00  0.00    -0.286 N 
ATOM     23  C   UNL     1       6.258   4.080  27.074  0.00  0.00    +0.167 A 
ATOM     24  N   UNL     1       6.824   2.899  27.381  0.00  0.00    -0.216 NA
ATOM     25  C   UNL     1       7.142   2.859  28.695  0.00  0.00    +0.225 A 
ATOM     26  N   UNL     1       6.933   3.801  29.640  0.00  0.00    -0.219 NA
ATOM     27  C   UNL     1       6.331   4.955  29.275  0.00  0.00    +0.147 A 
ATOM     28  N   UNL     1       6.090   5.915  30.252  0.00  0.00    -0.341 N 
ATOM     29  H   UNL     1       5.962   6.850  29.880  0.00  0.00    +0.144 HD
ATOM     30  H   UNL     1       6.684   5.803  31.061  0.00  0.00    +0.144 HD
ATOM     31  C   UNL     1       5.990   5.138  27.927  0.00  0.00    +0.147 A 
ATOM     32  N   UNL     1       5.425   6.192  27.239  0.00  0.00    -0.231 NA
ATOM     33  C   UNL     1       5.346   5.776  25.992  0.00  0.00    +0.203 A 
ENDBRANCH  20  22
BRANCH  19  34
ATOM     34  O   UNL     1       4.142   1.958  24.425  0.00  0.00    -0.385 OA
ATOM     35  H   UNL     1       3.195   1.846  24.200  0.00  0.00    +0.210 HD
ENDBRANCH  19  34
BRANCH  18  36
ATOM     36  O   UNL     1       3.729   4.526  22.141  0.00  0.00    -0.386 OA
ATOM     37  H   UNL     1       2.822   4.320  22.435  0.00  0.00    +0.210 HD
ENDBRANCH  18  36
ENDBRANCH  16  17
ENDBRANCH  15  16
ENDBRANCH  11  15
ENDBRANCH  10  11
ENDBRANCH   6  10
ENDBRANCH   5   6
ENDBRANCH   1   5
BRANCH   1  38
ATOM     38  O   UNL     1       7.558  -0.525  26.895  0.00  0.00    -0.186 OA
BRANCH  38  39
ATOM     39  P   UNL     1       5.928  -0.661  26.333  0.00  0.00    +0.492 P 
ATOM     40  O   UNL     1       6.282   0.236  25.135  0.00  0.00    -0.226 OA
BRANCH  39  41
ATOM     41  O   UNL     1       6.163  -2.176  25.751  0.00  0.00    -0.302 OA
ATOM     42  H   UNL     1       6.799  -2.136  24.983  0.00  0.00    +0.222 HD
ENDBRANCH  39  41
BRANCH  39  43
ATOM     43  O   UNL     1       4.298  -0.797  25.771  0.00  0.00    -0.186 OA
BRANCH  43  44
ATOM     44  P   UNL     1       3.218  -0.781  27.123  0.00  0.00    +0.483 P 
ATOM     45  O   UNL     1       2.679   0.591  26.732  0.00  0.00    -0.227 OA
BRANCH  44  46
ATOM     46  O   UNL     1       2.138  -0.767  28.474  0.00  0.00    -0.302 OA
ATOM     47  H   UNL     1       1.835   0.164  28.514  0.00  0.00    +0.222 HD
ENDBRANCH  44  46
BRANCH  44  48
ATOM     48  O   UNL     1       2.282  -1.943  26.413  0.00  0.00    -0.284 OA
BRANCH  48  49
ATOM     49  C   UNL     1       2.059  -3.036  27.285  0.00  0.00    +0.206 C 
BRANCH  49  53
ATOM     50  C   UNL     1       4.062  -5.997  27.209  0.00  0.00    +0.253 C 
ATOM     51  C   UNL     1       3.523  -6.023  28.644  0.00  0.00    +0.195 C 
ATOM     52  C   UNL     1       3.287  -4.551  28.994  0.00  0.00    +0.178 C 
ATOM     53  C   UNL     1       3.301  -3.840  27.636  0.00  0.00    +0.178 C 
ATOM     54  O   UNL     1       3.376  -4.869  26.623  0.00  0.00    -0.346 OA
BRANCH  50  62
ATOM     55  N   UNL     1       9.664  -4.956  25.159  0.00  0.00    -0.341 N 
ATOM     56  H   UNL     1       9.915  -4.647  26.091  0.00  0.00    +0.144 HD
ATOM     57  H   UNL     1      10.058  -4.454  24.374  0.00  0.00    +0.144 HD
ATOM     58  C   UNL     1       8.301  -5.183  25.001  0.00  0.00    +0.147 A 
ATOM     59  C   UNL     1       7.427  -5.423  26.071  0.00  0.00    +0.147 A 
ATOM     60  N   UNL     1       7.628  -5.490  27.435  0.00  0.00    -0.231 NA
ATOM     61  C   UNL     1       6.433  -5.722  27.934  0.00  0.00    +0.203 A 
ATOM     62  N   UNL     1       5.473  -5.837  26.954  0.00  0.00    -0.286 N 
ATOM     63  C   UNL     1       6.092  -5.607  25.757  0.00  0.00    +0.167 A 
ATOM     64  N   UNL     1       5.531  -5.556  24.541  0.00  0.00    -0.216 NA
ATOM     65  C   UNL     1       6.465  -5.327  23.592  0.00  0.00    +0.225 A 
ATOM     66  N   UNL     1       7.785  -5.135  23.748  0.00  0.00    -0.219 NA
ENDBRANCH  50  62
BRANCH  52  67
ATOM     67  O   UNL     1       4.356  -4.083  29.813  0.00  0.00    -0.386 OA
ATOM     68  H   UNL     1       4.101  -3.213  30.172  0.00  0.00    +0.210 HD
ENDBRANCH  52  67
BRANCH  51  69
ATOM     69  O   UNL     1       2.252  -6.715  28.661  0.00  0.00    -0.385 OA
ATOM     70  H   UNL     1       2.402  -7.619  28.989  0.00  0.00    +0.210 HD
ENDBRANCH  51  69
ENDBRANCH  49  53
ENDBRANCH  48  49
ENDBRANCH  44  48
ENDBRANCH  43  44
ENDBRANCH  39  43
ENDBRANCH  38  39
ENDBRANCH   1  38
TORSDOF 25
ENDMDL
MODEL 8
REMARK VINA RESULT:      -5.6      3.808      7.746
REMARK  Name = 
REMARK  25 active torsions:
REMARK  status: ('A' for Active; 'I' for Inactive)
REMARK    1  A    between atoms: N_10  and  C_11
REMARK    2  A    between atoms: C_14  and  C_16
REMARK    3  A    between atoms: C_16  and  O_17
REMARK    4  A    between atoms: O_17  and  P_18
REMARK    5  A    between atoms: P_18  and  O_19
REMARK    6  A    between atoms: P_18  and  O_21
REMARK    7  A    between atoms: O_21  and  P_22
REMARK    8  A    between atoms: P_22  and  O_23
REMARK    9  A    between atoms: P_22  and  O_25
REMARK   10  A    between atoms: O_25  and  P_26
REMARK   11  A    between atoms: P_26  and  O_27
REMARK   12  A    between atoms: P_26  and  O_29
REMARK   13  A    between atoms: O_29  and  P_30
REMARK   14  A    between atoms: P_30  and  O_31
REMARK   15  A    between atoms: P_30  and  O_33
REMARK   16  A    between atoms: O_33  and  P_34
REMARK   17  A    between atoms: P_34  and  O_35
REMARK   18  A    between atoms: P_34  and  O_37
REMARK   19  A    between atoms: O_37  and  C_38
REMARK   20  A    between atoms: C_38  and  C_39
REMARK   21  A    between atoms: C_42  and  N_50
REMARK   22  A    between atoms: C_44  and  O_46
REMARK   23  A    between atoms: C_47  and  O_49
REMARK   24  A    between atoms: C_60  and  O_62
REMARK   25  A    between atoms: C_63  and  O_65
REMARK                            x       y       z     vdW  Elec       q    Type
REMARK                         _______ _______ _______ _____ _____    ______ ____
ROOT
ATOM      1  P   UNL     1       5.041  -4.000  27.613  0.00  0.00    +0.492 P 
ATOM      2  O   UNL     1       4.568  -3.155  28.799  0.00  0.00    -0.226 OA
ENDROOT
BRANCH   1   3
ATOM      3  O   UNL     1       6.619  -4.359  27.876  0.00  0.00    -0.302 OA
ATOM      4  H   UNL     1       7.025  -4.690  27.046  0.00  0.00    +0.222 HD
ENDBRANCH   1   3
BRANCH   1   5
ATOM      5  O   UNL     1       4.524  -5.442  28.419  0.00  0.00    -0.186 OA
BRANCH   5   6
ATOM      6  P   UNL     1       4.608  -6.743  27.282  0.00  0.00    +0.492 P 
ATOM      7  O   UNL     1       5.932  -6.616  26.508  0.00  0.00    -0.226 OA
BRANCH   6   8
ATOM      8  O   UNL     1       5.421  -7.718  28.456  0.00  0.00    -0.302 OA
ATOM      9  H   UNL     1       6.150  -8.198  28.017  0.00  0.00    +0.222 HD
ENDBRANCH   6   8
BRANCH   6  10
ATOM     10  O   UNL     1       3.794  -5.768  26.106  0.00  0.00    -0.186 OA
BRANCH  10  11
ATOM     11  P   UNL     1       4.461  -6.075  24.541  0.00  0.00    +0.483 P 
ATOM     12  O   UNL     1       3.432  -5.117  23.942  0.00  0.00    -0.227 OA
BRANCH  11  13
ATOM     13  O   UNL     1       3.739  -7.530  24.519  0.00  0.00    -0.302 OA
ATOM     14  H   UNL     1       4.200  -8.127  25.138  0.00  0.00    +0.222 HD
ENDBRANCH  11  13
BRANCH  11  15
ATOM     15  O   UNL     1       5.129  -6.382  22.975  0.00  0.00    -0.284 OA
BRANCH  15  16
ATOM     16  C   UNL     1       6.535  -6.150  22.896  0.00  0.00    +0.206 C 
BRANCH  16  17
ATOM     17  C   UNL     1       6.883  -5.130  21.809  0.00  0.00    +0.178 C 
ATOM     18  C   UNL     1       5.750  -4.159  21.491  0.00  0.00    +0.178 C 
ATOM     19  C   UNL     1       6.077  -2.888  22.271  0.00  0.00    +0.195 C 
ATOM     20  C   UNL     1       7.418  -3.196  22.954  0.00  0.00    +0.253 C 
ATOM     21  O   UNL     1       7.988  -4.311  22.237  0.00  0.00    -0.346 OA
BRANCH  20  22
ATOM     22  N   UNL     1       8.343  -2.082  22.931  0.00  0.00    -0.286 N 
ATOM     23  C   UNL     1       8.756  -1.397  24.043  0.00  0.00    +0.167 A 
ATOM     24  N   UNL     1       8.391  -1.606  25.320  0.00  0.00    -0.216 NA
ATOM     25  C   UNL     1       9.009  -0.723  26.136  0.00  0.00    +0.225 A 
ATOM     26  N   UNL     1       9.859   0.274  25.806  0.00  0.00    -0.219 NA
ATOM     27  C   UNL     1      10.164   0.453  24.501  0.00  0.00    +0.147 A 
ATOM     28  N   UNL     1      11.017   1.497  24.157  0.00  0.00    -0.341 N 
ATOM     29  H   UNL     1      11.463   1.376  23.255  0.00  0.00    +0.144 HD
ATOM     30  H   UNL     1      11.587   1.804  24.932  0.00  0.00    +0.144 HD
ATOM     31  C   UNL     1       9.619  -0.428  23.557  0.00  0.00    +0.147 A 
ATOM     32  N   UNL     1       9.767  -0.544  22.190  0.00  0.00    -0.231 NA
ATOM     33  C   UNL     1       9.002  -1.562  21.854  0.00  0.00    +0.203 A 
ENDBRANCH  20  22
BRANCH  19  34
ATOM     34  O   UNL     1       5.044  -2.594  23.215  0.00  0.00    -0.385 OA
ATOM     35  H   UNL     1       5.258  -1.721  23.602  0.00  0.00    +0.210 HD
ENDBRANCH  19  34
BRANCH  18  36
ATOM     36  O   UNL     1       5.755  -3.881  20.080  0.00  0.00    -0.386 OA
ATOM     37  H   UNL     1       6.560  -3.375  19.864  0.00  0.00    +0.210 HD
ENDBRANCH  18  36
ENDBRANCH  16  17
ENDBRANCH  15  16
ENDBRANCH  11  15
ENDBRANCH  10  11
ENDBRANCH   6  10
ENDBRANCH   5   6
ENDBRANCH   1   5
BRANCH   1  38
ATOM     38  O   UNL     1       5.557  -2.559  26.808  0.00  0.00    -0.186 OA
BRANCH  38  39
ATOM     39  P   UNL     1       4.217  -1.476  26.649  0.00  0.00    +0.492 P 
ATOM     40  O   UNL     1       4.926  -0.797  25.466  0.00  0.00    -0.226 OA
BRANCH  39  41
ATOM     41  O   UNL     1       3.276  -2.609  25.925  0.00  0.00    -0.302 OA
ATOM     42  H   UNL     1       3.758  -3.483  25.926  0.00  0.00    +0.222 HD
ENDBRANCH  39  41
BRANCH  39  43
ATOM     43  O   UNL     1       2.877  -0.394  26.490  0.00  0.00    -0.186 OA
BRANCH  43  44
ATOM     44  P   UNL     1       2.282   0.023  28.060  0.00  0.00    +0.483 P 
ATOM     45  O   UNL     1       1.982  -1.438  28.382  0.00  0.00    -0.227 OA
BRANCH  44  46
ATOM     46  O   UNL     1       1.688   0.441  29.630  0.00  0.00    -0.302 OA
ATOM     47  H   UNL     1       1.024   1.138  29.445  0.00  0.00    +0.222 HD
ENDBRANCH  44  46
BRANCH  44  48
ATOM     48  O   UNL     1       3.815   0.376  28.567  0.00  0.00    -0.284 OA
BRANCH  48  49
ATOM     49  C   UNL     1       3.935   1.735  28.948  0.00  0.00    +0.206 C 
BRANCH  49  53
ATOM     50  C   UNL     1       7.115   2.277  27.407  0.00  0.00    +0.253 C 
ATOM     51  C   UNL     1       7.183   3.235  28.603  0.00  0.00    +0.195 C 
ATOM     52  C   UNL     1       5.724   3.611  28.878  0.00  0.00    +0.178 C 
ATOM     53  C   UNL     1       4.918   2.548  28.121  0.00  0.00    +0.178 C 
ATOM     54  O   UNL     1       5.866   1.582  27.614  0.00  0.00    -0.346 OA
BRANCH  50  62
ATOM     55  N   UNL     1       7.815   5.167  22.132  0.00  0.00    -0.341 N 
ATOM     56  H   UNL     1       7.800   4.266  21.670  0.00  0.00    +0.144 HD
ATOM     57  H   UNL     1       8.455   5.867  21.778  0.00  0.00    +0.144 HD
ATOM     58  C   UNL     1       7.859   5.077  23.519  0.00  0.00    +0.147 A 
ATOM     59  C   UNL     1       7.460   3.938  24.233  0.00  0.00    +0.147 A 
ATOM     60  N   UNL     1       6.972   2.712  23.827  0.00  0.00    -0.231 NA
ATOM     61  C   UNL     1       6.795   2.039  24.944  0.00  0.00    +0.203 A 
ATOM     62  N   UNL     1       7.120   2.784  26.056  0.00  0.00    -0.286 N 
ATOM     63  C   UNL     1       7.585   3.989  25.611  0.00  0.00    +0.167 A 
ATOM     64  N   UNL     1       8.072   5.001  26.343  0.00  0.00    -0.216 NA
ATOM     65  C   UNL     1       8.415   6.041  25.553  0.00  0.00    +0.225 A 
ATOM     66  N   UNL     1       8.346   6.134  24.215  0.00  0.00    -0.219 NA
ENDBRANCH  50  62
BRANCH  52  67
ATOM     67  O   UNL     1       5.462   4.907  28.345  0.00  0.00    -0.386 OA
ATOM     68  H   UNL     1       5.660   4.884  27.390  0.00  0.00    +0.210 HD
ENDBRANCH  52  67
BRANCH  51  69
ATOM     69  O   UNL     1       7.703   2.523  29.751  0.00  0.00    -0.385 OA
ATOM     70  H   UNL     1       8.645   2.750  29.848  0.00  0.00    +0.210 HD
ENDBRANCH  51  69
ENDBRANCH  49  53
ENDBRANCH  48  49
ENDBRANCH  44  48
ENDBRANCH  43  44
ENDBRANCH  39  43
ENDBRANCH  38  39
ENDBRANCH   1  38
TORSDOF 25
ENDMDL
MODEL 9
REMARK VINA RESULT:      -5.6      3.480      8.555
REMARK  Name = 
REMARK  25 active torsions:
REMARK  status: ('A' for Active; 'I' for Inactive)
REMARK    1  A    between atoms: N_10  and  C_11
REMARK    2  A    between atoms: C_14  and  C_16
REMARK    3  A    between atoms: C_16  and  O_17
REMARK    4  A    between atoms: O_17  and  P_18
REMARK    5  A    between atoms: P_18  and  O_19
REMARK    6  A    between atoms: P_18  and  O_21
REMARK    7  A    between atoms: O_21  and  P_22
REMARK    8  A    between atoms: P_22  and  O_23
REMARK    9  A    between atoms: P_22  and  O_25
REMARK   10  A    between atoms: O_25  and  P_26
REMARK   11  A    between atoms: P_26  and  O_27
REMARK   12  A    between atoms: P_26  and  O_29
REMARK   13  A    between atoms: O_29  and  P_30
REMARK   14  A    between atoms: P_30  and  O_31
REMARK   15  A    between atoms: P_30  and  O_33
REMARK   16  A    between atoms: O_33  and  P_34
REMARK   17  A    between atoms: P_34  and  O_35
REMARK   18  A    between atoms: P_34  and  O_37
REMARK   19  A    between atoms: O_37  and  C_38
REMARK   20  A    between atoms: C_38  and  C_39
REMARK   21  A    between atoms: C_42  and  N_50
REMARK   22  A    between atoms: C_44  and  O_46
REMARK   23  A    between atoms: C_47  and  O_49
REMARK   24  A    between atoms: C_60  and  O_62
REMARK   25  A    between atoms: C_63  and  O_65
REMARK                            x       y       z     vdW  Elec       q    Type
REMARK                         _______ _______ _______ _____ _____    ______ ____
ROOT
ATOM      1  P   UNL     1       3.942  -0.725  27.363  0.00  0.00    +0.492 P 
ATOM      2  O   UNL     1       3.636  -1.318  25.984  0.00  0.00    -0.226 OA
ENDROOT
BRANCH   1   3
ATOM      3  O   UNL     1       5.359  -1.380  27.865  0.00  0.00    -0.302 OA
ATOM      4  H   UNL     1       5.449  -1.265  28.836  0.00  0.00    +0.222 HD
ENDBRANCH   1   3
BRANCH   1   5
ATOM      5  O   UNL     1       4.760   0.607  26.621  0.00  0.00    -0.186 OA
BRANCH   5   6
ATOM      6  P   UNL     1       5.084   1.781  27.851  0.00  0.00    +0.492 P 
ATOM      7  O   UNL     1       4.548   1.234  29.185  0.00  0.00    -0.226 OA
BRANCH   6   8
ATOM      8  O   UNL     1       6.601   1.018  28.181  0.00  0.00    -0.302 OA
ATOM      9  H   UNL     1       7.301   1.478  27.680  0.00  0.00    +0.222 HD
ENDBRANCH   6   8
BRANCH   6  10
ATOM     10  O   UNL     1       3.567   2.545  27.521  0.00  0.00    -0.186 OA
BRANCH  10  11
ATOM     11  P   UNL     1       3.469   2.931  25.838  0.00  0.00    +0.483 P 
ATOM     12  O   UNL     1       2.971   4.326  26.212  0.00  0.00    -0.227 OA
BRANCH  11  13
ATOM     13  O   UNL     1       2.124   2.029  25.709  0.00  0.00    -0.302 OA
ATOM     14  H   UNL     1       1.867   1.709  26.595  0.00  0.00    +0.222 HD
ENDBRANCH  11  13
BRANCH  11  15
ATOM     15  O   UNL     1       3.373   3.317  24.155  0.00  0.00    -0.284 OA
BRANCH  15  16
ATOM     16  C   UNL     1       4.512   2.900  23.405  0.00  0.00    +0.206 C 
BRANCH  16  17
ATOM     17  C   UNL     1       5.131   4.058  22.617  0.00  0.00    +0.178 C 
ATOM     18  C   UNL     1       4.609   5.431  23.033  0.00  0.00    +0.178 C 
ATOM     19  C   UNL     1       5.668   5.995  23.978  0.00  0.00    +0.195 C 
ATOM     20  C   UNL     1       6.764   4.920  24.006  0.00  0.00    +0.253 C 
ATOM     21  O   UNL     1       6.553   4.100  22.837  0.00  0.00    -0.346 OA
BRANCH  20  22
ATOM     22  N   UNL     1       8.105   5.466  23.978  0.00  0.00    -0.286 N 
ATOM     23  C   UNL     1       9.237   4.728  23.749  0.00  0.00    +0.167 A 
ATOM     24  N   UNL     1       9.323   3.405  23.526  0.00  0.00    -0.216 NA
ATOM     25  C   UNL     1      10.614   3.043  23.347  0.00  0.00    +0.225 A 
ATOM     26  N   UNL     1      11.719   3.818  23.397  0.00  0.00    -0.219 NA
ATOM     27  C   UNL     1      11.569   5.137  23.656  0.00  0.00    +0.147 A 
ATOM     28  N   UNL     1      12.708   5.931  23.735  0.00  0.00    -0.341 N 
ATOM     29  H   UNL     1      12.525   6.918  23.591  0.00  0.00    +0.144 HD
ATOM     30  H   UNL     1      13.501   5.520  23.262  0.00  0.00    +0.144 HD
ATOM     31  C   UNL     1      10.272   5.645  23.818  0.00  0.00    +0.147 A 
ATOM     32  N   UNL     1       9.787   6.919  24.038  0.00  0.00    -0.231 NA
ATOM     33  C   UNL     1       8.481   6.773  24.107  0.00  0.00    +0.203 A 
ENDBRANCH  20  22
BRANCH  19  34
ATOM     34  O   UNL     1       5.112   6.234  25.274  0.00  0.00    -0.385 OA
ATOM     35  H   UNL     1       4.467   6.963  25.172  0.00  0.00    +0.210 HD
ENDBRANCH  19  34
BRANCH  18  36
ATOM     36  O   UNL     1       4.505   6.264  21.866  0.00  0.00    -0.386 OA
ATOM     37  H   UNL     1       4.084   7.106  22.118  0.00  0.00    +0.210 HD
ENDBRANCH  18  36
ENDBRANCH  16  17
ENDBRANCH  15  16
ENDBRANCH  11  15
ENDBRANCH  10  11
ENDBRANCH   6  10
ENDBRANCH   5   6
ENDBRANCH   1   5
BRANCH   1  38
ATOM     38  O   UNL     1       3.123  -2.056  28.102  0.00  0.00    -0.186 OA
BRANCH  38  39
ATOM     39  P   UNL     1       3.492  -3.510  27.241  0.00  0.00    +0.492 P 
ATOM     40  O   UNL     1       4.279  -4.016  28.461  0.00  0.00    -0.226 OA
BRANCH  39  41
ATOM     41  O   UNL     1       1.992  -4.133  27.476  0.00  0.00    -0.302 OA
ATOM     42  H   UNL     1       1.378  -3.404  27.772  0.00  0.00    +0.222 HD
ENDBRANCH  39  41
BRANCH  39  43
ATOM     43  O   UNL     1       3.860  -4.964  26.379  0.00  0.00    -0.186 OA
BRANCH  43  44
ATOM     44  P   UNL     1       4.205  -6.232  27.505  0.00  0.00    +0.483 P 
ATOM     45  O   UNL     1       3.117  -7.118  26.907  0.00  0.00    -0.227 OA
BRANCH  44  46
ATOM     46  O   UNL     1       4.550  -7.498  28.631  0.00  0.00    -0.302 OA
ATOM     47  H   UNL     1       4.738  -8.270  28.057  0.00  0.00    +0.222 HD
ENDBRANCH  44  46
BRANCH  44  48
ATOM     48  O   UNL     1       5.634  -6.550  26.739  0.00  0.00    -0.284 OA
BRANCH  48  49
ATOM     49  C   UNL     1       6.721  -5.910  27.381  0.00  0.00    +0.206 C 
BRANCH  49  53
ATOM     50  C   UNL     1       8.081  -4.559  24.363  0.00  0.00    +0.253 C 
ATOM     51  C   UNL     1       9.351  -4.870  25.164  0.00  0.00    +0.195 C 
ATOM     52  C   UNL     1       8.920  -4.760  26.629  0.00  0.00    +0.178 C 
ATOM     53  C   UNL     1       7.389  -4.811  26.570  0.00  0.00    +0.178 C 
ATOM     54  O   UNL     1       7.029  -5.091  25.198  0.00  0.00    -0.346 OA
BRANCH  50  62
ATOM     55  N   UNL     1       7.489   1.102  22.293  0.00  0.00    -0.341 N 
ATOM     56  H   UNL     1       6.484   0.977  22.326  0.00  0.00    +0.144 HD
ATOM     57  H   UNL     1       7.873   1.624  21.516  0.00  0.00    +0.144 HD
ATOM     58  C   UNL     1       8.200  -0.069  22.535  0.00  0.00    +0.147 A 
ATOM     59  C   UNL     1       7.660  -1.178  23.202  0.00  0.00    +0.147 A 
ATOM     60  N   UNL     1       6.413  -1.418  23.745  0.00  0.00    -0.231 NA
ATOM     61  C   UNL     1       6.488  -2.643  24.218  0.00  0.00    +0.203 A 
ATOM     62  N   UNL     1       7.735  -3.197  24.031  0.00  0.00    -0.286 N 
ATOM     63  C   UNL     1       8.483  -2.282  23.345  0.00  0.00    +0.167 A 
ATOM     64  N   UNL     1       9.736  -2.421  22.893  0.00  0.00    -0.216 NA
ATOM     65  C   UNL     1      10.152  -1.294  22.277  0.00  0.00    +0.225 A 
ATOM     66  N   UNL     1       9.470  -0.155  22.069  0.00  0.00    -0.219 NA
ENDBRANCH  50  62
BRANCH  52  67
ATOM     67  O   UNL     1       9.356  -3.509  27.157  0.00  0.00    -0.386 OA
ATOM     68  H   UNL     1       8.565  -2.982  27.374  0.00  0.00    +0.210 HD
ENDBRANCH  52  67
BRANCH  51  69
ATOM     69  O   UNL     1       9.755  -6.235  24.900  0.00  0.00    -0.385 OA
ATOM     70  H   UNL     1      10.087  -6.282  23.986  0.00  0.00    +0.210 HD
ENDBRANCH  51  69
ENDBRANCH  49  53
ENDBRANCH  48  49
ENDBRANCH  44  48
ENDBRANCH  43  44
ENDBRANCH  39  43
ENDBRANCH  38  39
ENDBRANCH   1  38
TORSDOF 25
ENDMDL
