MODEL 1
REMARK VINA RESULT:      -7.5      0.000      0.000
REMARK  Name = 
REMARK  1 active torsions:
REMARK  status: ('A' for Active; 'I' for Inactive)
REMARK    1  A    between atoms: C_1  and  C_2
REMARK                            x       y       z     vdW  Elec       q    Type
REMARK                         _______ _______ _______ _____ _____    ______ ____
ROOT
ATOM      1  C   UNL     1      10.804   0.359  24.691  0.00  0.00    +0.019 C 
ATOM      2  C   UNL     1       9.422   0.841  24.191  0.00  0.00    +0.029 C 
ATOM      3  C   UNL     1       9.631   2.145  23.466  0.00  0.00    +0.139 C 
ATOM      4  O   UNL     1       9.456   3.261  23.944  0.00  0.00    -0.297 OA
ATOM      5  C   UNL     1      10.077   1.887  22.039  0.00  0.00    +0.075 C 
ATOM      6  C   UNL     1       9.805   0.371  21.868  0.00  0.00    +0.012 C 
ATOM      7  C   UNL     1       8.830   0.040  23.010  0.00  0.00    +0.006 C 
ATOM      8  C   UNL     1       8.533  -1.423  23.413  0.00  0.00    -0.004 C 
ATOM      9  C   UNL     1       7.704  -2.187  22.360  0.00  0.00    +0.004 C 
ATOM     10  C   UNL     1       7.442  -3.647  22.778  0.00  0.00    +0.004 C 
ATOM     11  C   UNL     1       6.922  -3.826  24.225  0.00  0.00    -0.001 C 
ATOM     12  C   UNL     1       7.701  -2.958  25.237  0.00  0.00    -0.004 C 
ATOM     13  C   UNL     1       7.094  -3.136  26.640  0.00  0.00    +0.011 C 
ATOM     14  C   UNL     1       7.174  -4.583  27.103  0.00  0.00    +0.074 C 
ATOM     15  C   UNL     1       6.559  -5.508  26.079  0.00  0.00    +0.134 C 
ATOM     16  O   UNL     1       5.886  -6.478  26.430  0.00  0.00    -0.297 OA
ATOM     17  C   UNL     1       6.964  -5.305  24.632  0.00  0.00    +0.078 C 
ATOM     18  C   UNL     1       7.713  -1.488  24.746  0.00  0.00    -0.004 C 
ATOM     19  C   UNL     1       8.149  -0.507  25.848  0.00  0.00    +0.005 C 
ATOM     20  C   UNL     1       8.412   0.895  25.320  0.00  0.00    +0.015 C 
ENDROOT
TORSDOF 0
ENDMDL
MODEL 2
REMARK VINA RESULT:      -7.3      1.152      6.306
REMARK  Name = 
REMARK  1 active torsions:
REMARK  status: ('A' for Active; 'I' for Inactive)
REMARK    1  A    between atoms: C_1  and  C_2
REMARK                            x       y       z     vdW  Elec       q    Type
REMARK                         _______ _______ _______ _____ _____    ______ ____
ROOT
ATOM      1  C   UNL     1       5.458  -2.738  24.120  0.00  0.00    +0.019 C 
ATOM      2  C   UNL     1       6.835  -3.379  24.406  0.00  0.00    +0.029 C 
ATOM      3  C   UNL     1       6.644  -4.873  24.437  0.00  0.00    +0.139 C 
ATOM      4  O   UNL     1       6.510  -5.552  25.449  0.00  0.00    -0.297 OA
ATOM      5  C   UNL     1       6.656  -5.433  23.028  0.00  0.00    +0.075 C 
ATOM      6  C   UNL     1       7.188  -4.240  22.193  0.00  0.00    +0.012 C 
ATOM      7  C   UNL     1       7.846  -3.323  23.238  0.00  0.00    +0.006 C 
ATOM      8  C   UNL     1       8.234  -1.867  22.896  0.00  0.00    -0.004 C 
ATOM      9  C   UNL     1       9.428  -1.769  21.924  0.00  0.00    +0.004 C 
ATOM     10  C   UNL     1       9.779  -0.307  21.585  0.00  0.00    +0.004 C 
ATOM     11  C   UNL     1       9.897   0.635  22.808  0.00  0.00    -0.001 C 
ATOM     12  C   UNL     1       8.747   0.428  23.817  0.00  0.00    -0.004 C 
ATOM     13  C   UNL     1       8.960   1.347  25.033  0.00  0.00    +0.011 C 
ATOM     14  C   UNL     1       8.972   2.813  24.629  0.00  0.00    +0.074 C 
ATOM     15  C   UNL     1       9.979   3.058  23.529  0.00  0.00    +0.134 C 
ATOM     16  O   UNL     1      10.665   4.080  23.519  0.00  0.00    -0.297 OA
ATOM     17  C   UNL     1       9.966   2.099  22.354  0.00  0.00    +0.078 C 
ATOM     18  C   UNL     1       8.652  -1.075  24.182  0.00  0.00    -0.004 C 
ATOM     19  C   UNL     1       7.786  -1.321  25.429  0.00  0.00    +0.005 C 
ATOM     20  C   UNL     1       7.472  -2.793  25.651  0.00  0.00    +0.015 C 
ENDROOT
TORSDOF 0
ENDMDL
MODEL 3
REMARK VINA RESULT:      -7.3      1.704      3.308
REMARK  Name = 
REMARK  1 active torsions:
REMARK  status: ('A' for Active; 'I' for Inactive)
REMARK    1  A    between atoms: C_1  and  C_2
REMARK                            x       y       z     vdW  Elec       q    Type
REMARK                         _______ _______ _______ _____ _____    ______ ____
ROOT
ATOM      1  C   UNL     1       7.473  -0.054  23.446  0.00  0.00    +0.019 C 
ATOM      2  C   UNL     1       8.728  -0.956  23.394  0.00  0.00    +0.029 C 
ATOM      3  C   UNL     1       9.935  -0.055  23.392  0.00  0.00    +0.139 C 
ATOM      4  O   UNL     1      10.568   0.284  22.398  0.00  0.00    -0.297 OA
ATOM      5  C   UNL     1      10.277   0.369  24.808  0.00  0.00    +0.075 C 
ATOM      6  C   UNL     1       9.410  -0.587  25.666  0.00  0.00    +0.012 C 
ATOM      7  C   UNL     1       9.044  -1.724  24.697  0.00  0.00    +0.006 C 
ATOM      8  C   UNL     1       7.931  -2.741  25.037  0.00  0.00    -0.004 C 
ATOM      9  C   UNL     1       8.321  -3.711  26.173  0.00  0.00    +0.004 C 
ATOM     10  C   UNL     1       7.185  -4.698  26.504  0.00  0.00    +0.004 C 
ATOM     11  C   UNL     1       6.555  -5.402  25.278  0.00  0.00    -0.001 C 
ATOM     12  C   UNL     1       6.286  -4.421  24.117  0.00  0.00    -0.004 C 
ATOM     13  C   UNL     1       5.720  -5.194  22.912  0.00  0.00    +0.011 C 
ATOM     14  C   UNL     1       4.410  -5.884  23.257  0.00  0.00    +0.074 C 
ATOM     15  C   UNL     1       4.568  -6.751  24.485  0.00  0.00    +0.134 C 
ATOM     16  O   UNL     1       4.011  -7.847  24.558  0.00  0.00    -0.297 OA
ATOM     17  C   UNL     1       5.268  -6.135  25.681  0.00  0.00    +0.078 C 
ATOM     18  C   UNL     1       7.583  -3.636  23.799  0.00  0.00    -0.004 C 
ATOM     19  C   UNL     1       7.510  -2.907  22.447  0.00  0.00    +0.005 C 
ATOM     20  C   UNL     1       8.660  -1.933  22.237  0.00  0.00    +0.015 C 
ENDROOT
TORSDOF 0
ENDMDL
MODEL 4
REMARK VINA RESULT:      -7.3      1.675      6.677
REMARK  Name = 
REMARK  1 active torsions:
REMARK  status: ('A' for Active; 'I' for Inactive)
REMARK    1  A    between atoms: C_1  and  C_2
REMARK                            x       y       z     vdW  Elec       q    Type
REMARK                         _______ _______ _______ _____ _____    ______ ____
ROOT
ATOM      1  C   UNL     1       7.131  -5.615  22.612  0.00  0.00    +0.019 C 
ATOM      2  C   UNL     1       5.952  -4.776  23.155  0.00  0.00    +0.029 C 
ATOM      3  C   UNL     1       4.795  -5.713  23.386  0.00  0.00    +0.139 C 
ATOM      4  O   UNL     1       3.858  -5.889  22.615  0.00  0.00    -0.297 OA
ATOM      5  C   UNL     1       4.941  -6.408  24.726  0.00  0.00    +0.075 C 
ATOM      6  C   UNL     1       6.067  -5.591  25.411  0.00  0.00    +0.012 C 
ATOM      7  C   UNL     1       6.109  -4.278  24.610  0.00  0.00    +0.006 C 
ATOM      8  C   UNL     1       7.293  -3.294  24.745  0.00  0.00    -0.004 C 
ATOM      9  C   UNL     1       7.329  -2.571  26.108  0.00  0.00    +0.004 C 
ATOM     10  C   UNL     1       8.530  -1.613  26.223  0.00  0.00    +0.004 C 
ATOM     11  C   UNL     1       8.725  -0.666  25.014  0.00  0.00    -0.001 C 
ATOM     12  C   UNL     1       8.568  -1.401  23.665  0.00  0.00    -0.004 C 
ATOM     13  C   UNL     1       8.710  -0.393  22.511  0.00  0.00    +0.011 C 
ATOM     14  C   UNL     1      10.075   0.279  22.523  0.00  0.00    +0.074 C 
ATOM     15  C   UNL     1      10.358   0.894  23.874  0.00  0.00    +0.134 C 
ATOM     16  O   UNL     1      10.930   1.981  23.964  0.00  0.00    -0.297 OA
ATOM     17  C   UNL     1      10.088   0.036  25.094  0.00  0.00    +0.078 C 
ATOM     18  C   UNL     1       7.222  -2.170  23.656  0.00  0.00    -0.004 C 
ATOM     19  C   UNL     1       6.821  -2.631  22.245  0.00  0.00    +0.005 C 
ATOM     20  C   UNL     1       5.647  -3.599  22.251  0.00  0.00    +0.015 C 
ENDROOT
TORSDOF 0
ENDMDL
MODEL 5
REMARK VINA RESULT:      -7.1      2.644      4.426
REMARK  Name = 
REMARK  1 active torsions:
REMARK  status: ('A' for Active; 'I' for Inactive)
REMARK    1  A    between atoms: C_1  and  C_2
REMARK                            x       y       z     vdW  Elec       q    Type
REMARK                         _______ _______ _______ _____ _____    ______ ____
ROOT
ATOM      1  C   UNL     1       6.589   4.209  24.221  0.00  0.00    +0.019 C 
ATOM      2  C   UNL     1       7.575   4.203  23.029  0.00  0.00    +0.029 C 
ATOM      3  C   UNL     1       7.828   5.637  22.641  0.00  0.00    +0.139 C 
ATOM      4  O   UNL     1       7.272   6.235  21.726  0.00  0.00    -0.297 OA
ATOM      5  C   UNL     1       8.889   6.245  23.539  0.00  0.00    +0.075 C 
ATOM      6  C   UNL     1       9.476   5.003  24.258  0.00  0.00    +0.012 C 
ATOM      7  C   UNL     1       9.031   3.823  23.378  0.00  0.00    +0.006 C 
ATOM      8  C   UNL     1       9.129   2.365  23.882  0.00  0.00    -0.004 C 
ATOM      9  C   UNL     1      10.581   1.856  23.991  0.00  0.00    +0.004 C 
ATOM     10  C   UNL     1      10.649   0.409  24.516  0.00  0.00    +0.004 C 
ATOM     11  C   UNL     1       9.695  -0.585  23.809  0.00  0.00    -0.001 C 
ATOM     12  C   UNL     1       8.281   0.002  23.613  0.00  0.00    -0.004 C 
ATOM     13  C   UNL     1       7.406  -1.010  22.851  0.00  0.00    +0.011 C 
ATOM     14  C   UNL     1       7.269  -2.317  23.617  0.00  0.00    +0.074 C 
ATOM     15  C   UNL     1       8.628  -2.873  23.975  0.00  0.00    +0.134 C 
ATOM     16  O   UNL     1       8.848  -4.084  23.921  0.00  0.00    -0.297 OA
ATOM     17  C   UNL     1       9.631  -1.911  24.581  0.00  0.00    +0.078 C 
ATOM     18  C   UNL     1       8.392   1.380  22.912  0.00  0.00    -0.004 C 
ATOM     19  C   UNL     1       7.041   1.867  22.362  0.00  0.00    +0.005 C 
ATOM     20  C   UNL     1       7.078   3.318  21.904  0.00  0.00    +0.015 C 
ENDROOT
TORSDOF 0
ENDMDL
MODEL 6
REMARK VINA RESULT:      -7.0      1.517      2.829
REMARK  Name = 
REMARK  1 active torsions:
REMARK  status: ('A' for Active; 'I' for Inactive)
REMARK    1  A    between atoms: C_1  and  C_2
REMARK                            x       y       z     vdW  Elec       q    Type
REMARK                         _______ _______ _______ _____ _____    ______ ____
ROOT
ATOM      1  C   UNL     1       9.006   1.476  22.275  0.00  0.00    +0.019 C 
ATOM      2  C   UNL     1       9.779   1.712  23.593  0.00  0.00    +0.029 C 
ATOM      3  C   UNL     1      10.236   3.148  23.601  0.00  0.00    +0.139 C 
ATOM      4  O   UNL     1      11.353   3.540  23.284  0.00  0.00    -0.297 OA
ATOM      5  C   UNL     1       9.115   4.053  24.075  0.00  0.00    +0.075 C 
ATOM      6  C   UNL     1       8.087   3.046  24.653  0.00  0.00    +0.012 C 
ATOM      7  C   UNL     1       8.909   1.764  24.869  0.00  0.00    +0.006 C 
ATOM      8  C   UNL     1       8.222   0.407  25.140  0.00  0.00    -0.004 C 
ATOM      9  C   UNL     1       7.560   0.327  26.531  0.00  0.00    +0.004 C 
ATOM     10  C   UNL     1       6.865  -1.028  26.764  0.00  0.00    +0.004 C 
ATOM     11  C   UNL     1       7.722  -2.268  26.414  0.00  0.00    -0.001 C 
ATOM     12  C   UNL     1       8.462  -2.106  25.069  0.00  0.00    -0.004 C 
ATOM     13  C   UNL     1       9.341  -3.343  24.814  0.00  0.00    +0.011 C 
ATOM     14  C   UNL     1       8.509  -4.614  24.741  0.00  0.00    +0.074 C 
ATOM     15  C   UNL     1       7.642  -4.757  25.971  0.00  0.00    +0.134 C 
ATOM     16  O   UNL     1       7.464  -5.860  26.491  0.00  0.00    -0.297 OA
ATOM     17  C   UNL     1       6.857  -3.536  26.410  0.00  0.00    +0.078 C 
ATOM     18  C   UNL     1       9.251  -0.772  25.077  0.00  0.00    -0.004 C 
ATOM     19  C   UNL     1      10.286  -0.698  23.942  0.00  0.00    +0.005 C 
ATOM     20  C   UNL     1      10.884   0.692  23.778  0.00  0.00    +0.015 C 
ENDROOT
TORSDOF 0
ENDMDL
MODEL 7
REMARK VINA RESULT:      -6.8      1.513      1.797
REMARK  Name = 
REMARK  1 active torsions:
REMARK  status: ('A' for Active; 'I' for Inactive)
REMARK    1  A    between atoms: C_1  and  C_2
REMARK                            x       y       z     vdW  Elec       q    Type
REMARK                         _______ _______ _______ _____ _____    ______ ____
ROOT
ATOM      1  C   UNL     1       8.394   1.615  24.892  0.00  0.00    +0.019 C 
ATOM      2  C   UNL     1       8.079   0.890  23.564  0.00  0.00    +0.029 C 
ATOM      3  C   UNL     1       8.451   1.819  22.438  0.00  0.00    +0.139 C 
ATOM      4  O   UNL     1       7.672   2.540  21.824  0.00  0.00    -0.297 OA
ATOM      5  C   UNL     1       9.939   1.731  22.154  0.00  0.00    +0.075 C 
ATOM      6  C   UNL     1      10.361   0.468  22.948  0.00  0.00    +0.012 C 
ATOM      7  C   UNL     1       9.034  -0.269  23.200  0.00  0.00    +0.006 C 
ATOM      8  C   UNL     1       8.940  -1.422  24.225  0.00  0.00    -0.004 C 
ATOM      9  C   UNL     1       9.671  -2.702  23.770  0.00  0.00    +0.004 C 
ATOM     10  C   UNL     1       9.578  -3.826  24.820  0.00  0.00    +0.004 C 
ATOM     11  C   UNL     1       8.155  -4.087  25.369  0.00  0.00    -0.001 C 
ATOM     12  C   UNL     1       7.409  -2.778  25.707  0.00  0.00    -0.004 C 
ATOM     13  C   UNL     1       5.985  -3.107  26.186  0.00  0.00    +0.011 C 
ATOM     14  C   UNL     1       6.002  -3.973  27.437  0.00  0.00    +0.074 C 
ATOM     15  C   UNL     1       6.846  -5.208  27.221  0.00  0.00    +0.134 C 
ATOM     16  O   UNL     1       6.499  -6.296  27.682  0.00  0.00    -0.297 OA
ATOM     17  C   UNL     1       8.212  -5.011  26.594  0.00  0.00    +0.078 C 
ATOM     18  C   UNL     1       7.450  -1.835  24.477  0.00  0.00    -0.004 C 
ATOM     19  C   UNL     1       6.445  -0.677  24.594  0.00  0.00    +0.005 C 
ATOM     20  C   UNL     1       6.648   0.391  23.530  0.00  0.00    +0.015 C 
ENDROOT
TORSDOF 0
ENDMDL
MODEL 8
REMARK VINA RESULT:      -6.8      2.152      6.865
REMARK  Name = 
REMARK  1 active torsions:
REMARK  status: ('A' for Active; 'I' for Inactive)
REMARK    1  A    between atoms: C_1  and  C_2
REMARK                            x       y       z     vdW  Elec       q    Type
REMARK                         _______ _______ _______ _____ _____    ______ ____
ROOT
ATOM      1  C   UNL     1       5.440  -4.246  27.878  0.00  0.00    +0.019 C 
ATOM      2  C   UNL     1       5.958  -5.499  27.136  0.00  0.00    +0.029 C 
ATOM      3  C   UNL     1       5.229  -6.693  27.695  0.00  0.00    +0.139 C 
ATOM      4  O   UNL     1       5.663  -7.453  28.553  0.00  0.00    -0.297 OA
ATOM      5  C   UNL     1       3.873  -6.839  27.031  0.00  0.00    +0.075 C 
ATOM      6  C   UNL     1       3.978  -5.866  25.828  0.00  0.00    +0.012 C 
ATOM      7  C   UNL     1       5.491  -5.639  25.669  0.00  0.00    +0.006 C 
ATOM      8  C   UNL     1       6.041  -4.494  24.789  0.00  0.00    -0.004 C 
ATOM      9  C   UNL     1       5.824  -4.729  23.280  0.00  0.00    +0.004 C 
ATOM     10  C   UNL     1       6.363  -3.563  22.429  0.00  0.00    +0.004 C 
ATOM     11  C   UNL     1       7.799  -3.107  22.785  0.00  0.00    -0.001 C 
ATOM     12  C   UNL     1       8.014  -2.994  24.310  0.00  0.00    -0.004 C 
ATOM     13  C   UNL     1       9.475  -2.599  24.594  0.00  0.00    +0.011 C 
ATOM     14  C   UNL     1       9.822  -1.256  23.969  0.00  0.00    +0.074 C 
ATOM     15  C   UNL     1       9.491  -1.250  22.495  0.00  0.00    +0.134 C 
ATOM     16  O   UNL     1      10.234  -0.692  21.686  0.00  0.00    -0.297 OA
ATOM     17  C   UNL     1       8.130  -1.780  22.089  0.00  0.00    +0.078 C 
ATOM     18  C   UNL     1       7.585  -4.320  24.987  0.00  0.00    -0.004 C 
ATOM     19  C   UNL     1       8.091  -4.428  26.435  0.00  0.00    +0.005 C 
ATOM     20  C   UNL     1       7.470  -5.592  27.193  0.00  0.00    +0.015 C 
ENDROOT
TORSDOF 0
ENDMDL
MODEL 9
REMARK VINA RESULT:      -6.7      2.571      6.879
REMARK  Name = 
REMARK  1 active torsions:
REMARK  status: ('A' for Active; 'I' for Inactive)
REMARK    1  A    between atoms: C_1  and  C_2
REMARK                            x       y       z     vdW  Elec       q    Type
REMARK                         _______ _______ _______ _____ _____    ______ ____
ROOT
ATOM      1  C   UNL     1       8.742  -1.029  25.886  0.00  0.00    +0.019 C 
ATOM      2  C   UNL     1       9.137  -1.198  24.401  0.00  0.00    +0.029 C 
ATOM      3  C   UNL     1       9.167  -2.675  24.104  0.00  0.00    +0.139 C 
ATOM      4  O   UNL     1      10.173  -3.376  24.088  0.00  0.00    -0.297 OA
ATOM      5  C   UNL     1       7.768  -3.180  23.809  0.00  0.00    +0.075 C 
ATOM      6  C   UNL     1       6.964  -1.867  23.627  0.00  0.00    +0.012 C 
ATOM      7  C   UNL     1       8.047  -0.804  23.378  0.00  0.00    +0.006 C 
ATOM      8  C   UNL     1       7.722   0.705  23.453  0.00  0.00    -0.004 C 
ATOM      9  C   UNL     1       6.841   1.196  22.285  0.00  0.00    +0.004 C 
ATOM     10  C   UNL     1       6.515   2.698  22.398  0.00  0.00    +0.004 C 
ATOM     11  C   UNL     1       7.735   3.609  22.680  0.00  0.00    -0.001 C 
ATOM     12  C   UNL     1       8.656   3.029  23.774  0.00  0.00    -0.004 C 
ATOM     13  C   UNL     1       9.876   3.949  23.959  0.00  0.00    +0.011 C 
ATOM     14  C   UNL     1       9.460   5.348  24.389  0.00  0.00    +0.074 C 
ATOM     15  C   UNL     1       8.437   5.919  23.435  0.00  0.00    +0.134 C 
ATOM     16  O   UNL     1       8.469   7.108  23.114  0.00  0.00    -0.297 OA
ATOM     17  C   UNL     1       7.274   5.025  23.052  0.00  0.00    +0.078 C 
ATOM     18  C   UNL     1       9.028   1.569  23.409  0.00  0.00    -0.004 C 
ATOM     19  C   UNL     1      10.209   1.040  24.241  0.00  0.00    +0.005 C 
ATOM     20  C   UNL     1      10.420  -0.458  24.081  0.00  0.00    +0.015 C 
ENDROOT
TORSDOF 0
ENDMDL
