MODEL 1
REMARK VINA RESULT:      -8.7      0.000      0.000
REMARK  Name = 
REMARK  5 active torsions:
REMARK  status: ('A' for Active; 'I' for Inactive)
REMARK    1  A    between atoms: C_2  and  N_20
REMARK    2  A    between atoms: N_5  and  C_6
REMARK    3  A    between atoms: C_6  and  C_7
REMARK    4  A    between atoms: N_20  and  S_21
REMARK    5  A    between atoms: S_21  and  C_24
REMARK                            x       y       z     vdW  Elec       q    Type
REMARK                         _______ _______ _______ _____ _____    ______ ____
ROOT
ATOM      1  C   UNL     1       8.476  -2.620  22.992  0.00  0.00    +0.164 C 
ATOM      2  C   UNL     1       8.984  -1.857  24.205  0.00  0.00    +0.235 C 
ATOM      3  O   UNL     1       8.662  -2.045  25.366  0.00  0.00    -0.274 OA
ATOM      4  N   UNL     1       9.868  -0.888  23.776  0.00  0.00    -0.296 N 
ATOM      5  C   UNL     1      10.201  -1.038  22.386  0.00  0.00    +0.110 C 
ATOM      6  C   UNL     1       8.999  -1.771  21.822  0.00  0.00    +0.049 C 
ENDROOT
BRANCH   1   7
ATOM      7  N   UNL     1       7.009  -2.737  22.877  0.00  0.00    -0.178 NA
ATOM      8  H   UNL     1       6.481  -2.205  23.571  0.00  0.00    +0.149 HD
BRANCH   7   9
ATOM      9  S   UNL     1       6.348  -4.290  22.730  0.00  0.00    +0.065 S 
ATOM     10  O   UNL     1       7.264  -5.117  21.977  0.00  0.00    -0.153 OA
ATOM     11  O   UNL     1       4.973  -4.110  22.320  0.00  0.00    -0.153 OA
BRANCH   9  12
ATOM     12  C   UNL     1       6.231  -5.009  24.352  0.00  0.00    +0.145 A 
ATOM     13  S   UNL     1       4.760  -5.809  24.702  0.00  0.00    -0.067 S 
ATOM     14  C   UNL     1       5.234  -6.137  26.318  0.00  0.00    +0.039 A 
ATOM     15  C   UNL     1       4.510  -6.785  27.330  0.00  0.00    +0.019 A 
ATOM     16  C   UNL     1       5.111  -6.883  28.580  0.00  0.00    +0.021 A 
ATOM     17  C   UNL     1       6.384  -6.366  28.751  0.00  0.00    +0.111 A 
ATOM     18  N   UNL     1       7.113  -5.763  27.793  0.00  0.00    -0.254 NA
ATOM     19  C   UNL     1       6.516  -5.652  26.576  0.00  0.00    +0.080 A 
ATOM     20  C   UNL     1       7.093  -5.037  25.429  0.00  0.00    +0.064 A 
ENDBRANCH   9  12
ENDBRANCH   7   9
ENDBRANCH   1   7
BRANCH   4  21
ATOM     21  C   UNL     1      10.491   0.089  24.654  0.00  0.00    +0.143 C 
BRANCH  21  22
ATOM     22  C   UNL     1       9.883   1.467  24.510  0.00  0.00    -0.029 A 
ATOM     23  C   UNL     1       8.558   1.689  24.894  0.00  0.00    +0.006 A 
ATOM     24  C   UNL     1       8.014   2.977  24.859  0.00  0.00    +0.009 A 
ATOM     25  C   UNL     1       8.777   4.070  24.420  0.00  0.00    -0.013 A 
ATOM     26  C   UNL     1       8.279   5.375  24.477  0.00  0.00    +0.028 A 
ATOM     27  C   UNL     1       9.075   6.410  24.020  0.00  0.00    +0.113 A 
ATOM     28  N   UNL     1      10.293   6.235  23.471  0.00  0.00    -0.240 NA
ATOM     29  C   UNL     1      10.764   4.976  23.412  0.00  0.00    +0.124 A 
ATOM     30  N   UNL     1      12.015   4.850  22.797  0.00  0.00    -0.343 N 
ATOM     31  H   UNL     1      11.948   4.190  22.029  0.00  0.00    +0.144 HD
ATOM     32  H   UNL     1      12.253   5.783  22.465  0.00  0.00    +0.144 HD
ATOM     33  C   UNL     1      10.074   3.853  23.918  0.00  0.00    +0.022 A 
ATOM     34  C   UNL     1      10.606   2.541  23.966  0.00  0.00    +0.017 A 
ENDBRANCH  21  22
ENDBRANCH   4  21
TORSDOF 5
ENDMDL
MODEL 2
REMARK VINA RESULT:      -8.3      2.417      3.139
REMARK  Name = 
REMARK  5 active torsions:
REMARK  status: ('A' for Active; 'I' for Inactive)
REMARK    1  A    between atoms: C_2  and  N_20
REMARK    2  A    between atoms: N_5  and  C_6
REMARK    3  A    between atoms: C_6  and  C_7
REMARK    4  A    between atoms: N_20  and  S_21
REMARK    5  A    between atoms: S_21  and  C_24
REMARK                            x       y       z     vdW  Elec       q    Type
REMARK                         _______ _______ _______ _____ _____    ______ ____
ROOT
ATOM      1  C   UNL     1       8.426  -2.655  23.669  0.00  0.00    +0.164 C 
ATOM      2  C   UNL     1       9.340  -1.812  22.796  0.00  0.00    +0.235 C 
ATOM      3  O   UNL     1      10.523  -2.013  22.580  0.00  0.00    -0.274 OA
ATOM      4  N   UNL     1       8.613  -0.753  22.292  0.00  0.00    -0.296 N 
ATOM      5  C   UNL     1       7.206  -0.891  22.553  0.00  0.00    +0.110 C 
ATOM      6  C   UNL     1       7.170  -1.773  23.785  0.00  0.00    +0.049 C 
ENDROOT
BRANCH   1   7
ATOM      7  N   UNL     1       8.928  -2.949  25.026  0.00  0.00    -0.178 NA
ATOM      8  H   UNL     1       9.833  -2.530  25.248  0.00  0.00    +0.149 HD
BRANCH   7   9
ATOM      9  S   UNL     1       8.906  -4.561  25.546  0.00  0.00    +0.065 S 
ATOM     10  O   UNL     1       9.220  -4.600  26.957  0.00  0.00    -0.153 OA
ATOM     11  O   UNL     1       9.670  -5.312  24.575  0.00  0.00    -0.153 OA
BRANCH   9  12
ATOM     12  C   UNL     1       7.250  -5.185  25.377  0.00  0.00    +0.145 A 
ATOM     13  S   UNL     1       6.452  -5.574  26.839  0.00  0.00    -0.067 S 
ATOM     14  C   UNL     1       5.069  -6.170  26.017  0.00  0.00    +0.039 A 
ATOM     15  C   UNL     1       3.902  -6.730  26.556  0.00  0.00    +0.019 A 
ATOM     16  C   UNL     1       2.940  -7.181  25.660  0.00  0.00    +0.021 A 
ATOM     17  C   UNL     1       3.170  -7.034  24.303  0.00  0.00    +0.111 A 
ATOM     18  N   UNL     1       4.268  -6.477  23.756  0.00  0.00    -0.254 NA
ATOM     19  C   UNL     1       5.215  -6.051  24.635  0.00  0.00    +0.080 A 
ATOM     20  C   UNL     1       6.457  -5.453  24.280  0.00  0.00    +0.064 A 
ENDBRANCH   9  12
ENDBRANCH   7   9
ENDBRANCH   1   7
BRANCH   4  21
ATOM     21  C   UNL     1       9.182   0.309  21.479  0.00  0.00    +0.143 C 
BRANCH  21  22
ATOM     22  C   UNL     1       9.253   1.628  22.217  0.00  0.00    -0.029 A 
ATOM     23  C   UNL     1      10.343   1.905  23.047  0.00  0.00    +0.006 A 
ATOM     24  C   UNL     1      10.471   3.156  23.657  0.00  0.00    +0.009 A 
ATOM     25  C   UNL     1       9.503   4.154  23.467  0.00  0.00    -0.013 A 
ATOM     26  C   UNL     1       9.670   5.441  23.988  0.00  0.00    +0.028 A 
ATOM     27  C   UNL     1       8.676   6.378  23.775  0.00  0.00    +0.113 A 
ATOM     28  N   UNL     1       7.520   6.115  23.135  0.00  0.00    -0.240 NA
ATOM     29  C   UNL     1       7.361   4.872  22.643  0.00  0.00    +0.124 A 
ATOM     30  N   UNL     1       6.126   4.646  22.024  0.00  0.00    -0.343 N 
ATOM     31  H   UNL     1       5.671   3.851  22.460  0.00  0.00    +0.144 HD
ATOM     32  H   UNL     1       5.590   5.501  22.158  0.00  0.00    +0.144 HD
ATOM     33  C   UNL     1       8.339   3.859  22.732  0.00  0.00    +0.022 A 
ATOM     34  C   UNL     1       8.232   2.587  22.119  0.00  0.00    +0.017 A 
ENDBRANCH  21  22
ENDBRANCH   4  21
TORSDOF 5
ENDMDL
MODEL 3
REMARK VINA RESULT:      -8.2      1.408      1.952
REMARK  Name = 
REMARK  5 active torsions:
REMARK  status: ('A' for Active; 'I' for Inactive)
REMARK    1  A    between atoms: C_2  and  N_20
REMARK    2  A    between atoms: N_5  and  C_6
REMARK    3  A    between atoms: C_6  and  C_7
REMARK    4  A    between atoms: N_20  and  S_21
REMARK    5  A    between atoms: S_21  and  C_24
REMARK                            x       y       z     vdW  Elec       q    Type
REMARK                         _______ _______ _______ _____ _____    ______ ____
ROOT
ATOM      1  C   UNL     1       8.505  -2.591  23.036  0.00  0.00    +0.164 C 
ATOM      2  C   UNL     1       8.995  -1.813  24.247  0.00  0.00    +0.235 C 
ATOM      3  O   UNL     1       8.649  -1.980  25.404  0.00  0.00    -0.274 OA
ATOM      4  N   UNL     1       9.896  -0.858  23.820  0.00  0.00    -0.296 N 
ATOM      5  C   UNL     1      10.255  -1.033  22.439  0.00  0.00    +0.110 C 
ATOM      6  C   UNL     1       9.058  -1.765  21.863  0.00  0.00    +0.049 C 
ENDROOT
BRANCH   1   7
ATOM      7  N   UNL     1       7.039  -2.697  22.895  0.00  0.00    -0.178 NA
ATOM      8  H   UNL     1       6.503  -2.163  23.580  0.00  0.00    +0.149 HD
BRANCH   7   9
ATOM      9  S   UNL     1       6.370  -4.245  22.731  0.00  0.00    +0.065 S 
ATOM     10  O   UNL     1       7.283  -5.070  21.973  0.00  0.00    -0.153 OA
ATOM     11  O   UNL     1       4.997  -4.053  22.319  0.00  0.00    -0.153 OA
BRANCH   9  12
ATOM     12  C   UNL     1       6.244  -4.978  24.345  0.00  0.00    +0.145 A 
ATOM     13  S   UNL     1       4.776  -5.791  24.677  0.00  0.00    -0.067 S 
ATOM     14  C   UNL     1       5.238  -6.130  26.294  0.00  0.00    +0.039 A 
ATOM     15  C   UNL     1       4.511  -6.791  27.294  0.00  0.00    +0.019 A 
ATOM     16  C   UNL     1       5.102  -6.896  28.548  0.00  0.00    +0.021 A 
ATOM     17  C   UNL     1       6.370  -6.372  28.734  0.00  0.00    +0.111 A 
ATOM     18  N   UNL     1       7.103  -5.756  27.787  0.00  0.00    -0.254 NA
ATOM     19  C   UNL     1       6.516  -5.639  26.566  0.00  0.00    +0.080 A 
ATOM     20  C   UNL     1       7.097  -5.010  25.429  0.00  0.00    +0.064 A 
ENDBRANCH   9  12
ENDBRANCH   7   9
ENDBRANCH   1   7
BRANCH   4  21
ATOM     21  C   UNL     1      10.510   0.126  24.694  0.00  0.00    +0.143 C 
BRANCH  21  22
ATOM     22  C   UNL     1       9.964   1.520  24.471  0.00  0.00    -0.029 A 
ATOM     23  C   UNL     1      10.731   2.469  23.791  0.00  0.00    +0.006 A 
ATOM     24  C   UNL     1      10.201   3.728  23.491  0.00  0.00    +0.009 A 
ATOM     25  C   UNL     1       8.899   4.074  23.881  0.00  0.00    -0.013 A 
ATOM     26  C   UNL     1       8.323   5.289  23.500  0.00  0.00    +0.028 A 
ATOM     27  C   UNL     1       7.038   5.578  23.924  0.00  0.00    +0.113 A 
ATOM     28  N   UNL     1       6.316   4.777  24.733  0.00  0.00    -0.240 NA
ATOM     29  C   UNL     1       6.880   3.612  25.103  0.00  0.00    +0.124 A 
ATOM     30  N   UNL     1       6.101   2.840  25.974  0.00  0.00    -0.343 N 
ATOM     31  H   UNL     1       6.634   2.640  26.814  0.00  0.00    +0.144 HD
ATOM     32  H   UNL     1       5.279   3.405  26.181  0.00  0.00    +0.144 HD
ATOM     33  C   UNL     1       8.151   3.178  24.669  0.00  0.00    +0.022 A 
ATOM     34  C   UNL     1       8.705   1.907  24.957  0.00  0.00    +0.017 A 
ENDBRANCH  21  22
ENDBRANCH   4  21
TORSDOF 5
ENDMDL
MODEL 4
REMARK VINA RESULT:      -8.2      2.652      3.866
REMARK  Name = 
REMARK  5 active torsions:
REMARK  status: ('A' for Active; 'I' for Inactive)
REMARK    1  A    between atoms: C_2  and  N_20
REMARK    2  A    between atoms: N_5  and  C_6
REMARK    3  A    between atoms: C_6  and  C_7
REMARK    4  A    between atoms: N_20  and  S_21
REMARK    5  A    between atoms: S_21  and  C_24
REMARK                            x       y       z     vdW  Elec       q    Type
REMARK                         _______ _______ _______ _____ _____    ______ ____
ROOT
ATOM      1  C   UNL     1       7.003  -3.936  24.546  0.00  0.00    +0.164 C 
ATOM      2  C   UNL     1       8.344  -3.476  23.997  0.00  0.00    +0.235 C 
ATOM      3  O   UNL     1       9.444  -3.769  24.434  0.00  0.00    -0.274 OA
ATOM      4  N   UNL     1       8.116  -2.646  22.919  0.00  0.00    -0.296 N 
ATOM      5  C   UNL     1       6.736  -2.649  22.516  0.00  0.00    +0.110 C 
ATOM      6  C   UNL     1       6.009  -3.040  23.788  0.00  0.00    +0.049 C 
ENDROOT
BRANCH   1   7
ATOM      7  N   UNL     1       6.806  -3.745  25.996  0.00  0.00    -0.178 NA
ATOM      8  H   UNL     1       7.467  -3.104  26.438  0.00  0.00    +0.149 HD
BRANCH   7   9
ATOM      9  S   UNL     1       6.627  -5.127  26.959  0.00  0.00    +0.065 S 
ATOM     10  O   UNL     1       6.401  -4.717  28.326  0.00  0.00    -0.153 OA
ATOM     11  O   UNL     1       7.710  -6.016  26.601  0.00  0.00    -0.153 OA
BRANCH   9  12
ATOM     12  C   UNL     1       5.163  -5.991  26.439  0.00  0.00    +0.145 A 
ATOM     13  S   UNL     1       3.825  -5.887  27.500  0.00  0.00    -0.067 S 
ATOM     14  C   UNL     1       2.877  -6.941  26.534  0.00  0.00    +0.039 A 
ATOM     15  C   UNL     1       1.573  -7.404  26.761  0.00  0.00    +0.019 A 
ATOM     16  C   UNL     1       1.044  -8.296  25.836  0.00  0.00    +0.021 A 
ATOM     17  C   UNL     1       1.812  -8.657  24.742  0.00  0.00    +0.111 A 
ATOM     18  N   UNL     1       3.055  -8.210  24.483  0.00  0.00    -0.254 NA
ATOM     19  C   UNL     1       3.578  -7.350  25.399  0.00  0.00    +0.080 A 
ATOM     20  C   UNL     1       4.876  -6.771  25.337  0.00  0.00    +0.064 A 
ENDBRANCH   9  12
ENDBRANCH   7   9
ENDBRANCH   1   7
BRANCH   4  21
ATOM     21  C   UNL     1       9.167  -1.952  22.192  0.00  0.00    +0.143 C 
BRANCH  21  22
ATOM     22  C   UNL     1       9.244  -0.483  22.548  0.00  0.00    -0.029 A 
ATOM     23  C   UNL     1       9.800   0.426  21.643  0.00  0.00    +0.006 A 
ATOM     24  C   UNL     1       9.788   1.797  21.917  0.00  0.00    +0.009 A 
ATOM     25  C   UNL     1       9.239   2.290  23.110  0.00  0.00    -0.013 A 
ATOM     26  C   UNL     1       9.129   3.663  23.349  0.00  0.00    +0.028 A 
ATOM     27  C   UNL     1       8.588   4.087  24.549  0.00  0.00    +0.113 A 
ATOM     28  N   UNL     1       8.201   3.254  25.535  0.00  0.00    -0.240 NA
ATOM     29  C   UNL     1       8.316   1.934  25.302  0.00  0.00    +0.124 A 
ATOM     30  N   UNL     1       7.937   1.119  26.375  0.00  0.00    -0.343 N 
ATOM     31  H   UNL     1       8.705   0.503  26.619  0.00  0.00    +0.144 HD
ATOM     32  H   UNL     1       7.714   1.755  27.139  0.00  0.00    +0.144 HD
ATOM     33  C   UNL     1       8.781   1.386  24.087  0.00  0.00    +0.022 A 
ATOM     34  C   UNL     1       8.798   0.002  23.788  0.00  0.00    +0.017 A 
ENDBRANCH  21  22
ENDBRANCH   4  21
TORSDOF 5
ENDMDL
MODEL 5
REMARK VINA RESULT:      -8.2      2.324      3.045
REMARK  Name = 
REMARK  5 active torsions:
REMARK  status: ('A' for Active; 'I' for Inactive)
REMARK    1  A    between atoms: C_2  and  N_20
REMARK    2  A    between atoms: N_5  and  C_6
REMARK    3  A    between atoms: C_6  and  C_7
REMARK    4  A    between atoms: N_20  and  S_21
REMARK    5  A    between atoms: S_21  and  C_24
REMARK                            x       y       z     vdW  Elec       q    Type
REMARK                         _______ _______ _______ _____ _____    ______ ____
ROOT
ATOM      1  C   UNL     1       8.951  -2.074  24.039  0.00  0.00    +0.164 C 
ATOM      2  C   UNL     1       9.230  -1.286  22.769  0.00  0.00    +0.235 C 
ATOM      3  O   UNL     1       9.195  -1.714  21.629  0.00  0.00    -0.274 OA
ATOM      4  N   UNL     1       9.553   0.010  23.119  0.00  0.00    -0.296 N 
ATOM      5  C   UNL     1       9.314   0.269  24.513  0.00  0.00    +0.110 C 
ATOM      6  C   UNL     1       9.418  -1.107  25.140  0.00  0.00    +0.049 C 
ENDROOT
BRANCH   1   7
ATOM      7  N   UNL     1       9.688  -3.346  24.178  0.00  0.00    -0.178 NA
ATOM      8  H   UNL     1       9.960  -3.782  23.295  0.00  0.00    +0.149 HD
BRANCH   7   9
ATOM      9  S   UNL     1       9.051  -4.520  25.219  0.00  0.00    +0.065 S 
ATOM     10  O   UNL     1       9.075  -4.008  26.570  0.00  0.00    -0.153 OA
ATOM     11  O   UNL     1       9.691  -5.768  24.866  0.00  0.00    -0.153 OA
BRANCH   9  12
ATOM     12  C   UNL     1       7.341  -4.774  24.802  0.00  0.00    +0.145 A 
ATOM     13  S   UNL     1       6.325  -5.238  26.097  0.00  0.00    -0.067 S 
ATOM     14  C   UNL     1       4.962  -5.409  25.069  0.00  0.00    +0.039 A 
ATOM     15  C   UNL     1       3.660  -5.814  25.398  0.00  0.00    +0.019 A 
ATOM     16  C   UNL     1       2.743  -5.914  24.358  0.00  0.00    +0.021 A 
ATOM     17  C   UNL     1       3.150  -5.590  23.076  0.00  0.00    +0.111 A 
ATOM     18  N   UNL     1       4.383  -5.174  22.733  0.00  0.00    -0.254 NA
ATOM     19  C   UNL     1       5.284  -5.092  23.749  0.00  0.00    +0.080 A 
ATOM     20  C   UNL     1       6.644  -4.696  23.614  0.00  0.00    +0.064 A 
ENDBRANCH   9  12
ENDBRANCH   7   9
ENDBRANCH   1   7
BRANCH   4  21
ATOM     21  C   UNL     1       9.959   1.030  22.167  0.00  0.00    +0.143 C 
BRANCH  21  22
ATOM     22  C   UNL     1       9.905   2.424  22.754  0.00  0.00    -0.029 A 
ATOM     23  C   UNL     1       8.675   2.986  23.104  0.00  0.00    +0.006 A 
ATOM     24  C   UNL     1       8.617   4.231  23.738  0.00  0.00    +0.009 A 
ATOM     25  C   UNL     1       9.787   4.952  24.018  0.00  0.00    -0.013 A 
ATOM     26  C   UNL     1       9.751   6.149  24.741  0.00  0.00    +0.028 A 
ATOM     27  C   UNL     1      10.938   6.819  24.977  0.00  0.00    +0.113 A 
ATOM     28  N   UNL     1      12.135   6.416  24.507  0.00  0.00    -0.240 NA
ATOM     29  C   UNL     1      12.163   5.268  23.806  0.00  0.00    +0.124 A 
ATOM     30  N   UNL     1      13.424   4.920  23.310  0.00  0.00    -0.343 N 
ATOM     31  H   UNL     1      13.369   4.797  22.304  0.00  0.00    +0.144 HD
ATOM     32  H   UNL     1      14.040   5.692  23.556  0.00  0.00    +0.144 HD
ATOM     33  C   UNL     1      11.028   4.461  23.570  0.00  0.00    +0.022 A 
ATOM     34  C   UNL     1      11.064   3.196  22.934  0.00  0.00    +0.017 A 
ENDBRANCH  21  22
ENDBRANCH   4  21
TORSDOF 5
ENDMDL
MODEL 6
REMARK VINA RESULT:      -8.0      2.470      3.258
REMARK  Name = 
REMARK  5 active torsions:
REMARK  status: ('A' for Active; 'I' for Inactive)
REMARK    1  A    between atoms: C_2  and  N_20
REMARK    2  A    between atoms: N_5  and  C_6
REMARK    3  A    between atoms: C_6  and  C_7
REMARK    4  A    between atoms: N_20  and  S_21
REMARK    5  A    between atoms: S_21  and  C_24
REMARK                            x       y       z     vdW  Elec       q    Type
REMARK                         _______ _______ _______ _____ _____    ______ ____
ROOT
ATOM      1  C   UNL     1       9.635  -1.918  23.725  0.00  0.00    +0.164 C 
ATOM      2  C   UNL     1      10.147  -0.487  23.743  0.00  0.00    +0.235 C 
ATOM      3  O   UNL     1      10.670   0.084  24.684  0.00  0.00    -0.274 OA
ATOM      4  N   UNL     1       9.906   0.081  22.508  0.00  0.00    -0.296 N 
ATOM      5  C   UNL     1       9.465  -0.889  21.543  0.00  0.00    +0.110 C 
ATOM      6  C   UNL     1       8.848  -1.973  22.405  0.00  0.00    +0.049 C 
ENDROOT
BRANCH   1   7
ATOM      7  N   UNL     1       8.732  -2.288  24.833  0.00  0.00    -0.178 NA
ATOM      8  H   UNL     1       8.794  -1.686  25.656  0.00  0.00    +0.149 HD
BRANCH   7   9
ATOM      9  S   UNL     1       8.700  -3.911  25.319  0.00  0.00    +0.065 S 
ATOM     10  O   UNL     1       8.766  -3.967  26.761  0.00  0.00    -0.153 OA
ATOM     11  O   UNL     1       9.657  -4.604  24.485  0.00  0.00    -0.153 OA
BRANCH   9  12
ATOM     12  C   UNL     1       7.131  -4.606  24.854  0.00  0.00    +0.145 A 
ATOM     13  S   UNL     1       6.409  -5.641  26.009  0.00  0.00    -0.067 S 
ATOM     14  C   UNL     1       5.098  -6.017  24.969  0.00  0.00    +0.039 A 
ATOM     15  C   UNL     1       4.017  -6.881  25.196  0.00  0.00    +0.019 A 
ATOM     16  C   UNL     1       3.105  -7.045  24.160  0.00  0.00    +0.021 A 
ATOM     17  C   UNL     1       3.295  -6.340  22.985  0.00  0.00    +0.111 A 
ATOM     18  N   UNL     1       4.307  -5.484  22.746  0.00  0.00    -0.254 NA
ATOM     19  C   UNL     1       5.208  -5.337  23.755  0.00  0.00    +0.080 A 
ATOM     20  C   UNL     1       6.361  -4.504  23.714  0.00  0.00    +0.064 A 
ENDBRANCH   9  12
ENDBRANCH   7   9
ENDBRANCH   1   7
BRANCH   4  21
ATOM     21  C   UNL     1      10.190   1.469  22.184  0.00  0.00    +0.143 C 
BRANCH  21  22
ATOM     22  C   UNL     1       9.007   2.378  22.443  0.00  0.00    -0.029 A 
ATOM     23  C   UNL     1       7.835   2.226  21.696  0.00  0.00    +0.006 A 
ATOM     24  C   UNL     1       6.702   2.991  21.991  0.00  0.00    +0.009 A 
ATOM     25  C   UNL     1       6.720   3.938  23.025  0.00  0.00    -0.013 A 
ATOM     26  C   UNL     1       5.566   4.636  23.395  0.00  0.00    +0.028 A 
ATOM     27  C   UNL     1       5.650   5.565  24.416  0.00  0.00    +0.113 A 
ATOM     28  N   UNL     1       6.795   5.882  25.051  0.00  0.00    -0.240 NA
ATOM     29  C   UNL     1       7.904   5.213  24.685  0.00  0.00    +0.124 A 
ATOM     30  N   UNL     1       9.070   5.612  25.350  0.00  0.00    -0.343 N 
ATOM     31  H   UNL     1       9.770   5.884  24.669  0.00  0.00    +0.144 HD
ATOM     32  H   UNL     1       8.797   6.399  25.936  0.00  0.00    +0.144 HD
ATOM     33  C   UNL     1       7.923   4.191  23.712  0.00  0.00    +0.022 A 
ATOM     34  C   UNL     1       9.057   3.403  23.401  0.00  0.00    +0.017 A 
ENDBRANCH  21  22
ENDBRANCH   4  21
TORSDOF 5
ENDMDL
MODEL 7
REMARK VINA RESULT:      -7.9      2.890      3.568
REMARK  Name = 
REMARK  5 active torsions:
REMARK  status: ('A' for Active; 'I' for Inactive)
REMARK    1  A    between atoms: C_2  and  N_20
REMARK    2  A    between atoms: N_5  and  C_6
REMARK    3  A    between atoms: C_6  and  C_7
REMARK    4  A    between atoms: N_20  and  S_21
REMARK    5  A    between atoms: S_21  and  C_24
REMARK                            x       y       z     vdW  Elec       q    Type
REMARK                         _______ _______ _______ _____ _____    ______ ____
ROOT
ATOM      1  C   UNL     1       8.018  -2.823  24.319  0.00  0.00    +0.164 C 
ATOM      2  C   UNL     1       7.868  -1.664  23.347  0.00  0.00    +0.235 C 
ATOM      3  O   UNL     1       6.826  -1.122  23.022  0.00  0.00    -0.274 OA
ATOM      4  N   UNL     1       9.118  -1.327  22.869  0.00  0.00    -0.296 N 
ATOM      5  C   UNL     1      10.170  -2.001  23.581  0.00  0.00    +0.110 C 
ATOM      6  C   UNL     1       9.483  -3.245  24.110  0.00  0.00    +0.049 C 
ENDROOT
BRANCH   1   7
ATOM      7  N   UNL     1       7.147  -3.988  24.066  0.00  0.00    -0.178 NA
ATOM      8  H   UNL     1       6.489  -3.871  23.293  0.00  0.00    +0.149 HD
BRANCH   7   9
ATOM      9  S   UNL     1       6.350  -4.682  25.389  0.00  0.00    +0.065 S 
ATOM     10  O   UNL     1       5.731  -3.631  26.165  0.00  0.00    -0.153 OA
ATOM     11  O   UNL     1       7.282  -5.617  25.981  0.00  0.00    -0.153 OA
BRANCH   9  12
ATOM     12  C   UNL     1       5.032  -5.707  24.779  0.00  0.00    +0.145 A 
ATOM     13  S   UNL     1       4.123  -5.053  23.486  0.00  0.00    -0.067 S 
ATOM     14  C   UNL     1       3.044  -6.387  23.466  0.00  0.00    +0.039 A 
ATOM     15  C   UNL     1       1.926  -6.598  22.646  0.00  0.00    +0.019 A 
ATOM     16  C   UNL     1       1.185  -7.754  22.866  0.00  0.00    +0.021 A 
ATOM     17  C   UNL     1       1.598  -8.634  23.852  0.00  0.00    +0.111 A 
ATOM     18  N   UNL     1       2.680  -8.471  24.637  0.00  0.00    -0.254 NA
ATOM     19  C   UNL     1       3.394  -7.331  24.431  0.00  0.00    +0.080 A 
ATOM     20  C   UNL     1       4.557  -6.947  25.156  0.00  0.00    +0.064 A 
ENDBRANCH   9  12
ENDBRANCH   7   9
ENDBRANCH   1   7
BRANCH   4  21
ATOM     21  C   UNL     1       9.353  -0.313  21.855  0.00  0.00    +0.143 C 
BRANCH  21  22
ATOM     22  C   UNL     1       9.367   1.088  22.430  0.00  0.00    -0.029 A 
ATOM     23  C   UNL     1      10.437   1.503  23.228  0.00  0.00    +0.006 A 
ATOM     24  C   UNL     1      10.511   2.823  23.684  0.00  0.00    +0.009 A 
ATOM     25  C   UNL     1       9.508   3.752  23.370  0.00  0.00    -0.013 A 
ATOM     26  C   UNL     1       9.622   5.098  23.734  0.00  0.00    +0.028 A 
ATOM     27  C   UNL     1       8.595   5.964  23.405  0.00  0.00    +0.113 A 
ATOM     28  N   UNL     1       7.456   5.581  22.794  0.00  0.00    -0.240 NA
ATOM     29  C   UNL     1       7.349   4.284  22.454  0.00  0.00    +0.124 A 
ATOM     30  N   UNL     1       6.130   3.937  21.860  0.00  0.00    -0.343 N 
ATOM     31  H   UNL     1       5.701   3.183  22.386  0.00  0.00    +0.144 HD
ATOM     32  H   UNL     1       5.560   4.780  21.888  0.00  0.00    +0.144 HD
ATOM     33  C   UNL     1       8.364   3.327  22.669  0.00  0.00    +0.022 A 
ATOM     34  C   UNL     1       8.311   1.987  22.213  0.00  0.00    +0.017 A 
ENDBRANCH  21  22
ENDBRANCH   4  21
TORSDOF 5
ENDMDL
MODEL 8
REMARK VINA RESULT:      -7.9      1.627      1.927
REMARK  Name = 
REMARK  5 active torsions:
REMARK  status: ('A' for Active; 'I' for Inactive)
REMARK    1  A    between atoms: C_2  and  N_20
REMARK    2  A    between atoms: N_5  and  C_6
REMARK    3  A    between atoms: C_6  and  C_7
REMARK    4  A    between atoms: N_20  and  S_21
REMARK    5  A    between atoms: S_21  and  C_24
REMARK                            x       y       z     vdW  Elec       q    Type
REMARK                         _______ _______ _______ _____ _____    ______ ____
ROOT
ATOM      1  C   UNL     1       8.543  -2.695  23.090  0.00  0.00    +0.164 C 
ATOM      2  C   UNL     1       9.186  -1.928  24.233  0.00  0.00    +0.235 C 
ATOM      3  O   UNL     1       9.066  -2.165  25.423  0.00  0.00    -0.274 OA
ATOM      4  N   UNL     1       9.925  -0.890  23.704  0.00  0.00    -0.296 N 
ATOM      5  C   UNL     1      10.043  -0.983  22.275  0.00  0.00    +0.110 C 
ATOM      6  C   UNL     1       8.817  -1.784  21.881  0.00  0.00    +0.049 C 
ENDROOT
BRANCH   1   7
ATOM      7  N   UNL     1       7.086  -2.911  23.202  0.00  0.00    -0.178 NA
ATOM      8  H   UNL     1       6.736  -2.980  24.159  0.00  0.00    +0.149 HD
BRANCH   7   9
ATOM      9  S   UNL     1       6.392  -4.131  22.255  0.00  0.00    +0.065 S 
ATOM     10  O   UNL     1       7.422  -5.073  21.879  0.00  0.00    -0.153 OA
ATOM     11  O   UNL     1       5.574  -3.463  21.266  0.00  0.00    -0.153 OA
BRANCH   9  12
ATOM     12  C   UNL     1       5.225  -5.026  23.255  0.00  0.00    +0.145 A 
ATOM     13  S   UNL     1       5.008  -4.436  24.846  0.00  0.00    -0.067 S 
ATOM     14  C   UNL     1       3.936  -5.711  25.256  0.00  0.00    +0.039 A 
ATOM     15  C   UNL     1       3.300  -5.963  26.480  0.00  0.00    +0.019 A 
ATOM     16  C   UNL     1       2.507  -7.102  26.563  0.00  0.00    +0.021 A 
ATOM     17  C   UNL     1       2.370  -7.902  25.443  0.00  0.00    +0.111 A 
ATOM     18  N   UNL     1       2.945  -7.673  24.247  0.00  0.00    -0.254 NA
ATOM     19  C   UNL     1       3.734  -6.567  24.173  0.00  0.00    +0.080 A 
ATOM     20  C   UNL     1       4.453  -6.145  23.019  0.00  0.00    +0.064 A 
ENDBRANCH   9  12
ENDBRANCH   7   9
ENDBRANCH   1   7
BRANCH   4  21
ATOM     21  C   UNL     1      10.616   0.106  24.507  0.00  0.00    +0.143 C 
BRANCH  21  22
ATOM     22  C   UNL     1       9.966   1.471  24.421  0.00  0.00    -0.029 A 
ATOM     23  C   UNL     1       8.640   1.639  24.830  0.00  0.00    +0.006 A 
ATOM     24  C   UNL     1       8.059   2.910  24.849  0.00  0.00    +0.009 A 
ATOM     25  C   UNL     1       8.782   4.040  24.440  0.00  0.00    -0.013 A 
ATOM     26  C   UNL     1       8.248   5.328  24.550  0.00  0.00    +0.028 A 
ATOM     27  C   UNL     1       9.007   6.401  24.121  0.00  0.00    +0.113 A 
ATOM     28  N   UNL     1      10.221   6.283  23.550  0.00  0.00    -0.240 NA
ATOM     29  C   UNL     1      10.728   5.040  23.439  0.00  0.00    +0.124 A 
ATOM     30  N   UNL     1      11.973   4.974  22.803  0.00  0.00    -0.343 N 
ATOM     31  H   UNL     1      11.915   4.341  22.013  0.00  0.00    +0.144 HD
ATOM     32  H   UNL     1      12.179   5.925  22.502  0.00  0.00    +0.144 HD
ATOM     33  C   UNL     1      10.078   3.880  23.913  0.00  0.00    +0.022 A 
ATOM     34  C   UNL     1      10.650   2.584  23.907  0.00  0.00    +0.017 A 
ENDBRANCH  21  22
ENDBRANCH   4  21
TORSDOF 5
ENDMDL
MODEL 9
REMARK VINA RESULT:      -7.8      2.942     10.015
REMARK  Name = 
REMARK  5 active torsions:
REMARK  status: ('A' for Active; 'I' for Inactive)
REMARK    1  A    between atoms: C_2  and  N_20
REMARK    2  A    between atoms: N_5  and  C_6
REMARK    3  A    between atoms: C_6  and  C_7
REMARK    4  A    between atoms: N_20  and  S_21
REMARK    5  A    between atoms: S_21  and  C_24
REMARK                            x       y       z     vdW  Elec       q    Type
REMARK                         _______ _______ _______ _____ _____    ______ ____
ROOT
ATOM      1  C   UNL     1       9.272  -1.147  25.057  0.00  0.00    +0.164 C 
ATOM      2  C   UNL     1       9.381  -2.489  24.352  0.00  0.00    +0.235 C 
ATOM      3  O   UNL     1       9.930  -2.704  23.285  0.00  0.00    -0.274 OA
ATOM      4  N   UNL     1       8.733  -3.440  25.113  0.00  0.00    -0.296 N 
ATOM      5  C   UNL     1       8.361  -2.936  26.407  0.00  0.00    +0.110 C 
ATOM      6  C   UNL     1       8.256  -1.441  26.174  0.00  0.00    +0.049 C 
ENDROOT
BRANCH   1   7
ATOM      7  N   UNL     1       8.766  -0.031  24.235  0.00  0.00    -0.178 NA
ATOM      8  H   UNL     1       8.046  -0.289  23.558  0.00  0.00    +0.149 HD
BRANCH   7   9
ATOM      9  S   UNL     1       9.902   0.985  23.494  0.00  0.00    +0.065 S 
ATOM     10  O   UNL     1      10.079   0.565  22.123  0.00  0.00    -0.153 OA
ATOM     11  O   UNL     1      11.018   1.083  24.410  0.00  0.00    -0.153 OA
BRANCH   9  12
ATOM     12  C   UNL     1       9.235   2.631  23.440  0.00  0.00    +0.145 A 
ATOM     13  S   UNL     1       7.948   2.873  22.339  0.00  0.00    -0.067 S 
ATOM     14  C   UNL     1       7.865   4.551  22.683  0.00  0.00    +0.039 A 
ATOM     15  C   UNL     1       7.018   5.520  22.125  0.00  0.00    +0.019 A 
ATOM     16  C   UNL     1       7.187   6.833  22.550  0.00  0.00    +0.021 A 
ATOM     17  C   UNL     1       8.150   7.108  23.504  0.00  0.00    +0.111 A 
ATOM     18  N   UNL     1       8.960   6.196  24.077  0.00  0.00    -0.254 NA
ATOM     19  C   UNL     1       8.805   4.915  23.648  0.00  0.00    +0.080 A 
ATOM     20  C   UNL     1       9.563   3.798  24.100  0.00  0.00    +0.064 A 
ENDBRANCH   9  12
ENDBRANCH   7   9
ENDBRANCH   1   7
BRANCH   4  21
ATOM     21  C   UNL     1       8.563  -4.826  24.709  0.00  0.00    +0.143 C 
BRANCH  21  22
ATOM     22  C   UNL     1       7.127  -5.156  24.362  0.00  0.00    -0.029 A 
ATOM     23  C   UNL     1       6.603  -4.772  23.124  0.00  0.00    +0.006 A 
ATOM     24  C   UNL     1       5.311  -5.156  22.751  0.00  0.00    +0.009 A 
ATOM     25  C   UNL     1       4.506  -5.914  23.614  0.00  0.00    -0.013 A 
ATOM     26  C   UNL     1       3.254  -6.389  23.213  0.00  0.00    +0.028 A 
ATOM     27  C   UNL     1       2.503  -7.124  24.112  0.00  0.00    +0.113 A 
ATOM     28  N   UNL     1       2.881  -7.372  25.381  0.00  0.00    -0.240 NA
ATOM     29  C   UNL     1       4.084  -6.905  25.764  0.00  0.00    +0.124 A 
ATOM     30  N   UNL     1       4.407  -7.158  27.103  0.00  0.00    -0.343 N 
ATOM     31  H   UNL     1       4.622  -6.282  27.569  0.00  0.00    +0.144 HD
ATOM     32  H   UNL     1       3.583  -7.601  27.506  0.00  0.00    +0.144 HD
ATOM     33  C   UNL     1       4.969  -6.212  24.910  0.00  0.00    +0.022 A 
ATOM     34  C   UNL     1       6.281  -5.818  25.266  0.00  0.00    +0.017 A 
ENDBRANCH  21  22
ENDBRANCH   4  21
TORSDOF 5
ENDMDL
