MODEL 1
REMARK VINA RESULT:      38.7      0.000      0.000
REMARK  Name = 
REMARK  73 active torsions:
REMARK  status: ('A' for Active; 'I' for Inactive)
REMARK    1  A    between atoms: N_1  and  C_2
REMARK    2  A    between atoms: C_2  and  C_3
REMARK    3  A    between atoms: C_2  and  C_70
REMARK    4  A    between atoms: C_3  and  O_4
REMARK    5  A    between atoms: O_4  and  C_5
REMARK    6  A    between atoms: N_7  and  C_8
REMARK    7  A    between atoms: C_8  and  C_9
REMARK    8  A    between atoms: C_9  and  C_10
REMARK    9  A    between atoms: C_10  and  O_11
REMARK   10  A    between atoms: O_11  and  C_12
REMARK   11  A    between atoms: C_12  and  C_13
REMARK   12  A    between atoms: C_13  and  O_14
REMARK   13  A    between atoms: O_14  and  C_15
REMARK   14  A    between atoms: C_15  and  C_16
REMARK   15  A    between atoms: C_16  and  O_17
REMARK   16  A    between atoms: O_17  and  C_18
REMARK   17  A    between atoms: C_18  and  C_19
REMARK   18  A    between atoms: C_19  and  C_20
REMARK   19  A    between atoms: C_20  and  N_21
REMARK   20  A    between atoms: N_21  and  C_22
REMARK   21  A    between atoms: C_23  and  N_24
REMARK   22  A    between atoms: N_24  and  C_25
REMARK   23  A    between atoms: C_25  and  C_26
REMARK   24  A    between atoms: C_26  and  C_27
REMARK   25  A    between atoms: C_27  and  N_28
REMARK   26  A    between atoms: N_31  and  C_32
REMARK   27  A    between atoms: C_32  and  C_33
REMARK   28  A    between atoms: C_33  and  C_34
REMARK   29  A    between atoms: C_34  and  N_35
REMARK   30  A    between atoms: C_36  and  C_38
REMARK   31  A    between atoms: C_40  and  O_41
REMARK   32  A    between atoms: O_41  and  C_42
REMARK   33  A    between atoms: C_45  and  C_47
REMARK   34  A    between atoms: C_47  and  O_48
REMARK   35  A    between atoms: C_49  and  O_51
REMARK   36  A    between atoms: C_52  and  O_54
REMARK   37  A    between atoms: C_55  and  O_57
REMARK   38  A    between atoms: C_59  and  N_61
REMARK   39  A    between atoms: C_70  and  O_71
REMARK   40  A    between atoms: O_71  and  C_72
REMARK   41  A    between atoms: N_74  and  C_75
REMARK   42  A    between atoms: C_75  and  C_76
REMARK   43  A    between atoms: C_76  and  C_77
REMARK   44  A    between atoms: C_77  and  O_78
REMARK   45  A    between atoms: O_78  and  C_79
REMARK   46  A    between atoms: C_79  and  C_80
REMARK   47  A    between atoms: C_80  and  O_81
REMARK   48  A    between atoms: O_81  and  C_82
REMARK   49  A    between atoms: C_82  and  C_83
REMARK   50  A    between atoms: C_83  and  O_84
REMARK   51  A    between atoms: O_84  and  C_85
REMARK   52  A    between atoms: C_85  and  C_86
REMARK   53  A    between atoms: C_86  and  C_87
REMARK   54  A    between atoms: C_87  and  N_88
REMARK   55  A    between atoms: N_88  and  C_89
REMARK   56  A    between atoms: C_90  and  N_91
REMARK   57  A    between atoms: N_91  and  C_92
REMARK   58  A    between atoms: C_92  and  C_93
REMARK   59  A    between atoms: C_93  and  C_94
REMARK   60  A    between atoms: C_94  and  N_95
REMARK   61  A    between atoms: N_98  and  C_99
REMARK   62  A    between atoms: C_99  and  C_100
REMARK   63  A    between atoms: C_100  and  C_101
REMARK   64  A    between atoms: C_101  and  N_102
REMARK   65  A    between atoms: C_103  and  C_105
REMARK   66  A    between atoms: C_107  and  O_108
REMARK   67  A    between atoms: O_108  and  C_109
REMARK   68  A    between atoms: C_112  and  C_114
REMARK   69  A    between atoms: C_114  and  O_115
REMARK   70  A    between atoms: C_116  and  O_118
REMARK   71  A    between atoms: C_119  and  O_121
REMARK   72  A    between atoms: C_122  and  O_124
REMARK   73  A    between atoms: C_126  and  N_128
REMARK                            x       y       z     vdW  Elec       q    Type
REMARK                         _______ _______ _______ _____ _____    ______ ____
ROOT
ATOM      1  C   UNL     1       6.755  -6.678  26.742  0.00  0.00    +0.127 C 
ENDROOT
BRANCH   1   2
ATOM      2  N   UNL     1       7.650  -7.885  26.693  0.00  0.00    -0.322 NA
ATOM      3  H   UNL     1       7.151  -8.671  26.280  0.00  0.00    +0.119 HD
ATOM      4  H   UNL     1       8.374  -7.726  25.988  0.00  0.00    +0.119 HD
ENDBRANCH   1   2
BRANCH   1   5
ATOM      5  C   UNL     1       7.154  -5.742  25.557  0.00  0.00    +0.255 C 
BRANCH   5   6
ATOM      6  O   UNL     1       8.478  -5.129  25.666  0.00  0.00    -0.449 OA
BRANCH   6   7
ATOM      7  C   UNL     1       8.380  -3.773  25.807  0.00  0.00    +0.400 C 
ATOM      8  N   UNL     1       8.651  -3.323  27.103  0.00  0.00    -0.281 N 
ATOM      9  H   UNL     1       9.344  -3.910  27.536  0.00  0.00    +0.152 HD
ATOM     10  O   UNL     1       8.046  -3.149  24.822  0.00  0.00    -0.226 OA
BRANCH   8  11
ATOM     11  C   UNL     1       8.328  -2.036  27.834  0.00  0.00    +0.110 C 
BRANCH  11  12
ATOM     12  C   UNL     1       8.649  -0.612  27.320  0.00  0.00    +0.047 C 
BRANCH  12  13
ATOM     13  C   UNL     1       7.752  -0.095  26.252  0.00  0.00    +0.161 C 
BRANCH  13  14
ATOM     14  O   UNL     1       8.497   0.125  25.054  0.00  0.00    -0.377 OA
BRANCH  14  15
ATOM     15  C   UNL     1       9.617   0.986  25.124  0.00  0.00    +0.188 C 
BRANCH  15  16
ATOM     16  C   UNL     1      11.095   0.421  24.922  0.00  0.00    +0.188 C 
BRANCH  16  17
ATOM     17  O   UNL     1      12.221   0.160  25.829  0.00  0.00    -0.375 OA
BRANCH  17  18
ATOM     18  C   UNL     1      13.654   0.278  25.586  0.00  0.00    +0.188 C 
BRANCH  18  19
ATOM     19  C   UNL     1      14.463  -0.715  24.358  0.00  0.00    +0.188 C 
BRANCH  19  20
ATOM     20  O   UNL     1      14.676  -0.474  22.861  0.00  0.00    -0.377 OA
BRANCH  20  21
ATOM     21  C   UNL     1      13.608  -0.646  21.882  0.00  0.00    +0.161 C 
BRANCH  21  22
ATOM     22  C   UNL     1      13.078  -2.007  21.273  0.00  0.00    +0.047 C 
BRANCH  22  23
ATOM     23  C   UNL     1      11.843  -2.159  20.348  0.00  0.00    +0.104 C 
BRANCH  23  24
ATOM     24  N   UNL     1      10.486  -2.322  20.971  0.00  0.00    -0.339 N 
ATOM     25  H   UNL     1       9.864  -1.531  20.734  0.00  0.00    +0.146 HD
BRANCH  24  26
ATOM     26  C   UNL     1      10.283  -2.863  22.185  0.00  0.00    +0.103 C 
ATOM     27  C   UNL     1      11.087  -2.705  23.408  0.00  0.00    +0.250 C 
ATOM     28  O   UNL     1      12.102  -2.157  23.755  0.00  0.00    -0.282 OA
ATOM     29  C   UNL     1      10.269  -3.744  24.052  0.00  0.00    +0.250 C 
ATOM     30  O   UNL     1      10.453  -4.386  25.040  0.00  0.00    -0.282 OA
ATOM     31  C   UNL     1       9.439  -3.761  22.846  0.00  0.00    +0.103 C 
BRANCH  31  32
ATOM     32  N   UNL     1       8.505  -4.662  22.594  0.00  0.00    -0.339 N 
ATOM     33  H   UNL     1       7.723  -4.385  21.994  0.00  0.00    +0.146 HD
BRANCH  32  34
ATOM     34  C   UNL     1       9.076  -5.904  22.120  0.00  0.00    +0.103 C 
BRANCH  34  35
ATOM     35  C   UNL     1       9.794  -5.912  20.782  0.00  0.00    +0.034 C 
BRANCH  35  36
ATOM     36  C   UNL     1       9.558  -7.059  19.825  0.00  0.00    +0.086 C 
BRANCH  36  37
ATOM     37  N   UNL     1       8.223  -6.964  19.220  0.00  0.00    -0.300 NA
ATOM     38  C   UNL     1       7.705  -5.598  19.464  0.00  0.00    +0.100 C 
ATOM     39  C   UNL     1       7.214  -5.370  20.914  0.00  0.00    +0.100 C 
ATOM     40  N   UNL     1       6.238  -6.386  21.360  0.00  0.00    -0.300 NA
ATOM     41  C   UNL     1       6.873  -7.714  21.214  0.00  0.00    +0.100 C 
ATOM     42  C   UNL     1       7.311  -7.992  19.767  0.00  0.00    +0.100 C 
BRANCH  40  43
ATOM     43  C   UNL     1       5.004  -6.272  20.558  0.00  0.00    +0.086 C 
BRANCH  43  44
ATOM     44  C   UNL     1       4.027  -5.251  21.113  0.00  0.00    +0.034 C 
BRANCH  44  45
ATOM     45  C   UNL     1       4.294  -3.877  20.525  0.00  0.00    +0.106 C 
BRANCH  45  46
ATOM     46  N   UNL     1       4.367  -2.908  21.584  0.00  0.00    -0.311 N 
ATOM     47  H   UNL     1       3.849  -2.055  21.419  0.00  0.00    +0.149 HD
ATOM     48  C   UNL     1       5.394  -2.909  22.503  0.00  0.00    +0.244 C 
ATOM     49  O   UNL     1       6.272  -3.758  22.572  0.00  0.00    -0.270 OA
BRANCH  48  50
ATOM     50  C   UNL     1       5.404  -1.727  23.396  0.00  0.00    +0.047 A 
ATOM     51  C   UNL     1       4.394  -1.546  24.336  0.00  0.00    +0.097 A 
ATOM     52  C   UNL     1       4.511  -0.485  25.239  0.00  0.00    +0.277 A 
ATOM     53  C   UNL     1       5.638   0.356  25.227  0.00  0.00    +0.130 A 
ATOM     54  C   UNL     1       6.626   0.185  24.257  0.00  0.00    +0.131 A 
ATOM     55  C   UNL     1       6.473  -0.827  23.321  0.00  0.00    +0.059 A 
BRANCH  52  56
ATOM     56  N   UNL     1       3.445  -0.252  26.220  0.00  0.00    +0.080 N 
ATOM     57  O   UNL     1       2.276  -0.257  25.811  0.00  0.00    +0.041 OA
ATOM     58  O   UNL     1       3.778  -0.061  27.397  0.00  0.00    -0.576 OA
ENDBRANCH  52  56
BRANCH  54  59
ATOM     59  O   UNL     1       7.705   1.017  24.334  0.00  0.00    -0.461 OA
BRANCH  59  60
ATOM     60  C   UNL     1       7.839   2.101  23.393  0.00  0.00    +0.339 C 
ATOM     61  C   UNL     1       8.057   1.631  21.927  0.00  0.00    +0.214 C 
ATOM     62  C   UNL     1       8.163   2.861  21.003  0.00  0.00    +0.180 C 
ATOM     63  C   UNL     1       7.011   3.849  21.239  0.00  0.00    +0.177 C 
ATOM     64  C   UNL     1       6.938   4.214  22.724  0.00  0.00    +0.179 C 
ATOM     65  O   UNL     1       6.766   3.039  23.521  0.00  0.00    -0.331 OA
BRANCH  61  66
ATOM     66  O   UNL     1       9.216   0.789  21.835  0.00  0.00    -0.383 OA
ATOM     67  H   UNL     1       9.738   0.867  22.650  0.00  0.00    +0.210 HD
ENDBRANCH  61  66
BRANCH  62  68
ATOM     68  O   UNL     1       8.162   2.450  19.631  0.00  0.00    -0.386 OA
ATOM     69  H   UNL     1       7.471   1.763  19.537  0.00  0.00    +0.210 HD
ENDBRANCH  62  68
BRANCH  63  70
ATOM     70  O   UNL     1       7.200   4.995  20.405  0.00  0.00    -0.386 OA
ATOM     71  H   UNL     1       7.414   5.770  20.955  0.00  0.00    +0.210 HD
ENDBRANCH  63  70
BRANCH  64  72
ATOM     72  C   UNL     1       5.755   5.136  23.031  0.00  0.00    +0.190 C 
BRANCH  72  73
ATOM     73  O   UNL     1       5.770   6.237  22.120  0.00  0.00    -0.392 OA
ATOM     74  H   UNL     1       6.702   6.346  21.846  0.00  0.00    +0.210 HD
ENDBRANCH  72  73
ENDBRANCH  64  72
ENDBRANCH  59  60
ENDBRANCH  54  59
ENDBRANCH  48  50
ENDBRANCH  45  46
ENDBRANCH  44  45
ENDBRANCH  43  44
ENDBRANCH  40  43
ENDBRANCH  36  37
ENDBRANCH  35  36
ENDBRANCH  34  35
ENDBRANCH  32  34
ENDBRANCH  31  32
ENDBRANCH  24  26
ENDBRANCH  23  24
ENDBRANCH  22  23
ENDBRANCH  21  22
ENDBRANCH  20  21
ENDBRANCH  19  20
ENDBRANCH  18  19
ENDBRANCH  17  18
ENDBRANCH  16  17
ENDBRANCH  15  16
ENDBRANCH  14  15
ENDBRANCH  13  14
ENDBRANCH  12  13
ENDBRANCH  11  12
ENDBRANCH   8  11
ENDBRANCH   6   7
ENDBRANCH   5   6
ENDBRANCH   1   5
BRANCH   1  75
ATOM     75  C   UNL     1       6.938  -6.032  28.100  0.00  0.00    +0.255 C 
BRANCH  75  76
ATOM     76  O   UNL     1       6.362  -4.655  28.373  0.00  0.00    -0.449 OA
BRANCH  76  77
ATOM     77  C   UNL     1       5.827  -3.799  29.298  0.00  0.00    +0.400 C 
ATOM     78  N   UNL     1       5.425  -2.524  28.893  0.00  0.00    -0.281 N 
ATOM     79  H   UNL     1       5.929  -2.172  28.086  0.00  0.00    +0.152 HD
ATOM     80  O   UNL     1       5.746  -4.020  30.485  0.00  0.00    -0.226 OA
BRANCH  78  81
ATOM     81  C   UNL     1       5.048  -1.549  29.906  0.00  0.00    +0.110 C 
BRANCH  81  82
ATOM     82  C   UNL     1       4.869  -0.134  29.408  0.00  0.00    +0.047 C 
BRANCH  82  83
ATOM     83  C   UNL     1       6.118   0.464  28.788  0.00  0.00    +0.161 C 
BRANCH  83  84
ATOM     84  O   UNL     1       7.192  -0.482  28.735  0.00  0.00    -0.377 OA
BRANCH  84  85
ATOM     85  C   UNL     1       8.439   0.209  28.622  0.00  0.00    +0.188 C 
BRANCH  85  86
ATOM     86  C   UNL     1       9.538  -0.466  29.442  0.00  0.00    +0.188 C 
BRANCH  86  87
ATOM     87  O   UNL     1       9.996  -1.696  28.878  0.00  0.00    -0.375 OA
BRANCH  87  88
ATOM     88  C   UNL     1       9.591  -1.981  27.535  0.00  0.00    +0.188 C 
BRANCH  88  89
ATOM     89  C   UNL     1       8.088  -1.868  27.278  0.00  0.00    +0.188 C 
BRANCH  89  90
ATOM     90  O   UNL     1       7.543  -3.049  26.679  0.00  0.00    -0.377 OA
BRANCH  90  91
ATOM     91  C   UNL     1       6.379  -2.768  25.904  0.00  0.00    +0.161 C 
BRANCH  91  92
ATOM     92  C   UNL     1       5.562  -4.033  25.658  0.00  0.00    +0.047 C 
BRANCH  92  93
ATOM     93  C   UNL     1       4.171  -3.638  25.178  0.00  0.00    +0.104 C 
BRANCH  93  94
ATOM     94  N   UNL     1       3.582  -4.645  24.311  0.00  0.00    -0.339 N 
ATOM     95  H   UNL     1       2.689  -4.368  23.894  0.00  0.00    +0.146 HD
BRANCH  94  96
ATOM     96  C   UNL     1       3.812  -5.924  24.529  0.00  0.00    +0.103 C 
ATOM     97  C   UNL     1       5.023  -6.732  24.211  0.00  0.00    +0.250 C 
ATOM     98  O   UNL     1       6.104  -6.588  23.693  0.00  0.00    -0.282 OA
ATOM     99  C   UNL     1       4.384  -7.864  24.904  0.00  0.00    +0.250 C 
ATOM    100  O   UNL     1       4.739  -8.991  25.127  0.00  0.00    -0.282 OA
ATOM    101  C   UNL     1       3.177  -7.017  25.065  0.00  0.00    +0.103 C 
BRANCH 101 102
ATOM    102  N   UNL     1       2.012  -7.355  25.589  0.00  0.00    -0.339 N 
ATOM    103  H   UNL     1       1.651  -8.278  25.329  0.00  0.00    +0.146 HD
BRANCH 102 104
ATOM    104  C   UNL     1       0.909  -6.387  25.569  0.00  0.00    +0.103 C 
BRANCH 104 105
ATOM    105  C   UNL     1       0.447  -6.079  26.986  0.00  0.00    +0.034 C 
BRANCH 105 106
ATOM    106  C   UNL     1       1.541  -5.360  27.782  0.00  0.00    +0.086 C 
BRANCH 106 107
ATOM    107  N   UNL     1       1.398  -3.892  27.784  0.00  0.00    -0.300 NA
ATOM    108  C   UNL     1       2.728  -3.258  27.972  0.00  0.00    +0.100 C 
ATOM    109  C   UNL     1       3.296  -3.340  29.415  0.00  0.00    +0.100 C 
ATOM    110  N   UNL     1       2.364  -2.891  30.469  0.00  0.00    -0.300 NA
ATOM    111  C   UNL     1       1.070  -3.586  30.278  0.00  0.00    +0.100 C 
ATOM    112  C   UNL     1       0.495  -3.411  28.854  0.00  0.00    +0.100 C 
BRANCH 110 113
ATOM    113  C   UNL     1       2.221  -1.423  30.460  0.00  0.00    +0.086 C 
BRANCH 113 114
ATOM    114  C   UNL     1       0.835  -0.945  30.019  0.00  0.00    +0.034 C 
BRANCH 114 115
ATOM    115  C   UNL     1       0.607   0.520  30.371  0.00  0.00    +0.106 C 
BRANCH 115 116
ATOM    116  N   UNL     1       0.999   1.380  29.273  0.00  0.00    -0.311 N 
ATOM    117  H   UNL     1       0.427   2.190  29.076  0.00  0.00    +0.149 HD
ATOM    118  C   UNL     1       2.070   1.036  28.482  0.00  0.00    +0.244 C 
ATOM    119  O   UNL     1       2.757   0.035  28.654  0.00  0.00    -0.270 OA
BRANCH 118 120
ATOM    120  C   UNL     1       2.350   1.906  27.318  0.00  0.00    +0.047 A 
ATOM    121  C   UNL     1       3.576   2.541  27.116  0.00  0.00    +0.097 A 
ATOM    122  C   UNL     1       3.739   3.340  25.974  0.00  0.00    +0.277 A 
ATOM    123  C   UNL     1       2.686   3.528  25.064  0.00  0.00    +0.130 A 
ATOM    124  C   UNL     1       1.461   2.900  25.289  0.00  0.00    +0.131 A 
ATOM    125  C   UNL     1       1.313   2.064  26.392  0.00  0.00    +0.059 A 
BRANCH 122 126
ATOM    126  N   UNL     1       5.035   3.982  25.727  0.00  0.00    +0.080 N 
ATOM    127  O   UNL     1       5.798   3.439  24.915  0.00  0.00    +0.041 OA
ATOM    128  O   UNL     1       5.290   5.027  26.340  0.00  0.00    -0.576 OA
ENDBRANCH 122 126
BRANCH 124 129
ATOM    129  O   UNL     1       0.470   3.139  24.376  0.00  0.00    -0.461 OA
BRANCH 129 130
ATOM    130  C   UNL     1       0.797   4.093  23.350  0.00  0.00    +0.339 C 
ATOM    131  C   UNL     1       1.771   5.139  23.934  0.00  0.00    +0.214 C 
ATOM    132  C   UNL     1       2.124   6.141  22.822  0.00  0.00    +0.180 C 
ATOM    133  C   UNL     1       2.645   5.420  21.573  0.00  0.00    +0.177 C 
ATOM    134  C   UNL     1       1.653   4.335  21.135  0.00  0.00    +0.179 C 
ATOM    135  O   UNL     1       1.380   3.433  22.218  0.00  0.00    -0.331 OA
BRANCH 133 136
ATOM    136  O   UNL     1       2.876   6.393  20.546  0.00  0.00    -0.386 OA
ATOM    137  H   UNL     1       2.054   6.536  20.045  0.00  0.00    +0.210 HD
ENDBRANCH 133 136
BRANCH 132 138
ATOM    138  O   UNL     1       3.099   7.087  23.271  0.00  0.00    -0.386 OA
ATOM    139  H   UNL     1       3.535   7.436  22.468  0.00  0.00    +0.210 HD
ENDBRANCH 132 138
BRANCH 131 140
ATOM    140  O   UNL     1       1.179   5.809  25.061  0.00  0.00    -0.383 OA
ATOM    141  H   UNL     1       0.610   5.185  25.541  0.00  0.00    +0.210 HD
ENDBRANCH 131 140
BRANCH 134 142
ATOM    142  C   UNL     1       2.204   3.524  19.956  0.00  0.00    +0.190 C 
BRANCH 142 143
ATOM    143  O   UNL     1       3.109   2.530  20.435  0.00  0.00    -0.392 OA
ATOM    144  H   UNL     1       3.559   2.912  21.212  0.00  0.00    +0.210 HD
ENDBRANCH 142 143
ENDBRANCH 134 142
ENDBRANCH 129 130
ENDBRANCH 124 129
ENDBRANCH 118 120
ENDBRANCH 115 116
ENDBRANCH 114 115
ENDBRANCH 113 114
ENDBRANCH 110 113
ENDBRANCH 106 107
ENDBRANCH 105 106
ENDBRANCH 104 105
ENDBRANCH 102 104
ENDBRANCH 101 102
ENDBRANCH  94  96
ENDBRANCH  93  94
ENDBRANCH  92  93
ENDBRANCH  91  92
ENDBRANCH  90  91
ENDBRANCH  89  90
ENDBRANCH  88  89
ENDBRANCH  87  88
ENDBRANCH  86  87
ENDBRANCH  85  86
ENDBRANCH  84  85
ENDBRANCH  83  84
ENDBRANCH  82  83
ENDBRANCH  81  82
ENDBRANCH  78  81
ENDBRANCH  76  77
ENDBRANCH  75  76
ENDBRANCH   1  75
TORSDOF 73
ENDMDL
MODEL 2
REMARK VINA RESULT:      40.1      2.399      8.410
REMARK  Name = 
REMARK  73 active torsions:
REMARK  status: ('A' for Active; 'I' for Inactive)
REMARK    1  A    between atoms: N_1  and  C_2
REMARK    2  A    between atoms: C_2  and  C_3
REMARK    3  A    between atoms: C_2  and  C_70
REMARK    4  A    between atoms: C_3  and  O_4
REMARK    5  A    between atoms: O_4  and  C_5
REMARK    6  A    between atoms: N_7  and  C_8
REMARK    7  A    between atoms: C_8  and  C_9
REMARK    8  A    between atoms: C_9  and  C_10
REMARK    9  A    between atoms: C_10  and  O_11
REMARK   10  A    between atoms: O_11  and  C_12
REMARK   11  A    between atoms: C_12  and  C_13
REMARK   12  A    between atoms: C_13  and  O_14
REMARK   13  A    between atoms: O_14  and  C_15
REMARK   14  A    between atoms: C_15  and  C_16
REMARK   15  A    between atoms: C_16  and  O_17
REMARK   16  A    between atoms: O_17  and  C_18
REMARK   17  A    between atoms: C_18  and  C_19
REMARK   18  A    between atoms: C_19  and  C_20
REMARK   19  A    between atoms: C_20  and  N_21
REMARK   20  A    between atoms: N_21  and  C_22
REMARK   21  A    between atoms: C_23  and  N_24
REMARK   22  A    between atoms: N_24  and  C_25
REMARK   23  A    between atoms: C_25  and  C_26
REMARK   24  A    between atoms: C_26  and  C_27
REMARK   25  A    between atoms: C_27  and  N_28
REMARK   26  A    between atoms: N_31  and  C_32
REMARK   27  A    between atoms: C_32  and  C_33
REMARK   28  A    between atoms: C_33  and  C_34
REMARK   29  A    between atoms: C_34  and  N_35
REMARK   30  A    between atoms: C_36  and  C_38
REMARK   31  A    between atoms: C_40  and  O_41
REMARK   32  A    between atoms: O_41  and  C_42
REMARK   33  A    between atoms: C_45  and  C_47
REMARK   34  A    between atoms: C_47  and  O_48
REMARK   35  A    between atoms: C_49  and  O_51
REMARK   36  A    between atoms: C_52  and  O_54
REMARK   37  A    between atoms: C_55  and  O_57
REMARK   38  A    between atoms: C_59  and  N_61
REMARK   39  A    between atoms: C_70  and  O_71
REMARK   40  A    between atoms: O_71  and  C_72
REMARK   41  A    between atoms: N_74  and  C_75
REMARK   42  A    between atoms: C_75  and  C_76
REMARK   43  A    between atoms: C_76  and  C_77
REMARK   44  A    between atoms: C_77  and  O_78
REMARK   45  A    between atoms: O_78  and  C_79
REMARK   46  A    between atoms: C_79  and  C_80
REMARK   47  A    between atoms: C_80  and  O_81
REMARK   48  A    between atoms: O_81  and  C_82
REMARK   49  A    between atoms: C_82  and  C_83
REMARK   50  A    between atoms: C_83  and  O_84
REMARK   51  A    between atoms: O_84  and  C_85
REMARK   52  A    between atoms: C_85  and  C_86
REMARK   53  A    between atoms: C_86  and  C_87
REMARK   54  A    between atoms: C_87  and  N_88
REMARK   55  A    between atoms: N_88  and  C_89
REMARK   56  A    between atoms: C_90  and  N_91
REMARK   57  A    between atoms: N_91  and  C_92
REMARK   58  A    between atoms: C_92  and  C_93
REMARK   59  A    between atoms: C_93  and  C_94
REMARK   60  A    between atoms: C_94  and  N_95
REMARK   61  A    between atoms: N_98  and  C_99
REMARK   62  A    between atoms: C_99  and  C_100
REMARK   63  A    between atoms: C_100  and  C_101
REMARK   64  A    between atoms: C_101  and  N_102
REMARK   65  A    between atoms: C_103  and  C_105
REMARK   66  A    between atoms: C_107  and  O_108
REMARK   67  A    between atoms: O_108  and  C_109
REMARK   68  A    between atoms: C_112  and  C_114
REMARK   69  A    between atoms: C_114  and  O_115
REMARK   70  A    between atoms: C_116  and  O_118
REMARK   71  A    between atoms: C_119  and  O_121
REMARK   72  A    between atoms: C_122  and  O_124
REMARK   73  A    between atoms: C_126  and  N_128
REMARK                            x       y       z     vdW  Elec       q    Type
REMARK                         _______ _______ _______ _____ _____    ______ ____
ROOT
ATOM      1  C   UNL     1      11.510  -0.043  24.759  0.00  0.00    +0.127 C 
ENDROOT
BRANCH   1   2
ATOM      2  N   UNL     1      11.008   0.339  26.124  0.00  0.00    -0.322 NA
ATOM      3  H   UNL     1      11.732   0.846  26.631  0.00  0.00    +0.119 HD
ATOM      4  H   UNL     1      10.300   1.070  26.019  0.00  0.00    +0.119 HD
ENDBRANCH   1   2
BRANCH   1   5
ATOM      5  C   UNL     1      13.022   0.338  24.685  0.00  0.00    +0.255 C 
BRANCH   5   6
ATOM      6  O   UNL     1      13.848  -0.176  25.780  0.00  0.00    -0.449 OA
BRANCH   6   7
ATOM      7  C   UNL     1      13.840  -1.543  25.799  0.00  0.00    +0.400 C 
ATOM      8  N   UNL     1      13.376  -2.084  27.001  0.00  0.00    -0.281 N 
ATOM      9  H   UNL     1      12.671  -1.487  27.401  0.00  0.00    +0.152 HD
ATOM     10  O   UNL     1      14.257  -2.100  24.805  0.00  0.00    -0.226 OA
BRANCH   8  11
ATOM     11  C   UNL     1      13.518  -3.453  27.637  0.00  0.00    +0.110 C 
BRANCH  11  12
ATOM     12  C   UNL     1      13.992  -4.731  26.905  0.00  0.00    +0.047 C 
BRANCH  12  13
ATOM     13  C   UNL     1      13.014  -5.852  26.867  0.00  0.00    +0.161 C 
BRANCH  13  14
ATOM     14  O   UNL     1      11.718  -5.355  26.534  0.00  0.00    -0.377 OA
BRANCH  14  15
ATOM     15  C   UNL     1      11.643  -4.237  25.671  0.00  0.00    +0.188 C 
BRANCH  15  16
ATOM     16  C   UNL     1      10.255  -3.805  25.012  0.00  0.00    +0.188 C 
BRANCH  16  17
ATOM     17  O   UNL     1       9.661  -2.514  24.638  0.00  0.00    -0.375 OA
BRANCH  17  18
ATOM     18  C   UNL     1       9.865  -1.714  23.436  0.00  0.00    +0.188 C 
BRANCH  18  19
ATOM     19  C   UNL     1       9.389  -0.006  23.376  0.00  0.00    +0.188 C 
BRANCH  19  20
ATOM     20  O   UNL     1       9.932   1.209  24.132  0.00  0.00    -0.377 OA
BRANCH  20  21
ATOM     21  C   UNL     1      10.707   2.256  23.475  0.00  0.00    +0.161 C 
BRANCH  21  22
ATOM     22  C   UNL     1      10.253   3.744  23.186  0.00  0.00    +0.047 C 
BRANCH  22  23
ATOM     23  C   UNL     1       8.951   4.405  23.708  0.00  0.00    +0.104 C 
BRANCH  23  24
ATOM     24  N   UNL     1       7.760   4.480  22.795  0.00  0.00    -0.339 N 
ATOM     25  H   UNL     1       8.042   4.693  21.824  0.00  0.00    +0.146 HD
BRANCH  24  26
ATOM     26  C   UNL     1       6.567   4.977  23.166  0.00  0.00    +0.103 C 
ATOM     27  C   UNL     1       5.365   5.192  22.343  0.00  0.00    +0.250 C 
ATOM     28  O   UNL     1       5.027   5.075  21.192  0.00  0.00    -0.282 OA
ATOM     29  C   UNL     1       4.743   5.894  23.476  0.00  0.00    +0.250 C 
ATOM     30  O   UNL     1       3.793   6.612  23.527  0.00  0.00    -0.282 OA
ATOM     31  C   UNL     1       5.920   5.538  24.271  0.00  0.00    +0.103 C 
BRANCH  31  32
ATOM     32  N   UNL     1       6.182   6.019  25.474  0.00  0.00    -0.339 N 
ATOM     33  H   UNL     1       6.133   5.375  26.269  0.00  0.00    +0.146 HD
BRANCH  32  34
ATOM     34  C   UNL     1       7.437   6.738  25.499  0.00  0.00    +0.103 C 
BRANCH  34  35
ATOM     35  C   UNL     1       8.729   5.954  25.349  0.00  0.00    +0.034 C 
BRANCH  35  36
ATOM     36  C   UNL     1       8.928   4.696  26.164  0.00  0.00    +0.086 C 
BRANCH  36  37
ATOM     37  N   UNL     1       7.666   3.953  26.288  0.00  0.00    -0.300 NA
ATOM     38  C   UNL     1       7.365   3.800  27.730  0.00  0.00    +0.100 C 
ATOM     39  C   UNL     1       8.226   2.723  28.432  0.00  0.00    +0.100 C 
ATOM     40  N   UNL     1       8.186   1.414  27.748  0.00  0.00    -0.300 NA
ATOM     41  C   UNL     1       8.628   1.622  26.352  0.00  0.00    +0.100 C 
ATOM     42  C   UNL     1       7.747   2.641  25.611  0.00  0.00    +0.100 C 
BRANCH  40  43
ATOM     43  C   UNL     1       6.819   0.860  27.819  0.00  0.00    +0.086 C 
BRANCH  43  44
ATOM     44  C   UNL     1       6.719  -0.549  27.262  0.00  0.00    +0.034 C 
BRANCH  44  45
ATOM     45  C   UNL     1       5.505  -0.686  26.362  0.00  0.00    +0.106 C 
BRANCH  45  46
ATOM     46  N   UNL     1       5.074   0.618  25.938  0.00  0.00    -0.311 N 
ATOM     47  H   UNL     1       5.746   1.130  25.382  0.00  0.00    +0.149 HD
ATOM     48  C   UNL     1       4.075   1.304  26.593  0.00  0.00    +0.244 C 
ATOM     49  O   UNL     1       3.407   0.858  27.515  0.00  0.00    -0.270 OA
BRANCH  48  50
ATOM     50  C   UNL     1       3.903   2.702  26.133  0.00  0.00    +0.047 A 
ATOM     51  C   UNL     1       3.733   3.731  27.055  0.00  0.00    +0.097 A 
ATOM     52  C   UNL     1       3.700   5.046  26.581  0.00  0.00    +0.277 A 
ATOM     53  C   UNL     1       3.873   5.329  25.214  0.00  0.00    +0.130 A 
ATOM     54  C   UNL     1       4.008   4.287  24.298  0.00  0.00    +0.131 A 
ATOM     55  C   UNL     1       3.973   2.980  24.763  0.00  0.00    +0.059 A 
BRANCH  52  56
ATOM     56  N   UNL     1       3.489   6.147  27.527  0.00  0.00    +0.080 N 
ATOM     57  O   UNL     1       2.806   7.108  27.149  0.00  0.00    +0.041 OA
ATOM     58  O   UNL     1       4.011   6.052  28.646  0.00  0.00    -0.576 OA
ENDBRANCH  52  56
BRANCH  54  59
ATOM     59  O   UNL     1       4.209   4.643  22.995  0.00  0.00    -0.461 OA
BRANCH  59  60
ATOM     60  C   UNL     1       3.418   4.031  21.957  0.00  0.00    +0.339 C 
ATOM     61  C   UNL     1       2.219   4.904  21.491  0.00  0.00    +0.214 C 
ATOM     62  C   UNL     1       1.456   4.173  20.368  0.00  0.00    +0.180 C 
ATOM     63  C   UNL     1       2.406   3.673  19.268  0.00  0.00    +0.177 C 
ATOM     64  C   UNL     1       3.520   2.828  19.892  0.00  0.00    +0.179 C 
ATOM     65  O   UNL     1       4.236   3.586  20.871  0.00  0.00    -0.331 OA
BRANCH  61  66
ATOM     66  O   UNL     1       1.365   5.223  22.600  0.00  0.00    -0.383 OA
ATOM     67  H   UNL     1       1.446   6.168  22.807  0.00  0.00    +0.210 HD
ENDBRANCH  61  66
BRANCH  62  68
ATOM     68  O   UNL     1       0.476   5.042  19.789  0.00  0.00    -0.386 OA
ATOM     69  H   UNL     1       0.193   4.635  18.944  0.00  0.00    +0.210 HD
ENDBRANCH  62  68
BRANCH  63  70
ATOM     70  O   UNL     1       1.652   2.949  18.294  0.00  0.00    -0.386 OA
ATOM     71  H   UNL     1       1.789   3.342  17.413  0.00  0.00    +0.210 HD
ENDBRANCH  63  70
BRANCH  64  72
ATOM     72  C   UNL     1       4.543   2.369  18.850  0.00  0.00    +0.190 C 
BRANCH  72  73
ATOM     73  O   UNL     1       3.859   1.738  17.766  0.00  0.00    -0.392 OA
ATOM     74  H   UNL     1       2.984   1.478  18.117  0.00  0.00    +0.210 HD
ENDBRANCH  72  73
ENDBRANCH  64  72
ENDBRANCH  59  60
ENDBRANCH  54  59
ENDBRANCH  48  50
ENDBRANCH  45  46
ENDBRANCH  44  45
ENDBRANCH  43  44
ENDBRANCH  40  43
ENDBRANCH  36  37
ENDBRANCH  35  36
ENDBRANCH  34  35
ENDBRANCH  32  34
ENDBRANCH  31  32
ENDBRANCH  24  26
ENDBRANCH  23  24
ENDBRANCH  22  23
ENDBRANCH  21  22
ENDBRANCH  20  21
ENDBRANCH  19  20
ENDBRANCH  18  19
ENDBRANCH  17  18
ENDBRANCH  16  17
ENDBRANCH  15  16
ENDBRANCH  14  15
ENDBRANCH  13  14
ENDBRANCH  12  13
ENDBRANCH  11  12
ENDBRANCH   8  11
ENDBRANCH   6   7
ENDBRANCH   5   6
ENDBRANCH   1   5
BRANCH   1  75
ATOM     75  C   UNL     1      10.659   0.691  23.742  0.00  0.00    +0.255 C 
BRANCH  75  76
ATOM     76  O   UNL     1       9.361   0.078  23.250  0.00  0.00    -0.449 OA
BRANCH  76  77
ATOM     77  C   UNL     1       8.414  -0.895  23.428  0.00  0.00    +0.400 C 
ATOM     78  N   UNL     1       7.115  -0.523  23.786  0.00  0.00    -0.281 N 
ATOM     79  H   UNL     1       7.065   0.354  24.294  0.00  0.00    +0.152 HD
ATOM     80  O   UNL     1       8.622  -2.085  23.384  0.00  0.00    -0.226 OA
BRANCH  78  81
ATOM     81  C   UNL     1       6.166  -1.557  24.170  0.00  0.00    +0.110 C 
BRANCH  81  82
ATOM     82  C   UNL     1       4.859  -1.057  24.740  0.00  0.00    +0.047 C 
BRANCH  82  83
ATOM     83  C   UNL     1       4.178  -2.040  25.674  0.00  0.00    +0.161 C 
BRANCH  83  84
ATOM     84  O   UNL     1       3.885  -3.280  25.022  0.00  0.00    -0.377 OA
BRANCH  84  85
ATOM     85  C   UNL     1       5.103  -3.960  24.707  0.00  0.00    +0.188 C 
BRANCH  85  86
ATOM     86  C   UNL     1       5.152  -5.355  25.330  0.00  0.00    +0.188 C 
BRANCH  86  87
ATOM     87  O   UNL     1       4.190  -5.550  26.369  0.00  0.00    -0.375 OA
BRANCH  87  88
ATOM     88  C   UNL     1       3.049  -6.353  26.049  0.00  0.00    +0.188 C 
BRANCH  88  89
ATOM     89  C   UNL     1       2.487  -7.166  27.216  0.00  0.00    +0.188 C 
BRANCH  89  90
ATOM     90  O   UNL     1       2.312  -6.381  28.400  0.00  0.00    -0.377 OA
BRANCH  90  91
ATOM     91  C   UNL     1       1.187  -5.511  28.304  0.00  0.00    +0.161 C 
BRANCH  91  92
ATOM     92  C   UNL     1       0.444  -5.715  26.987  0.00  0.00    +0.047 C 
BRANCH  92  93
ATOM     93  C   UNL     1       1.410  -6.292  25.959  0.00  0.00    +0.104 C 
BRANCH  93  94
ATOM     94  N   UNL     1       0.992  -7.601  25.484  0.00  0.00    -0.339 N 
ATOM     95  H   UNL     1       0.938  -8.314  26.216  0.00  0.00    +0.146 HD
BRANCH  94  96
ATOM     96  C   UNL     1       1.262  -7.975  24.249  0.00  0.00    +0.103 C 
ATOM     97  C   UNL     1       1.173  -9.328  23.633  0.00  0.00    +0.250 C 
ATOM     98  O   UNL     1       0.887 -10.457  23.951  0.00  0.00    -0.282 OA
ATOM     99  C   UNL     1       1.518  -8.704  22.343  0.00  0.00    +0.250 C 
ATOM    100  O   UNL     1       1.651  -9.145  21.232  0.00  0.00    -0.282 OA
ATOM    101  C   UNL     1       1.700  -7.424  23.070  0.00  0.00    +0.103 C 
BRANCH 101 102
ATOM    102  N   UNL     1       2.112  -6.267  22.585  0.00  0.00    -0.339 N 
ATOM    103  H   UNL     1       2.723  -5.714  23.194  0.00  0.00    +0.146 HD
BRANCH 102 104
ATOM    104  C   UNL     1       1.142  -5.372  21.942  0.00  0.00    +0.103 C 
BRANCH 104 105
ATOM    105  C   UNL     1       1.552  -3.919  22.135  0.00  0.00    +0.034 C 
BRANCH 105 106
ATOM    106  C   UNL     1       2.746  -3.801  23.088  0.00  0.00    +0.086 C 
BRANCH 106 107
ATOM    107  N   UNL     1       3.963  -3.271  22.443  0.00  0.00    -0.300 NA
ATOM    108  C   UNL     1       4.396  -4.188  21.357  0.00  0.00    +0.100 C 
ATOM    109  C   UNL     1       5.060  -5.506  21.838  0.00  0.00    +0.100 C 
ATOM    110  N   UNL     1       6.152  -5.324  22.816  0.00  0.00    -0.300 NA
ATOM    111  C   UNL     1       5.662  -4.450  23.907  0.00  0.00    +0.100 C 
ATOM    112  C   UNL     1       5.085  -3.110  23.395  0.00  0.00    +0.100 C 
BRANCH 110 113
ATOM    113  C   UNL     1       7.362  -4.788  22.166  0.00  0.00    +0.086 C 
BRANCH 113 114
ATOM    114  C   UNL     1       8.621  -5.616  22.434  0.00  0.00    +0.034 C 
BRANCH 114 115
ATOM    115  C   UNL     1       8.283  -6.979  23.026  0.00  0.00    +0.106 C 
BRANCH 115 116
ATOM    116  N   UNL     1       8.244  -6.917  24.473  0.00  0.00    -0.311 N 
ATOM    117  H   UNL     1       8.872  -7.515  24.992  0.00  0.00    +0.149 HD
ATOM    118  C   UNL     1       7.310  -6.125  25.100  0.00  0.00    +0.244 C 
ATOM    119  O   UNL     1       6.495  -5.425  24.508  0.00  0.00    -0.270 OA
BRANCH 118 120
ATOM    120  C   UNL     1       7.261  -6.189  26.577  0.00  0.00    +0.047 A 
ATOM    121  C   UNL     1       7.475  -7.365  27.299  0.00  0.00    +0.097 A 
ATOM    122  C   UNL     1       7.413  -7.314  28.699  0.00  0.00    +0.277 A 
ATOM    123  C   UNL     1       7.113  -6.117  29.369  0.00  0.00    +0.130 A 
ATOM    124  C   UNL     1       6.885  -4.954  28.633  0.00  0.00    +0.131 A 
ATOM    125  C   UNL     1       6.999  -4.989  27.247  0.00  0.00    +0.059 A 
BRANCH 122 126
ATOM    126  N   UNL     1       7.675  -8.533  29.474  0.00  0.00    +0.080 N 
ATOM    127  O   UNL     1       8.784  -8.638  30.019  0.00  0.00    +0.041 OA
ATOM    128  O   UNL     1       6.777  -9.382  29.538  0.00  0.00    -0.576 OA
ENDBRANCH 122 126
BRANCH 124 129
ATOM    129  O   UNL     1       6.578  -3.826  29.344  0.00  0.00    -0.461 OA
BRANCH 129 130
ATOM    130  C   UNL     1       5.326  -3.206  29.000  0.00  0.00    +0.339 C 
ATOM    131  C   UNL     1       4.200  -4.255  29.121  0.00  0.00    +0.214 C 
ATOM    132  C   UNL     1       2.868  -3.575  28.767  0.00  0.00    +0.180 C 
ATOM    133  C   UNL     1       2.649  -2.314  29.611  0.00  0.00    +0.177 C 
ATOM    134  C   UNL     1       3.865  -1.385  29.501  0.00  0.00    +0.179 C 
ATOM    135  O   UNL     1       5.068  -2.085  29.857  0.00  0.00    -0.331 OA
BRANCH 133 136
ATOM    136  O   UNL     1       1.439  -1.678  29.179  0.00  0.00    -0.386 OA
ATOM    137  H   UNL     1       0.923  -2.300  28.636  0.00  0.00    +0.210 HD
ENDBRANCH 133 136
BRANCH 132 138
ATOM    138  O   UNL     1       1.766  -4.470  28.949  0.00  0.00    -0.386 OA
ATOM    139  H   UNL     1       1.341  -4.216  29.792  0.00  0.00    +0.210 HD
ENDBRANCH 132 138
BRANCH 131 140
ATOM    140  O   UNL     1       4.454  -5.373  28.252  0.00  0.00    -0.383 OA
ATOM    141  H   UNL     1       5.408  -5.553  28.232  0.00  0.00    +0.210 HD
ENDBRANCH 131 140
BRANCH 134 142
ATOM    142  C   UNL     1       3.720  -0.171  30.425  0.00  0.00    +0.190 C 
BRANCH 142 143
ATOM    143  O   UNL     1       4.725   0.794  30.118  0.00  0.00    -0.392 OA
ATOM    144  H   UNL     1       5.584   0.337  30.194  0.00  0.00    +0.210 HD
ENDBRANCH 142 143
ENDBRANCH 134 142
ENDBRANCH 129 130
ENDBRANCH 124 129
ENDBRANCH 118 120
ENDBRANCH 115 116
ENDBRANCH 114 115
ENDBRANCH 113 114
ENDBRANCH 110 113
ENDBRANCH 106 107
ENDBRANCH 105 106
ENDBRANCH 104 105
ENDBRANCH 102 104
ENDBRANCH 101 102
ENDBRANCH  94  96
ENDBRANCH  93  94
ENDBRANCH  92  93
ENDBRANCH  91  92
ENDBRANCH  90  91
ENDBRANCH  89  90
ENDBRANCH  88  89
ENDBRANCH  87  88
ENDBRANCH  86  87
ENDBRANCH  85  86
ENDBRANCH  84  85
ENDBRANCH  83  84
ENDBRANCH  82  83
ENDBRANCH  81  82
ENDBRANCH  78  81
ENDBRANCH  76  77
ENDBRANCH  75  76
ENDBRANCH   1  75
TORSDOF 73
ENDMDL
