MODEL 1
REMARK VINA RESULT:      -5.2      0.000      0.000
REMARK  Name = 
REMARK  13 active torsions:
REMARK  status: ('A' for Active; 'I' for Inactive)
REMARK    1  A    between atoms: N_1  and  CA_2
REMARK    2  A    between atoms: CA_2  and  CB_4
REMARK    3  A    between atoms: CA_2  and  C_16
REMARK    4  A    between atoms: CB_4  and  CG_5
REMARK    5  A    between atoms: CG_5  and  CD_6
REMARK    6  A    between atoms: CD_6  and  CE_7
REMARK    7  A    between atoms: CE_7  and  N_8
REMARK    8  A    between atoms: N_8  and  CA_9
REMARK    9  A    between atoms: CA_9  and  C_10
REMARK   10  A    between atoms: CA_9  and  C_13
REMARK   11  A    between atoms: C_10  and  O_11
REMARK   12  A    between atoms: C_13  and  O_14
REMARK   13  A    between atoms: C_16  and  O_17
REMARK                            x       y       z     vdW  Elec       q    Type
REMARK                         _______ _______ _______ _____ _____    ______ ____
ROOT
ATOM      1  CE  UNL     1       9.048  -1.622  22.028  0.00  0.00    +0.082 C 
ENDROOT
BRANCH   1   2
ATOM      2  N   UNL     1       9.885  -0.628  22.721  0.00  0.00    -0.295 NA
ATOM      3  H   UNL     1      10.547  -0.305  22.004  0.00  0.00    +0.123 HD
BRANCH   2   4
ATOM      4  CA  UNL     1       9.089   0.595  23.144  0.00  0.00    +0.273 C 
BRANCH   4   5
ATOM      5  C   UNL     1       8.989   1.528  21.934  0.00  0.00    +0.333 C 
ATOM      6  OXT UNL     1       7.930   1.811  21.391  0.00  0.00    -0.249 OA
BRANCH   5   7
ATOM      7  O   UNL     1      10.165   2.090  21.580  0.00  0.00    -0.479 OA
ATOM      8  H   UNL     1      10.677   1.441  21.038  0.00  0.00    +0.295 HD
ENDBRANCH   5   7
ENDBRANCH   4   5
BRANCH   4   9
ATOM      9  C   UNL     1       9.640   1.346  24.379  0.00  0.00    +0.333 C 
ATOM     10  O   UNL     1       9.696   2.570  24.452  0.00  0.00    -0.249 OA
BRANCH   9  11
ATOM     11  O   UNL     1      10.132   0.597  25.391  0.00  0.00    -0.479 OA
ATOM     12  H   UNL     1      10.499   1.073  26.173  0.00  0.00    +0.295 HD
ENDBRANCH   9  11
ENDBRANCH   4   9
ENDBRANCH   2   4
ENDBRANCH   1   2
BRANCH   1  13
ATOM     13  CD  UNL     1       8.544  -2.682  23.016  0.00  0.00    +0.015 C 
BRANCH  13  14
ATOM     14  CG  UNL     1       9.574  -2.893  24.131  0.00  0.00    +0.003 C 
BRANCH  14  15
ATOM     15  CB  UNL     1       8.906  -3.132  25.488  0.00  0.00    +0.030 C 
BRANCH  15  16
ATOM     16  CA  UNL     1       9.215  -4.510  26.080  0.00  0.00    +0.161 C 
BRANCH  16  17
ATOM     17  N   UNL     1      10.117  -5.315  25.200  0.00  0.00    -0.318 NA
ATOM     18  H1  UNL     1      10.767  -5.841  25.794  0.00  0.00    +0.119 HD
ATOM     19  H2  UNL     1       9.548  -6.042  24.753  0.00  0.00    +0.119 HD
ENDBRANCH  16  17
BRANCH  16  20
ATOM     20  C   UNL     1       7.908  -5.302  26.282  0.00  0.00    +0.322 C 
ATOM     21  OXT UNL     1       7.008  -5.398  25.464  0.00  0.00    -0.249 OA
BRANCH  20  22
ATOM     22  O   UNL     1       7.872  -5.884  27.509  0.00  0.00    -0.480 OA
ATOM     23  H   UNL     1       7.897  -6.859  27.336  0.00  0.00    +0.295 HD
ENDBRANCH  20  22
ENDBRANCH  16  20
ENDBRANCH  15  16
ENDBRANCH  14  15
ENDBRANCH  13  14
ENDBRANCH   1  13
TORSDOF 13
ENDMDL
MODEL 2
REMARK VINA RESULT:      -5.2      2.169      6.805
REMARK  Name = 
REMARK  13 active torsions:
REMARK  status: ('A' for Active; 'I' for Inactive)
REMARK    1  A    between atoms: N_1  and  CA_2
REMARK    2  A    between atoms: CA_2  and  CB_4
REMARK    3  A    between atoms: CA_2  and  C_16
REMARK    4  A    between atoms: CB_4  and  CG_5
REMARK    5  A    between atoms: CG_5  and  CD_6
REMARK    6  A    between atoms: CD_6  and  CE_7
REMARK    7  A    between atoms: CE_7  and  N_8
REMARK    8  A    between atoms: N_8  and  CA_9
REMARK    9  A    between atoms: CA_9  and  C_10
REMARK   10  A    between atoms: CA_9  and  C_13
REMARK   11  A    between atoms: C_10  and  O_11
REMARK   12  A    between atoms: C_13  and  O_14
REMARK   13  A    between atoms: C_16  and  O_17
REMARK                            x       y       z     vdW  Elec       q    Type
REMARK                         _______ _______ _______ _____ _____    ______ ____
ROOT
ATOM      1  CE  UNL     1       7.572  -1.818  26.552  0.00  0.00    +0.082 C 
ENDROOT
BRANCH   1   2
ATOM      2  N   UNL     1       7.705  -2.944  25.613  0.00  0.00    -0.295 NA
ATOM      3  H   UNL     1       8.346  -2.600  24.887  0.00  0.00    +0.123 HD
BRANCH   2   4
ATOM      4  CA  UNL     1       8.391  -4.143  26.249  0.00  0.00    +0.273 C 
BRANCH   4   5
ATOM      5  C   UNL     1       9.506  -4.598  25.302  0.00  0.00    +0.333 C 
ATOM      6  OXT UNL     1       9.967  -3.887  24.419  0.00  0.00    -0.249 OA
BRANCH   5   7
ATOM      7  O   UNL     1      10.005  -5.818  25.594  0.00  0.00    -0.479 OA
ATOM      8  H   UNL     1      10.011  -5.932  26.576  0.00  0.00    +0.295 HD
ENDBRANCH   5   7
ENDBRANCH   4   5
BRANCH   4   9
ATOM      9  C   UNL     1       7.458  -5.320  26.613  0.00  0.00    +0.333 C 
ATOM     10  O   UNL     1       6.440  -5.591  25.982  0.00  0.00    -0.249 OA
BRANCH   9  11
ATOM     11  O   UNL     1       7.764  -6.036  27.717  0.00  0.00    -0.479 OA
ATOM     12  H   UNL     1       7.065  -6.626  28.087  0.00  0.00    +0.295 HD
ENDBRANCH   9  11
ENDBRANCH   4   9
ENDBRANCH   2   4
ENDBRANCH   1   2
BRANCH   1  13
ATOM     13  CD  UNL     1       8.786  -0.886  26.448  0.00  0.00    +0.015 C 
BRANCH  13  14
ATOM     14  CG  UNL     1       8.792  -0.181  25.087  0.00  0.00    +0.003 C 
BRANCH  14  15
ATOM     15  CB  UNL     1      10.201  -0.098  24.493  0.00  0.00    +0.030 C 
BRANCH  15  16
ATOM     16  CA  UNL     1      10.451   1.193  23.707  0.00  0.00    +0.161 C 
BRANCH  16  17
ATOM     17  N   UNL     1       9.667   2.346  24.247  0.00  0.00    -0.318 NA
ATOM     18  H1  UNL     1       8.691   2.245  23.948  0.00  0.00    +0.119 HD
ATOM     19  H2  UNL     1       9.623   2.241  25.267  0.00  0.00    +0.119 HD
ENDBRANCH  16  17
BRANCH  16  20
ATOM     20  C   UNL     1      10.059   0.993  22.230  0.00  0.00    +0.322 C 
ATOM     21  OXT UNL     1       9.873  -0.084  21.688  0.00  0.00    -0.249 OA
BRANCH  20  22
ATOM     22  O   UNL     1       9.953   2.185  21.585  0.00  0.00    -0.480 OA
ATOM     23  H   UNL     1      10.147   1.985  20.634  0.00  0.00    +0.295 HD
ENDBRANCH  20  22
ENDBRANCH  16  20
ENDBRANCH  15  16
ENDBRANCH  14  15
ENDBRANCH  13  14
ENDBRANCH   1  13
TORSDOF 13
ENDMDL
MODEL 3
REMARK VINA RESULT:      -5.2      1.912      6.744
REMARK  Name = 
REMARK  13 active torsions:
REMARK  status: ('A' for Active; 'I' for Inactive)
REMARK    1  A    between atoms: N_1  and  CA_2
REMARK    2  A    between atoms: CA_2  and  CB_4
REMARK    3  A    between atoms: CA_2  and  C_16
REMARK    4  A    between atoms: CB_4  and  CG_5
REMARK    5  A    between atoms: CG_5  and  CD_6
REMARK    6  A    between atoms: CD_6  and  CE_7
REMARK    7  A    between atoms: CE_7  and  N_8
REMARK    8  A    between atoms: N_8  and  CA_9
REMARK    9  A    between atoms: CA_9  and  C_10
REMARK   10  A    between atoms: CA_9  and  C_13
REMARK   11  A    between atoms: C_10  and  O_11
REMARK   12  A    between atoms: C_13  and  O_14
REMARK   13  A    between atoms: C_16  and  O_17
REMARK                            x       y       z     vdW  Elec       q    Type
REMARK                         _______ _______ _______ _____ _____    ______ ____
ROOT
ATOM      1  CE  UNL     1       9.758  -1.944  23.789  0.00  0.00    +0.082 C 
ENDROOT
BRANCH   1   2
ATOM      2  N   UNL     1       9.929  -3.368  24.127  0.00  0.00    -0.295 NA
ATOM      3  H   UNL     1      10.632  -3.371  24.877  0.00  0.00    +0.123 HD
BRANCH   2   4
ATOM      4  CA  UNL     1       8.669  -3.970  24.725  0.00  0.00    +0.273 C 
BRANCH   4   5
ATOM      5  C   UNL     1       9.088  -4.845  25.910  0.00  0.00    +0.333 C 
ATOM      6  OXT UNL     1       8.625  -4.715  27.036  0.00  0.00    -0.249 OA
BRANCH   5   7
ATOM      7  O   UNL     1       9.940  -5.839  25.580  0.00  0.00    -0.479 OA
ATOM      8  H   UNL     1       9.655  -6.228  24.717  0.00  0.00    +0.295 HD
ENDBRANCH   5   7
ENDBRANCH   4   5
BRANCH   4   9
ATOM      9  C   UNL     1       7.784  -4.764  23.736  0.00  0.00    +0.333 C 
ATOM     10  O   UNL     1       8.194  -5.722  23.087  0.00  0.00    -0.249 OA
BRANCH   9  11
ATOM     11  O   UNL     1       6.519  -4.327  23.547  0.00  0.00    -0.479 OA
ATOM     12  H   UNL     1       5.791  -4.839  23.973  0.00  0.00    +0.295 HD
ENDBRANCH   9  11
ENDBRANCH   4   9
ENDBRANCH   2   4
ENDBRANCH   1   2
BRANCH   1  13
ATOM     13  CD  UNL     1       8.920  -1.236  24.862  0.00  0.00    +0.015 C 
BRANCH  13  14
ATOM     14  CG  UNL     1       9.730  -0.103  25.499  0.00  0.00    +0.003 C 
BRANCH  14  15
ATOM     15  CB  UNL     1      10.660   0.574  24.487  0.00  0.00    +0.030 C 
BRANCH  15  16
ATOM     16  CA  UNL     1      10.126   1.917  23.981  0.00  0.00    +0.161 C 
BRANCH  16  17
ATOM     17  N   UNL     1       9.057   2.473  24.866  0.00  0.00    -0.318 NA
ATOM     18  H1  UNL     1       8.196   1.937  24.713  0.00  0.00    +0.119 HD
ATOM     19  H2  UNL     1       9.313   2.255  25.836  0.00  0.00    +0.119 HD
ENDBRANCH  16  17
BRANCH  16  20
ATOM     20  C   UNL     1       9.541   1.751  22.565  0.00  0.00    +0.322 C 
ATOM     21  OXT UNL     1       8.518   1.145  22.291  0.00  0.00    -0.249 OA
BRANCH  20  22
ATOM     22  O   UNL     1      10.321   2.363  21.636  0.00  0.00    -0.480 OA
ATOM     23  H   UNL     1       9.689   2.758  20.983  0.00  0.00    +0.295 HD
ENDBRANCH  20  22
ENDBRANCH  16  20
ENDBRANCH  15  16
ENDBRANCH  14  15
ENDBRANCH  13  14
ENDBRANCH   1  13
TORSDOF 13
ENDMDL
MODEL 4
REMARK VINA RESULT:      -5.2      1.541      2.221
REMARK  Name = 
REMARK  13 active torsions:
REMARK  status: ('A' for Active; 'I' for Inactive)
REMARK    1  A    between atoms: N_1  and  CA_2
REMARK    2  A    between atoms: CA_2  and  CB_4
REMARK    3  A    between atoms: CA_2  and  C_16
REMARK    4  A    between atoms: CB_4  and  CG_5
REMARK    5  A    between atoms: CG_5  and  CD_6
REMARK    6  A    between atoms: CD_6  and  CE_7
REMARK    7  A    between atoms: CE_7  and  N_8
REMARK    8  A    between atoms: N_8  and  CA_9
REMARK    9  A    between atoms: CA_9  and  C_10
REMARK   10  A    between atoms: CA_9  and  C_13
REMARK   11  A    between atoms: C_10  and  O_11
REMARK   12  A    between atoms: C_13  and  O_14
REMARK   13  A    between atoms: C_16  and  O_17
REMARK                            x       y       z     vdW  Elec       q    Type
REMARK                         _______ _______ _______ _____ _____    ______ ____
ROOT
ATOM      1  CE  UNL     1       8.464  -0.655  24.274  0.00  0.00    +0.082 C 
ENDROOT
BRANCH   1   2
ATOM      2  N   UNL     1       9.818  -0.096  24.427  0.00  0.00    -0.295 NA
ATOM      3  H   UNL     1      10.395  -0.895  24.719  0.00  0.00    +0.123 HD
BRANCH   2   4
ATOM      4  CA  UNL     1      10.394   0.380  23.103  0.00  0.00    +0.273 C 
BRANCH   4   5
ATOM      5  C   UNL     1      10.104   1.879  22.982  0.00  0.00    +0.333 C 
ATOM      6  OXT UNL     1       9.796   2.582  23.935  0.00  0.00    -0.249 OA
BRANCH   5   7
ATOM      7  O   UNL     1      10.318   2.378  21.745  0.00  0.00    -0.479 OA
ATOM      8  H   UNL     1      10.098   3.341  21.749  0.00  0.00    +0.295 HD
ENDBRANCH   5   7
ENDBRANCH   4   5
BRANCH   4   9
ATOM      9  C   UNL     1       9.895  -0.384  21.855  0.00  0.00    +0.333 C 
ATOM     10  O   UNL     1       9.066   0.073  21.073  0.00  0.00    -0.249 OA
BRANCH   9  11
ATOM     11  O   UNL     1      10.363  -1.638  21.667  0.00  0.00    -0.479 OA
ATOM     12  H   UNL     1      11.170  -1.745  21.110  0.00  0.00    +0.295 HD
ENDBRANCH   9  11
ENDBRANCH   4   9
ENDBRANCH   2   4
ENDBRANCH   1   2
BRANCH   1  13
ATOM     13  CD  UNL     1       8.423  -2.105  24.774  0.00  0.00    +0.015 C 
BRANCH  13  14
ATOM     14  CG  UNL     1       7.849  -3.019  23.686  0.00  0.00    +0.003 C 
BRANCH  14  15
ATOM     15  CB  UNL     1       8.218  -4.488  23.921  0.00  0.00    +0.030 C 
BRANCH  15  16
ATOM     16  CA  UNL     1       8.737  -4.762  25.335  0.00  0.00    +0.161 C 
BRANCH  16  17
ATOM     17  N   UNL     1       9.942  -5.646  25.335  0.00  0.00    -0.318 NA
ATOM     18  H1  UNL     1      10.261  -5.762  26.303  0.00  0.00    +0.119 HD
ATOM     19  H2  UNL     1       9.638  -6.587  25.062  0.00  0.00    +0.119 HD
ENDBRANCH  16  17
BRANCH  16  20
ATOM     20  C   UNL     1       7.639  -5.443  26.176  0.00  0.00    +0.322 C 
ATOM     21  OXT UNL     1       6.491  -5.637  25.813  0.00  0.00    -0.249 OA
BRANCH  20  22
ATOM     22  O   UNL     1       8.109  -5.801  27.400  0.00  0.00    -0.480 OA
ATOM     23  H   UNL     1       7.570  -6.588  27.666  0.00  0.00    +0.295 HD
ENDBRANCH  20  22
ENDBRANCH  16  20
ENDBRANCH  15  16
ENDBRANCH  14  15
ENDBRANCH  13  14
ENDBRANCH   1  13
TORSDOF 13
ENDMDL
MODEL 5
REMARK VINA RESULT:      -5.1      2.323      6.282
REMARK  Name = 
REMARK  13 active torsions:
REMARK  status: ('A' for Active; 'I' for Inactive)
REMARK    1  A    between atoms: N_1  and  CA_2
REMARK    2  A    between atoms: CA_2  and  CB_4
REMARK    3  A    between atoms: CA_2  and  C_16
REMARK    4  A    between atoms: CB_4  and  CG_5
REMARK    5  A    between atoms: CG_5  and  CD_6
REMARK    6  A    between atoms: CD_6  and  CE_7
REMARK    7  A    between atoms: CE_7  and  N_8
REMARK    8  A    between atoms: N_8  and  CA_9
REMARK    9  A    between atoms: CA_9  and  C_10
REMARK   10  A    between atoms: CA_9  and  C_13
REMARK   11  A    between atoms: C_10  and  O_11
REMARK   12  A    between atoms: C_13  and  O_14
REMARK   13  A    between atoms: C_16  and  O_17
REMARK                            x       y       z     vdW  Elec       q    Type
REMARK                         _______ _______ _______ _____ _____    ______ ____
ROOT
ATOM      1  CE  UNL     1       8.533  -1.656  25.837  0.00  0.00    +0.082 C 
ENDROOT
BRANCH   1   2
ATOM      2  N   UNL     1       8.892  -2.445  24.647  0.00  0.00    -0.295 NA
ATOM      3  H   UNL     1       9.902  -2.611  24.743  0.00  0.00    +0.123 HD
BRANCH   2   4
ATOM      4  CA  UNL     1       8.236  -3.817  24.650  0.00  0.00    +0.273 C 
BRANCH   4   5
ATOM      5  C   UNL     1       9.212  -4.798  25.306  0.00  0.00    +0.333 C 
ATOM      6  OXT UNL     1      10.371  -4.938  24.938  0.00  0.00    -0.249 OA
BRANCH   5   7
ATOM      7  O   UNL     1       8.708  -5.424  26.392  0.00  0.00    -0.479 OA
ATOM      8  H   UNL     1       7.827  -5.031  26.604  0.00  0.00    +0.295 HD
ENDBRANCH   5   7
ENDBRANCH   4   5
BRANCH   4   9
ATOM      9  C   UNL     1       7.779  -4.331  23.265  0.00  0.00    +0.333 C 
ATOM     10  O   UNL     1       7.600  -5.520  23.015  0.00  0.00    -0.249 OA
BRANCH   9  11
ATOM     11  O   UNL     1       7.631  -3.417  22.281  0.00  0.00    -0.479 OA
ATOM     12  H   UNL     1       7.502  -3.752  21.362  0.00  0.00    +0.295 HD
ENDBRANCH   9  11
ENDBRANCH   4   9
ENDBRANCH   2   4
ENDBRANCH   1   2
BRANCH   1  13
ATOM     13  CD  UNL     1       9.112  -0.239  25.736  0.00  0.00    +0.015 C 
BRANCH  13  14
ATOM     14  CG  UNL     1      10.248  -0.207  24.709  0.00  0.00    +0.003 C 
BRANCH  14  15
ATOM     15  CB  UNL     1      10.184   1.041  23.823  0.00  0.00    +0.030 C 
BRANCH  15  16
ATOM     16  CA  UNL     1      10.159   0.719  22.326  0.00  0.00    +0.161 C 
BRANCH  16  17
ATOM     17  N   UNL     1       9.665   1.869  21.507  0.00  0.00    -0.318 NA
ATOM     18  H1  UNL     1      10.399   2.135  20.843  0.00  0.00    +0.119 HD
ATOM     19  H2  UNL     1       8.907   1.521  20.910  0.00  0.00    +0.119 HD
ENDBRANCH  16  17
BRANCH  16  20
ATOM     20  C   UNL     1       9.242  -0.490  22.063  0.00  0.00    +0.322 C 
ATOM     21  OXT UNL     1       8.038  -0.520  22.263  0.00  0.00    -0.249 OA
BRANCH  20  22
ATOM     22  O   UNL     1       9.947  -1.546  21.579  0.00  0.00    -0.480 OA
ATOM     23  H   UNL     1       9.731  -2.302  22.182  0.00  0.00    +0.295 HD
ENDBRANCH  20  22
ENDBRANCH  16  20
ENDBRANCH  15  16
ENDBRANCH  14  15
ENDBRANCH  13  14
ENDBRANCH   1  13
TORSDOF 13
ENDMDL
MODEL 6
REMARK VINA RESULT:      -5.1      1.809      6.583
REMARK  Name = 
REMARK  13 active torsions:
REMARK  status: ('A' for Active; 'I' for Inactive)
REMARK    1  A    between atoms: N_1  and  CA_2
REMARK    2  A    between atoms: CA_2  and  CB_4
REMARK    3  A    between atoms: CA_2  and  C_16
REMARK    4  A    between atoms: CB_4  and  CG_5
REMARK    5  A    between atoms: CG_5  and  CD_6
REMARK    6  A    between atoms: CD_6  and  CE_7
REMARK    7  A    between atoms: CE_7  and  N_8
REMARK    8  A    between atoms: N_8  and  CA_9
REMARK    9  A    between atoms: CA_9  and  C_10
REMARK   10  A    between atoms: CA_9  and  C_13
REMARK   11  A    between atoms: C_10  and  O_11
REMARK   12  A    between atoms: C_13  and  O_14
REMARK   13  A    between atoms: C_16  and  O_17
REMARK                            x       y       z     vdW  Elec       q    Type
REMARK                         _______ _______ _______ _____ _____    ______ ____
ROOT
ATOM      1  CE  UNL     1       9.804  -1.891  23.837  0.00  0.00    +0.082 C 
ENDROOT
BRANCH   1   2
ATOM      2  N   UNL     1       9.927  -3.343  24.051  0.00  0.00    -0.295 NA
ATOM      3  H   UNL     1      10.652  -3.436  24.773  0.00  0.00    +0.123 HD
BRANCH   2   4
ATOM      4  CA  UNL     1       8.662  -3.944  24.643  0.00  0.00    +0.273 C 
BRANCH   4   5
ATOM      5  C   UNL     1       9.075  -5.136  25.511  0.00  0.00    +0.333 C 
ATOM      6  OXT UNL     1       8.288  -5.760  26.210  0.00  0.00    -0.249 OA
BRANCH   5   7
ATOM      7  O   UNL     1      10.367  -5.500  25.358  0.00  0.00    -0.479 OA
ATOM      8  H   UNL     1      10.940  -4.825  25.797  0.00  0.00    +0.295 HD
ENDBRANCH   5   7
ENDBRANCH   4   5
BRANCH   4   9
ATOM      9  C   UNL     1       7.584  -4.354  23.613  0.00  0.00    +0.333 C 
ATOM     10  O   UNL     1       7.649  -4.069  22.421  0.00  0.00    -0.249 OA
BRANCH   9  11
ATOM     11  O   UNL     1       6.497  -5.007  24.081  0.00  0.00    -0.479 OA
ATOM     12  H   UNL     1       5.645  -4.878  23.601  0.00  0.00    +0.295 HD
ENDBRANCH   9  11
ENDBRANCH   4   9
ENDBRANCH   2   4
ENDBRANCH   1   2
BRANCH   1  13
ATOM     13  CD  UNL     1      10.416  -1.494  22.488  0.00  0.00    +0.015 C 
BRANCH  13  14
ATOM     14  CG  UNL     1       9.410  -0.673  21.674  0.00  0.00    +0.003 C 
BRANCH  14  15
ATOM     15  CB  UNL     1       8.502   0.172  22.573  0.00  0.00    +0.030 C 
BRANCH  15  16
ATOM     16  CA  UNL     1       8.922   1.643  22.644  0.00  0.00    +0.161 C 
BRANCH  16  17
ATOM     17  N   UNL     1       9.955   1.987  21.618  0.00  0.00    -0.318 NA
ATOM     18  H1  UNL     1      10.771   2.381  22.098  0.00  0.00    +0.119 HD
ATOM     19  H2  UNL     1      10.303   1.108  21.221  0.00  0.00    +0.119 HD
ENDBRANCH  16  17
BRANCH  16  20
ATOM     20  C   UNL     1       9.502   1.959  24.036  0.00  0.00    +0.322 C 
ATOM     21  OXT UNL     1       8.861   2.365  24.992  0.00  0.00    -0.249 OA
BRANCH  20  22
ATOM     22  O   UNL     1      10.842   1.737  24.072  0.00  0.00    -0.480 OA
ATOM     23  H   UNL     1      11.050   1.258  23.230  0.00  0.00    +0.295 HD
ENDBRANCH  20  22
ENDBRANCH  16  20
ENDBRANCH  15  16
ENDBRANCH  14  15
ENDBRANCH  13  14
ENDBRANCH   1  13
TORSDOF 13
ENDMDL
MODEL 7
REMARK VINA RESULT:      -5.1      2.322      5.947
REMARK  Name = 
REMARK  13 active torsions:
REMARK  status: ('A' for Active; 'I' for Inactive)
REMARK    1  A    between atoms: N_1  and  CA_2
REMARK    2  A    between atoms: CA_2  and  CB_4
REMARK    3  A    between atoms: CA_2  and  C_16
REMARK    4  A    between atoms: CB_4  and  CG_5
REMARK    5  A    between atoms: CG_5  and  CD_6
REMARK    6  A    between atoms: CD_6  and  CE_7
REMARK    7  A    between atoms: CE_7  and  N_8
REMARK    8  A    between atoms: N_8  and  CA_9
REMARK    9  A    between atoms: CA_9  and  C_10
REMARK   10  A    between atoms: CA_9  and  C_13
REMARK   11  A    between atoms: C_10  and  O_11
REMARK   12  A    between atoms: C_13  and  O_14
REMARK   13  A    between atoms: C_16  and  O_17
REMARK                            x       y       z     vdW  Elec       q    Type
REMARK                         _______ _______ _______ _____ _____    ______ ____
ROOT
ATOM      1  CE  UNL     1       8.874  -1.687  26.096  0.00  0.00    +0.082 C 
ENDROOT
BRANCH   1   2
ATOM      2  N   UNL     1       8.135  -2.429  25.059  0.00  0.00    -0.295 NA
ATOM      3  H   UNL     1       8.072  -1.774  24.270  0.00  0.00    +0.123 HD
BRANCH   2   4
ATOM      4  CA  UNL     1       8.915  -3.630  24.549  0.00  0.00    +0.273 C 
BRANCH   4   5
ATOM      5  C   UNL     1       8.106  -4.262  23.413  0.00  0.00    +0.333 C 
ATOM      6  OXT UNL     1       7.796  -5.446  23.388  0.00  0.00    -0.249 OA
BRANCH   5   7
ATOM      7  O   UNL     1       7.679  -3.375  22.489  0.00  0.00    -0.479 OA
ATOM      8  H   UNL     1       8.464  -3.007  22.015  0.00  0.00    +0.295 HD
ENDBRANCH   5   7
ENDBRANCH   4   5
BRANCH   4   9
ATOM      9  C   UNL     1       9.281  -4.682  25.622  0.00  0.00    +0.333 C 
ATOM     10  O   UNL     1       8.704  -4.771  26.702  0.00  0.00    -0.249 OA
BRANCH   9  11
ATOM     11  O   UNL     1      10.328  -5.496  25.361  0.00  0.00    -0.479 OA
ATOM     12  H   UNL     1      10.624  -6.103  26.080  0.00  0.00    +0.295 HD
ENDBRANCH   9  11
ENDBRANCH   4   9
ENDBRANCH   2   4
ENDBRANCH   1   2
BRANCH   1  13
ATOM     13  CD  UNL     1       8.956  -0.199  25.734  0.00  0.00    +0.015 C 
BRANCH  13  14
ATOM     14  CG  UNL     1      10.198   0.067  24.878  0.00  0.00    +0.003 C 
BRANCH  14  15
ATOM     15  CB  UNL     1       9.971   1.208  23.880  0.00  0.00    +0.030 C 
BRANCH  15  16
ATOM     16  CA  UNL     1      10.135   0.776  22.421  0.00  0.00    +0.161 C 
BRANCH  16  17
ATOM     17  N   UNL     1       9.694   1.836  21.463  0.00  0.00    -0.318 NA
ATOM     18  H1  UNL     1       8.715   1.663  21.213  0.00  0.00    +0.119 HD
ATOM     19  H2  UNL     1       9.664   2.724  21.975  0.00  0.00    +0.119 HD
ENDBRANCH  16  17
BRANCH  16  20
ATOM     20  C   UNL     1       9.304  -0.493  22.151  0.00  0.00    +0.322 C 
ATOM     21  OXT UNL     1       8.107  -0.610  22.358  0.00  0.00    -0.249 OA
BRANCH  20  22
ATOM     22  O   UNL     1      10.079  -1.492  21.652  0.00  0.00    -0.480 OA
ATOM     23  H   UNL     1      10.665  -1.057  20.982  0.00  0.00    +0.295 HD
ENDBRANCH  20  22
ENDBRANCH  16  20
ENDBRANCH  15  16
ENDBRANCH  14  15
ENDBRANCH  13  14
ENDBRANCH   1  13
TORSDOF 13
ENDMDL
MODEL 8
REMARK VINA RESULT:      -5.0      2.290      5.956
REMARK  Name = 
REMARK  13 active torsions:
REMARK  status: ('A' for Active; 'I' for Inactive)
REMARK    1  A    between atoms: N_1  and  CA_2
REMARK    2  A    between atoms: CA_2  and  CB_4
REMARK    3  A    between atoms: CA_2  and  C_16
REMARK    4  A    between atoms: CB_4  and  CG_5
REMARK    5  A    between atoms: CG_5  and  CD_6
REMARK    6  A    between atoms: CD_6  and  CE_7
REMARK    7  A    between atoms: CE_7  and  N_8
REMARK    8  A    between atoms: N_8  and  CA_9
REMARK    9  A    between atoms: CA_9  and  C_10
REMARK   10  A    between atoms: CA_9  and  C_13
REMARK   11  A    between atoms: C_10  and  O_11
REMARK   12  A    between atoms: C_13  and  O_14
REMARK   13  A    between atoms: C_16  and  O_17
REMARK                            x       y       z     vdW  Elec       q    Type
REMARK                         _______ _______ _______ _____ _____    ______ ____
ROOT
ATOM      1  CE  UNL     1       6.107  -2.888  23.908  0.00  0.00    +0.082 C 
ENDROOT
BRANCH   1   2
ATOM      2  N   UNL     1       7.185  -3.168  24.873  0.00  0.00    -0.295 NA
ATOM      3  H   UNL     1       6.837  -2.793  25.764  0.00  0.00    +0.123 HD
BRANCH   2   4
ATOM      4  CA  UNL     1       7.386  -4.659  25.090  0.00  0.00    +0.273 C 
BRANCH   4   5
ATOM      5  C   UNL     1       7.864  -4.859  26.532  0.00  0.00    +0.333 C 
ATOM      6  OXT UNL     1       7.584  -5.844  27.201  0.00  0.00    -0.249 OA
BRANCH   5   7
ATOM      7  O   UNL     1       8.707  -3.896  26.965  0.00  0.00    -0.479 OA
ATOM      8  H   UNL     1       9.277  -3.610  26.209  0.00  0.00    +0.295 HD
ENDBRANCH   5   7
ENDBRANCH   4   5
BRANCH   4   9
ATOM      9  C   UNL     1       8.340  -5.349  24.089  0.00  0.00    +0.333 C 
ATOM     10  O   UNL     1       8.014  -5.645  22.943  0.00  0.00    -0.249 OA
BRANCH   9  11
ATOM     11  O   UNL     1       9.570  -5.687  24.536  0.00  0.00    -0.479 OA
ATOM     12  H   UNL     1       9.986  -6.498  24.159  0.00  0.00    +0.295 HD
ENDBRANCH   9  11
ENDBRANCH   4   9
ENDBRANCH   2   4
ENDBRANCH   1   2
BRANCH   1  13
ATOM     13  CD  UNL     1       6.503  -1.731  22.982  0.00  0.00    +0.015 C 
BRANCH  13  14
ATOM     14  CG  UNL     1       7.906  -1.969  22.414  0.00  0.00    +0.003 C 
BRANCH  14  15
ATOM     15  CB  UNL     1       8.844  -0.790  22.697  0.00  0.00    +0.030 C 
BRANCH  15  16
ATOM     16  CA  UNL     1       9.988  -1.144  23.650  0.00  0.00    +0.161 C 
BRANCH  16  17
ATOM     17  N   UNL     1      10.189  -2.621  23.772  0.00  0.00    -0.318 NA
ATOM     18  H1  UNL     1       9.776  -2.934  24.657  0.00  0.00    +0.119 HD
ATOM     19  H2  UNL     1       9.609  -3.073  23.056  0.00  0.00    +0.119 HD
ENDBRANCH  16  17
BRANCH  16  20
ATOM     20  C   UNL     1       9.697  -0.580  25.055  0.00  0.00    +0.322 C 
ATOM     21  OXT UNL     1       8.890  -1.040  25.846  0.00  0.00    -0.249 OA
BRANCH  20  22
ATOM     22  O   UNL     1      10.454   0.519  25.309  0.00  0.00    -0.480 OA
ATOM     23  H   UNL     1       9.860   1.135  25.810  0.00  0.00    +0.295 HD
ENDBRANCH  20  22
ENDBRANCH  16  20
ENDBRANCH  15  16
ENDBRANCH  14  15
ENDBRANCH  13  14
ENDBRANCH   1  13
TORSDOF 13
ENDMDL
MODEL 9
REMARK VINA RESULT:      -4.9      2.259      5.853
REMARK  Name = 
REMARK  13 active torsions:
REMARK  status: ('A' for Active; 'I' for Inactive)
REMARK    1  A    between atoms: N_1  and  CA_2
REMARK    2  A    between atoms: CA_2  and  CB_4
REMARK    3  A    between atoms: CA_2  and  C_16
REMARK    4  A    between atoms: CB_4  and  CG_5
REMARK    5  A    between atoms: CG_5  and  CD_6
REMARK    6  A    between atoms: CD_6  and  CE_7
REMARK    7  A    between atoms: CE_7  and  N_8
REMARK    8  A    between atoms: N_8  and  CA_9
REMARK    9  A    between atoms: CA_9  and  C_10
REMARK   10  A    between atoms: CA_9  and  C_13
REMARK   11  A    between atoms: C_10  and  O_11
REMARK   12  A    between atoms: C_13  and  O_14
REMARK   13  A    between atoms: C_16  and  O_17
REMARK                            x       y       z     vdW  Elec       q    Type
REMARK                         _______ _______ _______ _____ _____    ______ ____
ROOT
ATOM      1  CE  UNL     1       8.596  -1.885  22.303  0.00  0.00    +0.082 C 
ENDROOT
BRANCH   1   2
ATOM      2  N   UNL     1       8.049  -1.529  23.624  0.00  0.00    -0.295 NA
ATOM      3  H   UNL     1       7.171  -2.059  23.691  0.00  0.00    +0.123 HD
BRANCH   2   4
ATOM      4  CA  UNL     1       8.929  -2.024  24.761  0.00  0.00    +0.273 C 
BRANCH   4   5
ATOM      5  C   UNL     1       8.999  -3.551  24.663  0.00  0.00    +0.333 C 
ATOM      6  OXT UNL     1      10.049  -4.168  24.535  0.00  0.00    -0.249 OA
BRANCH   5   7
ATOM      7  O   UNL     1       7.807  -4.164  24.834  0.00  0.00    -0.479 OA
ATOM      8  H   UNL     1       7.227  -3.947  24.064  0.00  0.00    +0.295 HD
ENDBRANCH   5   7
ENDBRANCH   4   5
BRANCH   4   9
ATOM      9  C   UNL     1       8.493  -1.578  26.175  0.00  0.00    +0.333 C 
ATOM     10  O   UNL     1       7.493  -2.012  26.739  0.00  0.00    -0.249 OA
BRANCH   9  11
ATOM     11  O   UNL     1       9.230  -0.618  26.777  0.00  0.00    -0.479 OA
ATOM     12  H   UNL     1       9.595  -0.818  27.672  0.00  0.00    +0.295 HD
ENDBRANCH   9  11
ENDBRANCH   4   9
ENDBRANCH   2   4
ENDBRANCH   1   2
BRANCH   1  13
ATOM     13  CD  UNL     1       9.746  -0.943  21.927  0.00  0.00    +0.015 C 
BRANCH  13  14
ATOM     14  CG  UNL     1       9.190   0.419  21.498  0.00  0.00    +0.003 C 
BRANCH  14  15
ATOM     15  CB  UNL     1      10.083   1.574  21.964  0.00  0.00    +0.030 C 
BRANCH  15  16
ATOM     16  CA  UNL     1       9.471   2.388  23.107  0.00  0.00    +0.161 C 
BRANCH  16  17
ATOM     17  N   UNL     1      10.023   3.776  23.173  0.00  0.00    -0.318 NA
ATOM     18  H1  UNL     1       9.278   4.408  23.482  0.00  0.00    +0.119 HD
ATOM     19  H2  UNL     1      10.704   3.804  23.940  0.00  0.00    +0.119 HD
ENDBRANCH  16  17
BRANCH  16  20
ATOM     20  C   UNL     1       9.749   1.694  24.455  0.00  0.00    +0.322 C 
ATOM     21  OXT UNL     1      10.743   1.036  24.718  0.00  0.00    -0.249 OA
BRANCH  20  22
ATOM     22  O   UNL     1       8.731   1.898  25.331  0.00  0.00    -0.480 OA
ATOM     23  H   UNL     1       7.917   1.580  24.864  0.00  0.00    +0.295 HD
ENDBRANCH  20  22
ENDBRANCH  16  20
ENDBRANCH  15  16
ENDBRANCH  14  15
ENDBRANCH  13  14
ENDBRANCH   1  13
TORSDOF 13
ENDMDL
