MODEL 1
REMARK VINA RESULT:      -4.4      0.000      0.000
REMARK  Name = 
REMARK  8 active torsions:
REMARK  status: ('A' for Active; 'I' for Inactive)
REMARK    1  A    between atoms: C_1  and  P_2
REMARK    2  A    between atoms: P_2  and  O_3
REMARK    3  A    between atoms: P_2  and  C_5
REMARK    4  A    between atoms: C_5  and  C_6
REMARK    5  A    between atoms: C_6  and  CA_7
REMARK    6  A    between atoms: CA_7  and  N_9
REMARK    7  A    between atoms: CA_7  and  C_10
REMARK    8  A    between atoms: C_10  and  O_11
REMARK                            x       y       z     vdW  Elec       q    Type
REMARK                         _______ _______ _______ _____ _____    ______ ____
ROOT
ATOM      1  CA  UNL     1       7.961  -4.783  25.985  0.00  0.00    +0.161 C 
ENDROOT
BRANCH   1   2
ATOM      2  N   UNL     1       8.009  -5.645  27.201  0.00  0.00    -0.318 NA
ATOM      3  H1  UNL     1       8.774  -6.320  27.083  0.00  0.00    +0.119 HD
ATOM      4  H2  UNL     1       8.285  -5.081  28.007  0.00  0.00    +0.119 HD
ENDBRANCH   1   2
BRANCH   1   5
ATOM      5  C   UNL     1       9.306  -4.936  25.244  0.00  0.00    +0.322 C 
ATOM      6  OXT UNL     1       9.770  -4.118  24.466  0.00  0.00    -0.249 OA
BRANCH   5   7
ATOM      7  O   UNL     1       9.909  -6.107  25.552  0.00  0.00    -0.480 OA
ATOM      8  H   UNL     1       9.253  -6.634  26.068  0.00  0.00    +0.295 HD
ENDBRANCH   5   7
ENDBRANCH   1   5
BRANCH   1   9
ATOM      9  C   UNL     1       6.824  -5.232  25.069  0.00  0.00    +0.039 C 
BRANCH   9  10
ATOM     10  C   UNL     1       6.190  -4.103  24.251  0.00  0.00    +0.099 C 
BRANCH  10  12
ATOM     11  C   UNL     1       7.142  -5.730  21.935  0.00  0.00    +0.111 C 
ATOM     12  P   UNL     1       6.531  -4.161  22.499  0.00  0.00    +0.199 P 
ATOM     13  O   UNL     1       5.454  -3.591  21.630  0.00  0.00    -0.291 OA
BRANCH  12  14
ATOM     14  O   UNL     1       7.853  -3.232  22.381  0.00  0.00    -0.344 OA
ATOM     15  H   UNL     1       8.601  -3.610  22.890  0.00  0.00    +0.218 HD
ENDBRANCH  12  14
ENDBRANCH  10  12
ENDBRANCH   9  10
ENDBRANCH   1   9
TORSDOF 7
ENDMDL
MODEL 2
REMARK VINA RESULT:      -4.2      3.013      3.572
REMARK  Name = 
REMARK  8 active torsions:
REMARK  status: ('A' for Active; 'I' for Inactive)
REMARK    1  A    between atoms: C_1  and  P_2
REMARK    2  A    between atoms: P_2  and  O_3
REMARK    3  A    between atoms: P_2  and  C_5
REMARK    4  A    between atoms: C_5  and  C_6
REMARK    5  A    between atoms: C_6  and  CA_7
REMARK    6  A    between atoms: CA_7  and  N_9
REMARK    7  A    between atoms: CA_7  and  C_10
REMARK    8  A    between atoms: C_10  and  O_11
REMARK                            x       y       z     vdW  Elec       q    Type
REMARK                         _______ _______ _______ _____ _____    ______ ____
ROOT
ATOM      1  CA  UNL     1       8.708  -5.135  25.022  0.00  0.00    +0.161 C 
ENDROOT
BRANCH   1   2
ATOM      2  N   UNL     1      10.138  -5.489  25.256  0.00  0.00    -0.318 NA
ATOM      3  H1  UNL     1      10.519  -4.833  25.949  0.00  0.00    +0.119 HD
ATOM      4  H2  UNL     1      10.192  -6.403  25.709  0.00  0.00    +0.119 HD
ENDBRANCH   1   2
BRANCH   1   5
ATOM      5  C   UNL     1       8.062  -4.847  26.394  0.00  0.00    +0.322 C 
ATOM      6  OXT UNL     1       7.603  -3.769  26.737  0.00  0.00    -0.249 OA
BRANCH   5   7
ATOM      7  O   UNL     1       8.078  -5.943  27.187  0.00  0.00    -0.480 OA
ATOM      8  H   UNL     1       7.730  -5.660  28.066  0.00  0.00    +0.295 HD
ENDBRANCH   5   7
ENDBRANCH   1   5
BRANCH   1   9
ATOM      9  C   UNL     1       8.613  -3.887  24.147  0.00  0.00    +0.039 C 
BRANCH   9  10
ATOM     10  C   UNL     1       9.858  -2.996  24.181  0.00  0.00    +0.099 C 
BRANCH  10  12
ATOM     11  C   UNL     1       8.038  -1.075  22.798  0.00  0.00    +0.111 C 
ATOM     12  P   UNL     1       9.696  -1.443  23.314  0.00  0.00    +0.199 P 
ATOM     13  O   UNL     1      10.393  -0.286  23.960  0.00  0.00    -0.291 OA
BRANCH  12  14
ATOM     14  O   UNL     1      10.416  -1.769  21.900  0.00  0.00    -0.344 OA
ATOM     15  H   UNL     1      10.152  -1.124  21.209  0.00  0.00    +0.218 HD
ENDBRANCH  12  14
ENDBRANCH  10  12
ENDBRANCH   9  10
ENDBRANCH   1   9
TORSDOF 7
ENDMDL
MODEL 3
REMARK VINA RESULT:      -4.1      5.648      6.472
REMARK  Name = 
REMARK  8 active torsions:
REMARK  status: ('A' for Active; 'I' for Inactive)
REMARK    1  A    between atoms: C_1  and  P_2
REMARK    2  A    between atoms: P_2  and  O_3
REMARK    3  A    between atoms: P_2  and  C_5
REMARK    4  A    between atoms: C_5  and  C_6
REMARK    5  A    between atoms: C_6  and  CA_7
REMARK    6  A    between atoms: CA_7  and  N_9
REMARK    7  A    between atoms: CA_7  and  C_10
REMARK    8  A    between atoms: C_10  and  O_11
REMARK                            x       y       z     vdW  Elec       q    Type
REMARK                         _______ _______ _______ _____ _____    ______ ____
ROOT
ATOM      1  CA  UNL     1       9.564   1.562  23.868  0.00  0.00    +0.161 C 
ENDROOT
BRANCH   1   2
ATOM      2  N   UNL     1       8.972   2.383  24.963  0.00  0.00    -0.318 NA
ATOM      3  H1  UNL     1       9.734   2.890  25.429  0.00  0.00    +0.119 HD
ATOM      4  H2  UNL     1       8.385   3.116  24.558  0.00  0.00    +0.119 HD
ENDBRANCH   1   2
BRANCH   1   5
ATOM      5  C   UNL     1      10.413   2.497  22.981  0.00  0.00    +0.322 C 
ATOM      6  OXT UNL     1      11.154   3.374  23.400  0.00  0.00    -0.249 OA
BRANCH   5   7
ATOM      7  O   UNL     1      10.225   2.237  21.667  0.00  0.00    -0.480 OA
ATOM      8  H   UNL     1      10.734   2.921  21.169  0.00  0.00    +0.295 HD
ENDBRANCH   5   7
ENDBRANCH   1   5
BRANCH   1   9
ATOM      9  C   UNL     1      10.458   0.472  24.455  0.00  0.00    +0.039 C 
BRANCH   9  10
ATOM     10  C   UNL     1       9.736  -0.845  24.751  0.00  0.00    +0.099 C 
BRANCH  10  12
ATOM     11  C   UNL     1       8.061  -2.328  22.772  0.00  0.00    +0.111 C 
ATOM     12  P   UNL     1       9.693  -2.002  23.390  0.00  0.00    +0.199 P 
ATOM     13  O   UNL     1      10.700  -1.743  22.314  0.00  0.00    -0.291 OA
BRANCH  12  14
ATOM     14  O   UNL     1      10.053  -3.400  24.124  0.00  0.00    -0.344 OA
ATOM     15  H   UNL     1      10.357  -4.073  23.479  0.00  0.00    +0.218 HD
ENDBRANCH  12  14
ENDBRANCH  10  12
ENDBRANCH   9  10
ENDBRANCH   1   9
TORSDOF 7
ENDMDL
MODEL 4
REMARK VINA RESULT:      -4.1      2.079      2.438
REMARK  Name = 
REMARK  8 active torsions:
REMARK  status: ('A' for Active; 'I' for Inactive)
REMARK    1  A    between atoms: C_1  and  P_2
REMARK    2  A    between atoms: P_2  and  O_3
REMARK    3  A    between atoms: P_2  and  C_5
REMARK    4  A    between atoms: C_5  and  C_6
REMARK    5  A    between atoms: C_6  and  CA_7
REMARK    6  A    between atoms: CA_7  and  N_9
REMARK    7  A    between atoms: CA_7  and  C_10
REMARK    8  A    between atoms: C_10  and  O_11
REMARK                            x       y       z     vdW  Elec       q    Type
REMARK                         _______ _______ _______ _____ _____    ______ ____
ROOT
ATOM      1  CA  UNL     1       8.614  -5.377  25.197  0.00  0.00    +0.161 C 
ENDROOT
BRANCH   1   2
ATOM      2  N   UNL     1      10.084  -5.322  24.952  0.00  0.00    -0.318 NA
ATOM      3  H1  UNL     1      10.556  -5.786  25.737  0.00  0.00    +0.119 HD
ATOM      4  H2  UNL     1      10.314  -5.894  24.137  0.00  0.00    +0.119 HD
ENDBRANCH   1   2
BRANCH   1   5
ATOM      5  C   UNL     1       8.354  -4.869  26.631  0.00  0.00    +0.322 C 
ATOM      6  OXT UNL     1       8.519  -3.718  27.004  0.00  0.00    -0.249 OA
BRANCH   5   7
ATOM      7  O   UNL     1       7.931  -5.868  27.440  0.00  0.00    -0.480 OA
ATOM      8  H   UNL     1       8.602  -6.588  27.371  0.00  0.00    +0.295 HD
ENDBRANCH   5   7
ENDBRANCH   1   5
BRANCH   1   9
ATOM      9  C   UNL     1       7.882  -4.479  24.201  0.00  0.00    +0.039 C 
BRANCH   9  10
ATOM     10  C   UNL     1       7.463  -5.183  22.908  0.00  0.00    +0.099 C 
BRANCH  10  12
ATOM     11  C   UNL     1       4.920  -6.288  24.015  0.00  0.00    +0.111 C 
ATOM     12  P   UNL     1       5.701  -5.387  22.700  0.00  0.00    +0.199 P 
ATOM     13  O   UNL     1       4.966  -4.143  22.307  0.00  0.00    -0.291 OA
BRANCH  12  14
ATOM     14  O   UNL     1       5.626  -6.452  21.481  0.00  0.00    -0.344 OA
ATOM     15  H   UNL     1       6.392  -6.355  20.876  0.00  0.00    +0.218 HD
ENDBRANCH  12  14
ENDBRANCH  10  12
ENDBRANCH   9  10
ENDBRANCH   1   9
TORSDOF 7
ENDMDL
MODEL 5
REMARK VINA RESULT:      -4.1      2.794      3.378
REMARK  Name = 
REMARK  8 active torsions:
REMARK  status: ('A' for Active; 'I' for Inactive)
REMARK    1  A    between atoms: C_1  and  P_2
REMARK    2  A    between atoms: P_2  and  O_3
REMARK    3  A    between atoms: P_2  and  C_5
REMARK    4  A    between atoms: C_5  and  C_6
REMARK    5  A    between atoms: C_6  and  CA_7
REMARK    6  A    between atoms: CA_7  and  N_9
REMARK    7  A    between atoms: CA_7  and  C_10
REMARK    8  A    between atoms: C_10  and  O_11
REMARK                            x       y       z     vdW  Elec       q    Type
REMARK                         _______ _______ _______ _____ _____    ______ ____
ROOT
ATOM      1  CA  UNL     1       8.068  -4.734  25.944  0.00  0.00    +0.161 C 
ENDROOT
BRANCH   1   2
ATOM      2  N   UNL     1       8.137  -5.638  27.129  0.00  0.00    -0.318 NA
ATOM      3  H1  UNL     1       7.313  -5.458  27.715  0.00  0.00    +0.119 HD
ATOM      4  H2  UNL     1       8.029  -6.607  26.823  0.00  0.00    +0.119 HD
ENDBRANCH   1   2
BRANCH   1   5
ATOM      5  C   UNL     1       9.460  -4.721  25.278  0.00  0.00    +0.322 C 
ATOM      6  OXT UNL     1       9.829  -3.904  24.449  0.00  0.00    -0.249 OA
BRANCH   5   7
ATOM      7  O   UNL     1      10.227  -5.746  25.717  0.00  0.00    -0.480 OA
ATOM      8  H   UNL     1       9.743  -6.155  26.474  0.00  0.00    +0.295 HD
ENDBRANCH   5   7
ENDBRANCH   1   5
BRANCH   1   9
ATOM      9  C   UNL     1       7.035  -5.255  24.947  0.00  0.00    +0.039 C 
BRANCH   9  10
ATOM     10  C   UNL     1       5.583  -4.937  25.319  0.00  0.00    +0.099 C 
BRANCH  10  12
ATOM     11  C   UNL     1       3.040  -5.949  26.512  0.00  0.00    +0.111 C 
ATOM     12  P   UNL     1       4.589  -6.358  25.746  0.00  0.00    +0.199 P 
ATOM     13  O   UNL     1       4.469  -7.389  24.667  0.00  0.00    -0.291 OA
BRANCH  12  14
ATOM     14  O   UNL     1       5.415  -6.988  26.989  0.00  0.00    -0.344 OA
ATOM     15  H   UNL     1       4.847  -7.573  27.534  0.00  0.00    +0.218 HD
ENDBRANCH  12  14
ENDBRANCH  10  12
ENDBRANCH   9  10
ENDBRANCH   1   9
TORSDOF 7
ENDMDL
MODEL 6
REMARK VINA RESULT:      -4.0      2.890      4.503
REMARK  Name = 
REMARK  8 active torsions:
REMARK  status: ('A' for Active; 'I' for Inactive)
REMARK    1  A    between atoms: C_1  and  P_2
REMARK    2  A    between atoms: P_2  and  O_3
REMARK    3  A    between atoms: P_2  and  C_5
REMARK    4  A    between atoms: C_5  and  C_6
REMARK    5  A    between atoms: C_6  and  CA_7
REMARK    6  A    between atoms: CA_7  and  N_9
REMARK    7  A    between atoms: CA_7  and  C_10
REMARK    8  A    between atoms: C_10  and  O_11
REMARK                            x       y       z     vdW  Elec       q    Type
REMARK                         _______ _______ _______ _____ _____    ______ ____
ROOT
ATOM      1  CA  UNL     1       7.264  -4.506  22.355  0.00  0.00    +0.161 C 
ENDROOT
BRANCH   1   2
ATOM      2  N   UNL     1       8.037  -5.443  23.221  0.00  0.00    -0.318 NA
ATOM      3  H1  UNL     1       7.455  -6.272  23.391  0.00  0.00    +0.119 HD
ATOM      4  H2  UNL     1       8.844  -5.796  22.703  0.00  0.00    +0.119 HD
ENDBRANCH   1   2
BRANCH   1   5
ATOM      5  C   UNL     1       5.859  -5.107  22.144  0.00  0.00    +0.322 C 
ATOM      6  OXT UNL     1       4.811  -4.495  22.279  0.00  0.00    -0.249 OA
BRANCH   5   7
ATOM      7  O   UNL     1       5.927  -6.414  21.802  0.00  0.00    -0.480 OA
ATOM      8  H   UNL     1       5.057  -6.813  22.041  0.00  0.00    +0.295 HD
ENDBRANCH   5   7
ENDBRANCH   1   5
BRANCH   1   9
ATOM      9  C   UNL     1       7.136  -3.146  23.039  0.00  0.00    +0.039 C 
BRANCH   9  10
ATOM     10  C   UNL     1       8.050  -2.061  22.463  0.00  0.00    +0.099 C 
BRANCH  10  12
ATOM     11  C   UNL     1       9.903  -0.462  24.173  0.00  0.00    +0.111 C 
ATOM     12  P   UNL     1       9.658  -1.947  23.232  0.00  0.00    +0.199 P 
ATOM     13  O   UNL     1      10.104  -3.187  23.943  0.00  0.00    -0.291 OA
BRANCH  12  14
ATOM     14  O   UNL     1      10.625  -1.692  21.958  0.00  0.00    -0.344 OA
ATOM     15  H   UNL     1      10.295  -0.955  21.402  0.00  0.00    +0.218 HD
ENDBRANCH  12  14
ENDBRANCH  10  12
ENDBRANCH   9  10
ENDBRANCH   1   9
TORSDOF 7
ENDMDL
MODEL 7
REMARK VINA RESULT:      -4.0      5.912      6.716
REMARK  Name = 
REMARK  8 active torsions:
REMARK  status: ('A' for Active; 'I' for Inactive)
REMARK    1  A    between atoms: C_1  and  P_2
REMARK    2  A    between atoms: P_2  and  O_3
REMARK    3  A    between atoms: P_2  and  C_5
REMARK    4  A    between atoms: C_5  and  C_6
REMARK    5  A    between atoms: C_6  and  CA_7
REMARK    6  A    between atoms: CA_7  and  N_9
REMARK    7  A    between atoms: CA_7  and  C_10
REMARK    8  A    between atoms: C_10  and  O_11
REMARK                            x       y       z     vdW  Elec       q    Type
REMARK                         _______ _______ _______ _____ _____    ______ ____
ROOT
ATOM      1  CA  UNL     1       8.827  -0.815  23.466  0.00  0.00    +0.161 C 
ENDROOT
BRANCH   1   2
ATOM      2  N   UNL     1       7.886  -0.054  22.594  0.00  0.00    -0.318 NA
ATOM      3  H1  UNL     1       8.220   0.915  22.535  0.00  0.00    +0.119 HD
ATOM      4  H2  UNL     1       7.948  -0.408  21.637  0.00  0.00    +0.119 HD
ENDBRANCH   1   2
BRANCH   1   5
ATOM      5  C   UNL     1       9.915  -1.432  22.563  0.00  0.00    +0.322 C 
ATOM      6  OXT UNL     1      10.677  -2.324  22.899  0.00  0.00    -0.249 OA
BRANCH   5   7
ATOM      7  O   UNL     1       9.932  -0.848  21.342  0.00  0.00    -0.480 OA
ATOM      8  H   UNL     1       8.991  -0.710  21.083  0.00  0.00    +0.295 HD
ENDBRANCH   5   7
ENDBRANCH   1   5
BRANCH   1   9
ATOM      9  C   UNL     1       9.482   0.126  24.476  0.00  0.00    +0.039 C 
BRANCH   9  10
ATOM     10  C   UNL     1      10.687   0.898  23.930  0.00  0.00    +0.099 C 
BRANCH  10  12
ATOM     11  C   UNL     1       8.738   3.155  23.790  0.00  0.00    +0.111 C 
ATOM     12  P   UNL     1      10.307   2.512  23.266  0.00  0.00    +0.199 P 
ATOM     13  O   UNL     1      11.422   3.506  23.356  0.00  0.00    -0.291 OA
BRANCH  12  14
ATOM     14  O   UNL     1      10.022   2.177  21.707  0.00  0.00    -0.344 OA
ATOM     15  H   UNL     1       9.099   1.876  21.570  0.00  0.00    +0.218 HD
ENDBRANCH  12  14
ENDBRANCH  10  12
ENDBRANCH   9  10
ENDBRANCH   1   9
TORSDOF 7
ENDMDL
MODEL 8
REMARK VINA RESULT:      -4.0      4.751      5.658
REMARK  Name = 
REMARK  8 active torsions:
REMARK  status: ('A' for Active; 'I' for Inactive)
REMARK    1  A    between atoms: C_1  and  P_2
REMARK    2  A    between atoms: P_2  and  O_3
REMARK    3  A    between atoms: P_2  and  C_5
REMARK    4  A    between atoms: C_5  and  C_6
REMARK    5  A    between atoms: C_6  and  CA_7
REMARK    6  A    between atoms: CA_7  and  N_9
REMARK    7  A    between atoms: CA_7  and  C_10
REMARK    8  A    between atoms: C_10  and  O_11
REMARK                            x       y       z     vdW  Elec       q    Type
REMARK                         _______ _______ _______ _____ _____    ______ ____
ROOT
ATOM      1  CA  UNL     1       9.708   1.077  23.616  0.00  0.00    +0.161 C 
ENDROOT
BRANCH   1   2
ATOM      2  N   UNL     1      10.993   0.622  24.221  0.00  0.00    -0.318 NA
ATOM      3  H1  UNL     1      11.752   0.855  23.569  0.00  0.00    +0.119 HD
ATOM      4  H2  UNL     1      11.191   1.178  25.056  0.00  0.00    +0.119 HD
ENDBRANCH   1   2
BRANCH   1   5
ATOM      5  C   UNL     1       9.866   1.033  22.082  0.00  0.00    +0.322 C 
ATOM      6  OXT UNL     1       9.706   0.038  21.392  0.00  0.00    -0.249 OA
BRANCH   5   7
ATOM      7  O   UNL     1      10.222   2.241  21.587  0.00  0.00    -0.480 OA
ATOM      8  H   UNL     1       9.611   2.429  20.836  0.00  0.00    +0.295 HD
ENDBRANCH   5   7
ENDBRANCH   1   5
BRANCH   1   9
ATOM      9  C   UNL     1       8.573   0.145  24.035  0.00  0.00    +0.039 C 
BRANCH   9  10
ATOM     10  C   UNL     1       9.028  -1.098  24.805  0.00  0.00    +0.099 C 
BRANCH  10  12
ATOM     11  C   UNL     1       9.396  -4.061  24.798  0.00  0.00    +0.111 C 
ATOM     12  P   UNL     1       9.093  -2.599  23.838  0.00  0.00    +0.199 P 
ATOM     13  O   UNL     1       7.986  -2.754  22.843  0.00  0.00    -0.291 OA
BRANCH  12  14
ATOM     14  O   UNL     1      10.496  -2.430  23.046  0.00  0.00    -0.344 OA
ATOM     15  H   UNL     1      10.648  -3.176  22.427  0.00  0.00    +0.218 HD
ENDBRANCH  12  14
ENDBRANCH  10  12
ENDBRANCH   9  10
ENDBRANCH   1   9
TORSDOF 7
ENDMDL
MODEL 9
REMARK VINA RESULT:      -3.9      5.454      6.048
REMARK  Name = 
REMARK  8 active torsions:
REMARK  status: ('A' for Active; 'I' for Inactive)
REMARK    1  A    between atoms: C_1  and  P_2
REMARK    2  A    between atoms: P_2  and  O_3
REMARK    3  A    between atoms: P_2  and  C_5
REMARK    4  A    between atoms: C_5  and  C_6
REMARK    5  A    between atoms: C_6  and  CA_7
REMARK    6  A    between atoms: CA_7  and  N_9
REMARK    7  A    between atoms: CA_7  and  C_10
REMARK    8  A    between atoms: C_10  and  O_11
REMARK                            x       y       z     vdW  Elec       q    Type
REMARK                         _______ _______ _______ _____ _____    ______ ____
ROOT
ATOM      1  CA  UNL     1      10.064   1.082  22.702  0.00  0.00    +0.161 C 
ENDROOT
BRANCH   1   2
ATOM      2  N   UNL     1      10.180   2.221  21.746  0.00  0.00    -0.318 NA
ATOM      3  H1  UNL     1       9.553   2.037  20.954  0.00  0.00    +0.119 HD
ATOM      4  H2  UNL     1       9.806   3.068  22.180  0.00  0.00    +0.119 HD
ENDBRANCH   1   2
BRANCH   1   5
ATOM      5  C   UNL     1       9.908   1.669  24.120  0.00  0.00    +0.322 C 
ATOM      6  OXT UNL     1       9.473   2.781  24.372  0.00  0.00    -0.249 OA
BRANCH   5   7
ATOM      7  O   UNL     1      10.332   0.796  25.065  0.00  0.00    -0.480 OA
ATOM      8  H   UNL     1       9.590   0.696  25.707  0.00  0.00    +0.295 HD
ENDBRANCH   5   7
ENDBRANCH   1   5
BRANCH   1   9
ATOM      9  C   UNL     1       8.836   0.238  22.365  0.00  0.00    +0.039 C 
BRANCH   9  10
ATOM     10  C   UNL     1       9.149  -1.219  22.013  0.00  0.00    +0.099 C 
BRANCH  10  12
ATOM     11  C   UNL     1       7.646  -3.561  23.096  0.00  0.00    +0.111 C 
ATOM     12  P   UNL     1       8.944  -2.378  23.357  0.00  0.00    +0.199 P 
ATOM     13  O   UNL     1      10.215  -2.985  23.863  0.00  0.00    -0.291 OA
BRANCH  12  14
ATOM     14  O   UNL     1       8.307  -1.442  24.516  0.00  0.00    -0.344 OA
ATOM     15  H   UNL     1       7.630  -0.833  24.151  0.00  0.00    +0.218 HD
ENDBRANCH  12  14
ENDBRANCH  10  12
ENDBRANCH   9  10
ENDBRANCH   1   9
TORSDOF 7
ENDMDL
