MODEL 1
REMARK VINA RESULT:      -6.8      0.000      0.000
REMARK  Name = 
REMARK  19 active torsions:
REMARK  status: ('A' for Active; 'I' for Inactive)
REMARK    1  A    between atoms: C_8  and  O_12
REMARK    2  A    between atoms: O_12  and  C_13
REMARK    3  A    between atoms: N_15  and  C_16
REMARK    4  A    between atoms: C_16  and  C_18
REMARK    5  A    between atoms: C_16  and  C_33
REMARK    6  A    between atoms: C_18  and  C_19
REMARK    7  A    between atoms: C_22  and  O_23
REMARK    8  A    between atoms: O_23  and  C_24
REMARK    9  A    between atoms: C_24  and  C_25
REMARK   10  A    between atoms: C_28  and  C_29
REMARK   11  A    between atoms: C_33  and  O_35
REMARK   12  A    between atoms: C_33  and  C_36
REMARK   13  A    between atoms: C_36  and  N_37
REMARK   14  A    between atoms: N_37  and  C_38
REMARK   15  A    between atoms: N_37  and  S_42
REMARK   16  A    between atoms: C_38  and  C_39
REMARK   17  A    between atoms: C_39  and  C_40
REMARK   18  A    between atoms: C_39  and  C_41
REMARK   19  A    between atoms: S_42  and  C_45
REMARK                            x       y       z     vdW  Elec       q    Type
REMARK                         _______ _______ _______ _____ _____    ______ ____
ROOT
ATOM      1  C   UNL     1       8.881  -0.077  24.246  0.00  0.00    +0.110 C 
ENDROOT
BRANCH   1   3
ATOM      2  C   UNL     1       8.912  -1.859  22.442  0.00  0.00    +0.401 C 
ATOM      3  N   UNL     1       8.258  -0.975  23.253  0.00  0.00    -0.275 N 
ATOM      4  H   UNL     1       7.296  -1.244  23.414  0.00  0.00    +0.152 HD
ATOM      5  O   UNL     1      10.113  -1.879  22.233  0.00  0.00    -0.226 OA
BRANCH   2   6
ATOM      6  O   UNL     1       8.009  -2.738  21.930  0.00  0.00    -0.444 OA
BRANCH   6  10
ATOM      7  C   UNL     1       5.457  -4.908  23.341  0.00  0.00    +0.257 C 
ATOM      8  O   UNL     1       4.754  -4.119  22.378  0.00  0.00    -0.347 OA
ATOM      9  C   UNL     1       5.574  -2.988  22.046  0.00  0.00    +0.208 C 
ATOM     10  C   UNL     1       6.914  -3.130  22.777  0.00  0.00    +0.212 C 
ATOM     11  C   UNL     1       6.923  -4.591  23.170  0.00  0.00    +0.090 C 
ATOM     12  C   UNL     1       7.365  -5.576  22.103  0.00  0.00    +0.040 C 
ATOM     13  C   UNL     1       6.300  -6.660  22.113  0.00  0.00    +0.163 C 
ATOM     14  O   UNL     1       5.315  -6.299  23.083  0.00  0.00    -0.351 OA
ENDBRANCH   6  10
ENDBRANCH   2   6
ENDBRANCH   1   3
BRANCH   1  15
ATOM     15  C   UNL     1      10.013   0.845  23.698  0.00  0.00    +0.151 C 
BRANCH  15  16
ATOM     16  O   UNL     1      10.723   1.405  24.819  0.00  0.00    -0.389 OA
ATOM     17  H   UNL     1      11.510   1.863  24.467  0.00  0.00    +0.210 HD
ENDBRANCH  15  16
BRANCH  15  18
ATOM     18  C   UNL     1       9.479   2.007  22.841  0.00  0.00    +0.142 C 
BRANCH  18  19
ATOM     19  N   UNL     1       8.734   3.110  23.646  0.00  0.00    -0.174 NA
BRANCH  19  20
ATOM     20  S   UNL     1       7.004   2.891  23.402  0.00  0.00    +0.061 S 
ATOM     21  O   UNL     1       6.845   1.811  22.450  0.00  0.00    -0.153 OA
ATOM     22  O   UNL     1       6.394   4.182  23.185  0.00  0.00    -0.153 OA
BRANCH  20  23
ATOM     23  C   UNL     1       6.389   2.322  24.987  0.00  0.00    +0.109 A 
ATOM     24  C   UNL     1       7.138   2.535  26.166  0.00  0.00    +0.032 A 
ATOM     25  C   UNL     1       6.718   1.958  27.374  0.00  0.00    +0.051 A 
ATOM     26  C   UNL     1       5.564   1.199  27.368  0.00  0.00    +0.166 A 
ATOM     27  O   UNL     1       5.036   0.531  28.420  0.00  0.00    -0.453 OA
ATOM     28  C   UNL     1       3.887  -0.090  27.813  0.00  0.00    +0.466 C 
ATOM     29  O   UNL     1       3.769   0.188  26.404  0.00  0.00    -0.453 OA
ATOM     30  C   UNL     1       4.847   0.995  26.206  0.00  0.00    +0.168 A 
ATOM     31  C   UNL     1       5.224   1.541  25.000  0.00  0.00    +0.078 A 
ENDBRANCH  20  23
ENDBRANCH  19  20
BRANCH  19  32
ATOM     32  C   UNL     1       9.230   4.488  23.209  0.00  0.00    +0.112 C 
BRANCH  32  33
ATOM     33  C   UNL     1      10.115   5.352  24.143  0.00  0.00    -0.001 C 
ATOM     34  C   UNL     1       9.427   6.727  24.295  0.00  0.00    +0.008 C 
ATOM     35  C   UNL     1      11.552   5.629  23.691  0.00  0.00    +0.008 C 
ENDBRANCH  32  33
ENDBRANCH  19  32
ENDBRANCH  18  19
ENDBRANCH  15  18
ENDBRANCH   1  15
BRANCH   1  36
ATOM     36  C   UNL     1       9.410  -0.817  25.504  0.00  0.00    +0.060 C 
BRANCH  36  37
ATOM     37  C   UNL     1       8.559  -1.982  25.938  0.00  0.00    -0.045 A 
ATOM     38  C   UNL     1       9.058  -3.288  25.966  0.00  0.00    +0.007 A 
ATOM     39  C   UNL     1       8.265  -4.324  26.458  0.00  0.00    +0.046 A 
ATOM     40  C   UNL     1       6.967  -4.067  26.901  0.00  0.00    +0.121 A 
ATOM     41  C   UNL     1       6.462  -2.770  26.851  0.00  0.00    +0.046 A 
ATOM     42  C   UNL     1       7.248  -1.737  26.359  0.00  0.00    +0.007 A 
BRANCH  40  43
ATOM     43  O   UNL     1       6.285  -5.148  27.377  0.00  0.00    -0.486 OA
BRANCH  43  44
ATOM     44  C   UNL     1       4.953  -4.879  27.835  0.00  0.00    +0.285 C 
BRANCH  44  45
ATOM     45  C   UNL     1       3.946  -5.304  26.818  0.00  0.00    +0.086 A 
ATOM     46  N   UNL     1       3.835  -6.650  26.496  0.00  0.00    -0.246 NA
ATOM     47  C   UNL     1       2.879  -6.814  25.607  0.00  0.00    +0.076 A 
ATOM     48  C   UNL     1       2.487  -8.133  25.041  0.00  0.00    +0.073 C 
ATOM     49  S   UNL     1       2.064  -5.384  25.117  0.00  0.00    -0.080 S 
ATOM     50  C   UNL     1       3.053  -4.473  26.167  0.00  0.00    +0.073 A 
ENDBRANCH  44  45
ENDBRANCH  43  44
ENDBRANCH  40  43
ENDBRANCH  36  37
ENDBRANCH   1  36
TORSDOF 16
ENDMDL
MODEL 2
REMARK VINA RESULT:      -6.6      1.341      1.936
REMARK  Name = 
REMARK  19 active torsions:
REMARK  status: ('A' for Active; 'I' for Inactive)
REMARK    1  A    between atoms: C_8  and  O_12
REMARK    2  A    between atoms: O_12  and  C_13
REMARK    3  A    between atoms: N_15  and  C_16
REMARK    4  A    between atoms: C_16  and  C_18
REMARK    5  A    between atoms: C_16  and  C_33
REMARK    6  A    between atoms: C_18  and  C_19
REMARK    7  A    between atoms: C_22  and  O_23
REMARK    8  A    between atoms: O_23  and  C_24
REMARK    9  A    between atoms: C_24  and  C_25
REMARK   10  A    between atoms: C_28  and  C_29
REMARK   11  A    between atoms: C_33  and  O_35
REMARK   12  A    between atoms: C_33  and  C_36
REMARK   13  A    between atoms: C_36  and  N_37
REMARK   14  A    between atoms: N_37  and  C_38
REMARK   15  A    between atoms: N_37  and  S_42
REMARK   16  A    between atoms: C_38  and  C_39
REMARK   17  A    between atoms: C_39  and  C_40
REMARK   18  A    between atoms: C_39  and  C_41
REMARK   19  A    between atoms: S_42  and  C_45
REMARK                            x       y       z     vdW  Elec       q    Type
REMARK                         _______ _______ _______ _____ _____    ______ ____
ROOT
ATOM      1  C   UNL     1       8.962  -0.088  24.331  0.00  0.00    +0.110 C 
ENDROOT
BRANCH   1   3
ATOM      2  C   UNL     1       8.992  -1.890  22.547  0.00  0.00    +0.401 C 
ATOM      3  N   UNL     1       8.339  -0.988  23.339  0.00  0.00    -0.275 N 
ATOM      4  H   UNL     1       7.371  -1.242  23.489  0.00  0.00    +0.152 HD
ATOM      5  O   UNL     1      10.195  -1.930  22.354  0.00  0.00    -0.226 OA
BRANCH   2   6
ATOM      6  O   UNL     1       8.083  -2.761  22.032  0.00  0.00    -0.444 OA
BRANCH   6  10
ATOM      7  C   UNL     1       5.476  -4.901  23.389  0.00  0.00    +0.257 C 
ATOM      8  O   UNL     1       4.788  -4.048  22.471  0.00  0.00    -0.347 OA
ATOM      9  C   UNL     1       5.643  -2.932  22.175  0.00  0.00    +0.208 C 
ATOM     10  C   UNL     1       6.987  -3.151  22.879  0.00  0.00    +0.212 C 
ATOM     11  C   UNL     1       6.950  -4.628  23.209  0.00  0.00    +0.090 C 
ATOM     12  C   UNL     1       7.342  -5.581  22.095  0.00  0.00    +0.040 C 
ATOM     13  C   UNL     1       6.240  -6.627  22.075  0.00  0.00    +0.163 C 
ATOM     14  O   UNL     1       5.282  -6.274  23.075  0.00  0.00    -0.351 OA
ENDBRANCH   6  10
ENDBRANCH   2   6
ENDBRANCH   1   3
BRANCH   1  15
ATOM     15  C   UNL     1      10.245   0.655  23.848  0.00  0.00    +0.151 C 
BRANCH  15  16
ATOM     16  O   UNL     1      11.023   1.013  25.006  0.00  0.00    -0.389 OA
ATOM     17  H   UNL     1      11.696   1.658  24.719  0.00  0.00    +0.210 HD
ENDBRANCH  15  16
BRANCH  15  18
ATOM     18  C   UNL     1       9.934   1.943  23.064  0.00  0.00    +0.142 C 
BRANCH  18  19
ATOM     19  N   UNL     1       8.823   2.827  23.697  0.00  0.00    -0.174 NA
BRANCH  19  20
ATOM     20  S   UNL     1       7.471   2.896  22.570  0.00  0.00    +0.061 S 
ATOM     21  O   UNL     1       7.523   1.687  21.774  0.00  0.00    -0.153 OA
ATOM     22  O   UNL     1       7.440   4.203  21.955  0.00  0.00    -0.153 OA
BRANCH  20  23
ATOM     23  C   UNL     1       6.010   2.810  23.606  0.00  0.00    +0.109 A 
ATOM     24  C   UNL     1       5.986   1.976  24.746  0.00  0.00    +0.032 A 
ATOM     25  C   UNL     1       4.792   1.805  25.462  0.00  0.00    +0.051 A 
ATOM     26  C   UNL     1       3.668   2.476  25.024  0.00  0.00    +0.166 A 
ATOM     27  O   UNL     1       2.426   2.396  25.556  0.00  0.00    -0.453 OA
ATOM     28  C   UNL     1       1.685   3.264  24.678  0.00  0.00    +0.466 C 
ATOM     29  O   UNL     1       2.487   3.819  23.617  0.00  0.00    -0.453 OA
ATOM     30  C   UNL     1       3.705   3.282  23.904  0.00  0.00    +0.168 A 
ATOM     31  C   UNL     1       4.855   3.477  23.172  0.00  0.00    +0.078 A 
ENDBRANCH  20  23
ENDBRANCH  19  20
BRANCH  19  32
ATOM     32  C   UNL     1       9.392   4.206  24.032  0.00  0.00    +0.112 C 
BRANCH  32  33
ATOM     33  C   UNL     1       8.571   5.231  24.852  0.00  0.00    -0.001 C 
ATOM     34  C   UNL     1       9.534   6.359  25.287  0.00  0.00    +0.008 C 
ATOM     35  C   UNL     1       7.887   4.726  26.126  0.00  0.00    +0.008 C 
ENDBRANCH  32  33
ENDBRANCH  19  32
ENDBRANCH  18  19
ENDBRANCH  15  18
ENDBRANCH   1  15
BRANCH   1  36
ATOM     36  C   UNL     1       9.269  -0.779  25.686  0.00  0.00    +0.060 C 
BRANCH  36  37
ATOM     37  C   UNL     1       8.183  -1.706  26.168  0.00  0.00    -0.045 A 
ATOM     38  C   UNL     1       6.906  -1.238  26.492  0.00  0.00    +0.007 A 
ATOM     39  C   UNL     1       5.905  -2.140  26.848  0.00  0.00    +0.046 A 
ATOM     40  C   UNL     1       6.180  -3.507  26.908  0.00  0.00    +0.121 A 
ATOM     41  C   UNL     1       7.458  -3.971  26.609  0.00  0.00    +0.046 A 
ATOM     42  C   UNL     1       8.457  -3.074  26.256  0.00  0.00    +0.007 A 
BRANCH  40  43
ATOM     43  O   UNL     1       5.126  -4.303  27.252  0.00  0.00    -0.486 OA
BRANCH  43  44
ATOM     44  C   UNL     1       3.830  -3.735  27.028  0.00  0.00    +0.285 C 
BRANCH  44  45
ATOM     45  C   UNL     1       3.071  -4.525  26.014  0.00  0.00    +0.086 A 
ATOM     46  N   UNL     1       3.141  -5.911  26.045  0.00  0.00    -0.246 NA
ATOM     47  C   UNL     1       2.386  -6.413  25.091  0.00  0.00    +0.076 A 
ATOM     48  C   UNL     1       2.224  -7.871  24.839  0.00  0.00    +0.073 C 
ATOM     49  S   UNL     1       1.555  -5.268  24.119  0.00  0.00    -0.080 S 
ATOM     50  C   UNL     1       2.246  -4.005  25.034  0.00  0.00    +0.073 A 
ENDBRANCH  44  45
ENDBRANCH  43  44
ENDBRANCH  40  43
ENDBRANCH  36  37
ENDBRANCH   1  36
TORSDOF 16
ENDMDL
MODEL 3
REMARK VINA RESULT:      -6.6      2.421      6.642
REMARK  Name = 
REMARK  19 active torsions:
REMARK  status: ('A' for Active; 'I' for Inactive)
REMARK    1  A    between atoms: C_8  and  O_12
REMARK    2  A    between atoms: O_12  and  C_13
REMARK    3  A    between atoms: N_15  and  C_16
REMARK    4  A    between atoms: C_16  and  C_18
REMARK    5  A    between atoms: C_16  and  C_33
REMARK    6  A    between atoms: C_18  and  C_19
REMARK    7  A    between atoms: C_22  and  O_23
REMARK    8  A    between atoms: O_23  and  C_24
REMARK    9  A    between atoms: C_24  and  C_25
REMARK   10  A    between atoms: C_28  and  C_29
REMARK   11  A    between atoms: C_33  and  O_35
REMARK   12  A    between atoms: C_33  and  C_36
REMARK   13  A    between atoms: C_36  and  N_37
REMARK   14  A    between atoms: N_37  and  C_38
REMARK   15  A    between atoms: N_37  and  S_42
REMARK   16  A    between atoms: C_38  and  C_39
REMARK   17  A    between atoms: C_39  and  C_40
REMARK   18  A    between atoms: C_39  and  C_41
REMARK   19  A    between atoms: S_42  and  C_45
REMARK                            x       y       z     vdW  Elec       q    Type
REMARK                         _______ _______ _______ _____ _____    ______ ____
ROOT
ATOM      1  C   UNL     1       9.776  -0.476  24.915  0.00  0.00    +0.110 C 
ENDROOT
BRANCH   1   3
ATOM      2  C   UNL     1       9.451  -2.636  23.628  0.00  0.00    +0.401 C 
ATOM      3  N   UNL     1       9.272  -1.292  23.791  0.00  0.00    -0.275 N 
ATOM      4  H   UNL     1       8.451  -0.954  23.307  0.00  0.00    +0.152 HD
ATOM      5  O   UNL     1      10.246  -3.330  24.241  0.00  0.00    -0.226 OA
BRANCH   2   6
ATOM      6  O   UNL     1       8.573  -3.087  22.692  0.00  0.00    -0.444 OA
BRANCH   6  10
ATOM      7  C   UNL     1       5.256  -4.572  22.767  0.00  0.00    +0.257 C 
ATOM      8  O   UNL     1       5.108  -3.422  21.930  0.00  0.00    -0.347 OA
ATOM      9  C   UNL     1       6.242  -2.568  22.143  0.00  0.00    +0.208 C 
ATOM     10  C   UNL     1       7.207  -3.273  23.103  0.00  0.00    +0.212 C 
ATOM     11  C   UNL     1       6.732  -4.710  23.051  0.00  0.00    +0.090 C 
ATOM     12  C   UNL     1       7.229  -5.546  21.886  0.00  0.00    +0.040 C 
ATOM     13  C   UNL     1       5.983  -6.213  21.329  0.00  0.00    +0.163 C 
ATOM     14  O   UNL     1       4.864  -5.763  22.096  0.00  0.00    -0.351 OA
ENDBRANCH   6  10
ENDBRANCH   2   6
ENDBRANCH   1   3
BRANCH   1  15
ATOM     15  C   UNL     1       8.713  -0.078  25.983  0.00  0.00    +0.151 C 
BRANCH  15  16
ATOM     16  O   UNL     1       9.119  -0.625  27.252  0.00  0.00    -0.389 OA
ATOM     17  H   UNL     1       9.415   0.119  27.810  0.00  0.00    +0.210 HD
ENDBRANCH  15  16
BRANCH  15  18
ATOM     18  C   UNL     1       7.306  -0.614  25.660  0.00  0.00    +0.142 C 
BRANCH  18  19
ATOM     19  N   UNL     1       6.246  -0.343  26.766  0.00  0.00    -0.174 NA
BRANCH  19  20
ATOM     20  S   UNL     1       4.785  -1.233  26.353  0.00  0.00    +0.061 S 
ATOM     21  O   UNL     1       4.930  -1.669  24.979  0.00  0.00    -0.153 OA
ATOM     22  O   UNL     1       3.635  -0.472  26.784  0.00  0.00    -0.153 OA
BRANCH  20  23
ATOM     23  C   UNL     1       4.826  -2.689  27.398  0.00  0.00    +0.109 A 
ATOM     24  C   UNL     1       4.008  -2.771  28.547  0.00  0.00    +0.032 A 
ATOM     25  C   UNL     1       4.156  -3.847  29.435  0.00  0.00    +0.051 A 
ATOM     26  C   UNL     1       5.105  -4.806  29.144  0.00  0.00    +0.166 A 
ATOM     27  O   UNL     1       5.420  -5.882  29.903  0.00  0.00    -0.453 OA
ATOM     28  C   UNL     1       6.476  -6.477  29.127  0.00  0.00    +0.466 C 
ATOM     29  O   UNL     1       6.798  -5.730  27.937  0.00  0.00    -0.453 OA
ATOM     30  C   UNL     1       5.902  -4.708  28.021  0.00  0.00    +0.168 A 
ATOM     31  C   UNL     1       5.791  -3.669  27.124  0.00  0.00    +0.078 A 
ENDBRANCH  20  23
ENDBRANCH  19  20
BRANCH  19  32
ATOM     32  C   UNL     1       6.013   1.163  26.896  0.00  0.00    +0.112 C 
BRANCH  32  33
ATOM     33  C   UNL     1       6.157   2.101  25.672  0.00  0.00    -0.001 C 
ATOM     34  C   UNL     1       5.912   3.546  26.162  0.00  0.00    +0.008 C 
ATOM     35  C   UNL     1       5.203   1.872  24.495  0.00  0.00    +0.008 C 
ENDBRANCH  32  33
ENDBRANCH  19  32
ENDBRANCH  18  19
ENDBRANCH  15  18
ENDBRANCH   1  15
BRANCH   1  36
ATOM     36  C   UNL     1      10.527   0.804  24.462  0.00  0.00    +0.060 C 
BRANCH  36  37
ATOM     37  C   UNL     1       9.659   1.815  23.759  0.00  0.00    -0.045 A 
ATOM     38  C   UNL     1       8.965   1.502  22.586  0.00  0.00    +0.007 A 
ATOM     39  C   UNL     1       8.103   2.438  22.017  0.00  0.00    +0.046 A 
ATOM     40  C   UNL     1       7.950   3.697  22.599  0.00  0.00    +0.121 A 
ATOM     41  C   UNL     1       8.659   4.018  23.754  0.00  0.00    +0.046 A 
ATOM     42  C   UNL     1       9.520   3.088  24.321  0.00  0.00    +0.007 A 
BRANCH  40  43
ATOM     43  O   UNL     1       7.071   4.531  21.972  0.00  0.00    -0.486 OA
BRANCH  43  44
ATOM     44  C   UNL     1       6.830   5.778  22.634  0.00  0.00    +0.285 C 
BRANCH  44  45
ATOM     45  C   UNL     1       5.458   5.811  23.222  0.00  0.00    +0.086 A 
ATOM     46  N   UNL     1       4.527   4.863  22.821  0.00  0.00    -0.246 NA
ATOM     47  C   UNL     1       3.398   5.049  23.472  0.00  0.00    +0.076 A 
ATOM     48  C   UNL     1       2.184   4.208  23.290  0.00  0.00    +0.073 C 
ATOM     49  S   UNL     1       3.391   6.350  24.593  0.00  0.00    -0.080 S 
ATOM     50  C   UNL     1       5.011   6.695  24.187  0.00  0.00    +0.073 A 
ENDBRANCH  44  45
ENDBRANCH  43  44
ENDBRANCH  40  43
ENDBRANCH  36  37
ENDBRANCH   1  36
TORSDOF 16
ENDMDL
MODEL 4
REMARK VINA RESULT:      -6.6      2.744      6.999
REMARK  Name = 
REMARK  19 active torsions:
REMARK  status: ('A' for Active; 'I' for Inactive)
REMARK    1  A    between atoms: C_8  and  O_12
REMARK    2  A    between atoms: O_12  and  C_13
REMARK    3  A    between atoms: N_15  and  C_16
REMARK    4  A    between atoms: C_16  and  C_18
REMARK    5  A    between atoms: C_16  and  C_33
REMARK    6  A    between atoms: C_18  and  C_19
REMARK    7  A    between atoms: C_22  and  O_23
REMARK    8  A    between atoms: O_23  and  C_24
REMARK    9  A    between atoms: C_24  and  C_25
REMARK   10  A    between atoms: C_28  and  C_29
REMARK   11  A    between atoms: C_33  and  O_35
REMARK   12  A    between atoms: C_33  and  C_36
REMARK   13  A    between atoms: C_36  and  N_37
REMARK   14  A    between atoms: N_37  and  C_38
REMARK   15  A    between atoms: N_37  and  S_42
REMARK   16  A    between atoms: C_38  and  C_39
REMARK   17  A    between atoms: C_39  and  C_40
REMARK   18  A    between atoms: C_39  and  C_41
REMARK   19  A    between atoms: S_42  and  C_45
REMARK                            x       y       z     vdW  Elec       q    Type
REMARK                         _______ _______ _______ _____ _____    ______ ____
ROOT
ATOM      1  C   UNL     1       7.272  -0.560  26.515  0.00  0.00    +0.110 C 
ENDROOT
BRANCH   1   3
ATOM      2  C   UNL     1       5.348  -2.142  26.039  0.00  0.00    +0.401 C 
ATOM      3  N   UNL     1       6.320  -1.637  26.856  0.00  0.00    -0.275 N 
ATOM      4  H   UNL     1       6.607  -2.300  27.564  0.00  0.00    +0.152 HD
ATOM      5  O   UNL     1       4.952  -1.634  25.004  0.00  0.00    -0.226 OA
BRANCH   2   6
ATOM      6  O   UNL     1       4.914  -3.325  26.551  0.00  0.00    -0.444 OA
BRANCH   6  10
ATOM      7  C   UNL     1       5.345  -5.306  29.568  0.00  0.00    +0.257 C 
ATOM      8  O   UNL     1       4.058  -4.705  29.724  0.00  0.00    -0.347 OA
ATOM      9  C   UNL     1       3.958  -3.621  28.788  0.00  0.00    +0.208 C 
ATOM     10  C   UNL     1       5.227  -3.604  27.928  0.00  0.00    +0.212 C 
ATOM     11  C   UNL     1       5.806  -4.981  28.169  0.00  0.00    +0.090 C 
ATOM     12  C   UNL     1       5.224  -6.114  27.343  0.00  0.00    +0.040 C 
ATOM     13  C   UNL     1       4.923  -7.211  28.351  0.00  0.00    +0.163 C 
ATOM     14  O   UNL     1       5.274  -6.724  29.647  0.00  0.00    -0.351 OA
ENDBRANCH   6  10
ENDBRANCH   2   6
ENDBRANCH   1   3
BRANCH   1  15
ATOM     15  C   UNL     1       8.776  -0.970  26.517  0.00  0.00    +0.151 C 
BRANCH  15  16
ATOM     16  O   UNL     1       9.391  -0.427  27.700  0.00  0.00    -0.389 OA
ATOM     17  H   UNL     1       8.689   0.004  28.224  0.00  0.00    +0.210 HD
ENDBRANCH  15  16
BRANCH  15  18
ATOM     18  C   UNL     1       9.544  -0.441  25.292  0.00  0.00    +0.142 C 
BRANCH  18  19
ATOM     19  N   UNL     1       8.703  -0.376  23.985  0.00  0.00    -0.174 NA
BRANCH  19  20
ATOM     20  S   UNL     1       9.157  -1.743  22.974  0.00  0.00    +0.061 S 
ATOM     21  O   UNL     1      10.464  -2.182  23.418  0.00  0.00    -0.153 OA
ATOM     22  O   UNL     1       8.906  -1.407  21.591  0.00  0.00    -0.153 OA
BRANCH  20  23
ATOM     23  C   UNL     1       7.976  -3.027  23.386  0.00  0.00    +0.109 A 
ATOM     24  C   UNL     1       8.274  -3.984  24.382  0.00  0.00    +0.032 A 
ATOM     25  C   UNL     1       7.408  -5.067  24.591  0.00  0.00    +0.051 A 
ATOM     26  C   UNL     1       6.273  -5.155  23.811  0.00  0.00    +0.166 A 
ATOM     27  O   UNL     1       5.353  -6.148  23.838  0.00  0.00    -0.453 OA
ATOM     28  C   UNL     1       4.447  -5.723  22.803  0.00  0.00    +0.466 C 
ATOM     29  O   UNL     1       4.858  -4.505  22.152  0.00  0.00    -0.453 OA
ATOM     30  C   UNL     1       5.999  -4.216  22.836  0.00  0.00    +0.168 A 
ATOM     31  C   UNL     1       6.822  -3.139  22.596  0.00  0.00    +0.078 A 
ENDBRANCH  20  23
ENDBRANCH  19  20
BRANCH  19  32
ATOM     32  C   UNL     1       8.922   0.974  23.301  0.00  0.00    +0.112 C 
BRANCH  32  33
ATOM     33  C   UNL     1       7.751   1.969  23.106  0.00  0.00    -0.001 C 
ATOM     34  C   UNL     1       6.485   1.142  22.787  0.00  0.00    +0.008 C 
ATOM     35  C   UNL     1       7.889   3.006  21.987  0.00  0.00    +0.008 C 
ENDBRANCH  32  33
ENDBRANCH  19  32
ENDBRANCH  18  19
ENDBRANCH  15  18
ENDBRANCH   1  15
BRANCH   1  36
ATOM     36  C   UNL     1       7.103   0.714  27.386  0.00  0.00    +0.060 C 
BRANCH  36  37
ATOM     37  C   UNL     1       6.407   1.852  26.688  0.00  0.00    -0.045 A 
ATOM     38  C   UNL     1       7.035   3.086  26.485  0.00  0.00    +0.007 A 
ATOM     39  C   UNL     1       6.388   4.083  25.756  0.00  0.00    +0.046 A 
ATOM     40  C   UNL     1       5.106   3.865  25.251  0.00  0.00    +0.121 A 
ATOM     41  C   UNL     1       4.471   2.646  25.474  0.00  0.00    +0.046 A 
ATOM     42  C   UNL     1       5.112   1.652  26.201  0.00  0.00    +0.007 A 
BRANCH  40  43
ATOM     43  O   UNL     1       4.572   4.900  24.540  0.00  0.00    -0.486 OA
BRANCH  43  44
ATOM     44  C   UNL     1       4.884   4.909  23.142  0.00  0.00    +0.285 C 
BRANCH  44  45
ATOM     45  C   UNL     1       3.650   4.737  22.320  0.00  0.00    +0.086 A 
ATOM     46  N   UNL     1       3.277   3.461  21.917  0.00  0.00    -0.246 NA
ATOM     47  C   UNL     1       2.156   3.524  21.230  0.00  0.00    +0.076 A 
ATOM     48  C   UNL     1       1.469   2.340  20.649  0.00  0.00    +0.073 C 
ATOM     49  S   UNL     1       1.489   5.095  21.036  0.00  0.00    -0.080 S 
ATOM     50  C   UNL     1       2.786   5.745  21.935  0.00  0.00    +0.073 A 
ENDBRANCH  44  45
ENDBRANCH  43  44
ENDBRANCH  40  43
ENDBRANCH  36  37
ENDBRANCH   1  36
TORSDOF 16
ENDMDL
MODEL 5
REMARK VINA RESULT:      -6.5      2.155      9.230
REMARK  Name = 
REMARK  19 active torsions:
REMARK  status: ('A' for Active; 'I' for Inactive)
REMARK    1  A    between atoms: C_8  and  O_12
REMARK    2  A    between atoms: O_12  and  C_13
REMARK    3  A    between atoms: N_15  and  C_16
REMARK    4  A    between atoms: C_16  and  C_18
REMARK    5  A    between atoms: C_16  and  C_33
REMARK    6  A    between atoms: C_18  and  C_19
REMARK    7  A    between atoms: C_22  and  O_23
REMARK    8  A    between atoms: O_23  and  C_24
REMARK    9  A    between atoms: C_24  and  C_25
REMARK   10  A    between atoms: C_28  and  C_29
REMARK   11  A    between atoms: C_33  and  O_35
REMARK   12  A    between atoms: C_33  and  C_36
REMARK   13  A    between atoms: C_36  and  N_37
REMARK   14  A    between atoms: N_37  and  C_38
REMARK   15  A    between atoms: N_37  and  S_42
REMARK   16  A    between atoms: C_38  and  C_39
REMARK   17  A    between atoms: C_39  and  C_40
REMARK   18  A    between atoms: C_39  and  C_41
REMARK   19  A    between atoms: S_42  and  C_45
REMARK                            x       y       z     vdW  Elec       q    Type
REMARK                         _______ _______ _______ _____ _____    ______ ____
ROOT
ATOM      1  C   UNL     1       4.819  -1.825  26.357  0.00  0.00    +0.110 C 
ENDROOT
BRANCH   1   3
ATOM      2  C   UNL     1       7.021  -1.735  25.105  0.00  0.00    +0.401 C 
ATOM      3  N   UNL     1       5.662  -1.613  25.164  0.00  0.00    -0.275 N 
ATOM      4  H   UNL     1       5.227  -1.749  24.261  0.00  0.00    +0.152 HD
ATOM      5  O   UNL     1       7.774  -1.799  26.063  0.00  0.00    -0.226 OA
BRANCH   2   6
ATOM      6  O   UNL     1       7.401  -1.808  23.801  0.00  0.00    -0.444 OA
BRANCH   6  10
ATOM      7  C   UNL     1       9.841   0.476  22.370  0.00  0.00    +0.257 C 
ATOM      8  O   UNL     1       9.735  -0.575  21.406  0.00  0.00    -0.347 OA
ATOM      9  C   UNL     1       9.100  -1.696  22.039  0.00  0.00    +0.208 C 
ATOM     10  C   UNL     1       8.699  -1.288  23.461  0.00  0.00    +0.212 C 
ATOM     11  C   UNL     1       8.769   0.223  23.402  0.00  0.00    +0.090 C 
ATOM     12  C   UNL     1       7.560   0.934  22.822  0.00  0.00    +0.040 C 
ATOM     13  C   UNL     1       8.135   1.914  21.813  0.00  0.00    +0.163 C 
ATOM     14  O   UNL     1       9.554   1.744  21.797  0.00  0.00    -0.351 OA
ENDBRANCH   6  10
ENDBRANCH   2   6
ENDBRANCH   1   3
BRANCH   1  15
ATOM     15  C   UNL     1       3.614  -2.795  26.163  0.00  0.00    +0.151 C 
BRANCH  15  16
ATOM     16  O   UNL     1       3.573  -3.697  27.286  0.00  0.00    -0.389 OA
ATOM     17  H   UNL     1       4.493  -3.953  27.488  0.00  0.00    +0.210 HD
ENDBRANCH  15  16
BRANCH  15  18
ATOM     18  C   UNL     1       3.721  -3.637  24.878  0.00  0.00    +0.142 C 
BRANCH  18  19
ATOM     19  N   UNL     1       3.115  -5.064  24.993  0.00  0.00    -0.174 NA
BRANCH  19  20
ATOM     20  S   UNL     1       4.037  -6.136  23.942  0.00  0.00    +0.061 S 
ATOM     21  O   UNL     1       3.617  -5.859  22.584  0.00  0.00    -0.153 OA
ATOM     22  O   UNL     1       3.995  -7.474  24.485  0.00  0.00    -0.153 OA
BRANCH  20  23
ATOM     23  C   UNL     1       5.736  -5.592  24.114  0.00  0.00    +0.109 A 
ATOM     24  C   UNL     1       6.545  -5.393  22.973  0.00  0.00    +0.032 A 
ATOM     25  C   UNL     1       7.911  -5.111  23.126  0.00  0.00    +0.051 A 
ATOM     26  C   UNL     1       8.421  -5.028  24.406  0.00  0.00    +0.166 A 
ATOM     27  O   UNL     1       9.714  -4.814  24.744  0.00  0.00    -0.453 OA
ATOM     28  C   UNL     1       9.643  -4.867  26.182  0.00  0.00    +0.466 C 
ATOM     29  O   UNL     1       8.319  -5.147  26.676  0.00  0.00    -0.453 OA
ATOM     30  C   UNL     1       7.619  -5.233  25.511  0.00  0.00    +0.168 A 
ATOM     31  C   UNL     1       6.275  -5.512  25.407  0.00  0.00    +0.078 A 
ENDBRANCH  20  23
ENDBRANCH  19  20
BRANCH  19  32
ATOM     32  C   UNL     1       1.627  -5.020  24.645  0.00  0.00    +0.112 C 
BRANCH  32  33
ATOM     33  C   UNL     1       0.632  -6.032  25.265  0.00  0.00    -0.001 C 
ATOM     34  C   UNL     1       1.136  -6.370  26.686  0.00  0.00    +0.008 C 
ATOM     35  C   UNL     1       0.444  -7.367  24.539  0.00  0.00    +0.008 C 
ENDBRANCH  32  33
ENDBRANCH  19  32
ENDBRANCH  18  19
ENDBRANCH  15  18
ENDBRANCH   1  15
BRANCH   1  36
ATOM     36  C   UNL     1       4.297  -0.507  26.989  0.00  0.00    +0.060 C 
BRANCH  36  37
ATOM     37  C   UNL     1       5.146   0.701  26.688  0.00  0.00    -0.045 A 
ATOM     38  C   UNL     1       4.847   1.567  25.631  0.00  0.00    +0.007 A 
ATOM     39  C   UNL     1       5.606   2.721  25.442  0.00  0.00    +0.046 A 
ATOM     40  C   UNL     1       6.680   3.003  26.288  0.00  0.00    +0.121 A 
ATOM     41  C   UNL     1       6.993   2.128  27.326  0.00  0.00    +0.046 A 
ATOM     42  C   UNL     1       6.240   0.977  27.515  0.00  0.00    +0.007 A 
BRANCH  40  43
ATOM     43  O   UNL     1       7.345   4.164  26.025  0.00  0.00    -0.486 OA
BRANCH  43  44
ATOM     44  C   UNL     1       7.811   4.311  24.678  0.00  0.00    +0.285 C 
BRANCH  44  45
ATOM     45  C   UNL     1       9.100   5.063  24.640  0.00  0.00    +0.086 A 
ATOM     46  N   UNL     1      10.116   4.623  23.803  0.00  0.00    -0.246 NA
ATOM     47  C   UNL     1      11.150   5.433  23.899  0.00  0.00    +0.076 A 
ATOM     48  C   UNL     1      12.415   5.261  23.134  0.00  0.00    +0.073 C 
ATOM     49  S   UNL     1      10.963   6.754  24.979  0.00  0.00    -0.080 S 
ATOM     50  C   UNL     1       9.387   6.214  25.349  0.00  0.00    +0.073 A 
ENDBRANCH  44  45
ENDBRANCH  43  44
ENDBRANCH  40  43
ENDBRANCH  36  37
ENDBRANCH   1  36
TORSDOF 16
ENDMDL
MODEL 6
REMARK VINA RESULT:      -6.4      2.374      7.549
REMARK  Name = 
REMARK  19 active torsions:
REMARK  status: ('A' for Active; 'I' for Inactive)
REMARK    1  A    between atoms: C_8  and  O_12
REMARK    2  A    between atoms: O_12  and  C_13
REMARK    3  A    between atoms: N_15  and  C_16
REMARK    4  A    between atoms: C_16  and  C_18
REMARK    5  A    between atoms: C_16  and  C_33
REMARK    6  A    between atoms: C_18  and  C_19
REMARK    7  A    between atoms: C_22  and  O_23
REMARK    8  A    between atoms: O_23  and  C_24
REMARK    9  A    between atoms: C_24  and  C_25
REMARK   10  A    between atoms: C_28  and  C_29
REMARK   11  A    between atoms: C_33  and  O_35
REMARK   12  A    between atoms: C_33  and  C_36
REMARK   13  A    between atoms: C_36  and  N_37
REMARK   14  A    between atoms: N_37  and  C_38
REMARK   15  A    between atoms: N_37  and  S_42
REMARK   16  A    between atoms: C_38  and  C_39
REMARK   17  A    between atoms: C_39  and  C_40
REMARK   18  A    between atoms: C_39  and  C_41
REMARK   19  A    between atoms: S_42  and  C_45
REMARK                            x       y       z     vdW  Elec       q    Type
REMARK                         _______ _______ _______ _____ _____    ______ ____
ROOT
ATOM      1  C   UNL     1       7.098  -0.457  26.821  0.00  0.00    +0.110 C 
ENDROOT
BRANCH   1   3
ATOM      2  C   UNL     1       5.067  -1.944  26.512  0.00  0.00    +0.401 C 
ATOM      3  N   UNL     1       6.092  -1.443  27.265  0.00  0.00    -0.275 N 
ATOM      4  H   UNL     1       6.358  -2.070  28.012  0.00  0.00    +0.152 HD
ATOM      5  O   UNL     1       4.673  -1.488  25.452  0.00  0.00    -0.226 OA
BRANCH   2   6
ATOM      6  O   UNL     1       4.577  -3.057  27.121  0.00  0.00    -0.444 OA
BRANCH   6  10
ATOM      7  C   UNL     1       5.551  -6.549  27.385  0.00  0.00    +0.257 C 
ATOM      8  O   UNL     1       6.770  -5.828  27.582  0.00  0.00    -0.347 OA
ATOM      9  C   UNL     1       6.570  -4.483  27.122  0.00  0.00    +0.208 C 
ATOM     10  C   UNL     1       5.105  -4.327  26.700  0.00  0.00    +0.212 C 
ATOM     11  C   UNL     1       4.445  -5.523  27.352  0.00  0.00    +0.090 C 
ATOM     12  C   UNL     1       4.072  -5.375  28.816  0.00  0.00    +0.040 C 
ATOM     13  C   UNL     1       4.611  -6.630  29.482  0.00  0.00    +0.163 C 
ATOM     14  O   UNL     1       5.268  -7.409  28.481  0.00  0.00    -0.351 OA
ENDBRANCH   6  10
ENDBRANCH   2   6
ENDBRANCH   1   3
BRANCH   1  15
ATOM     15  C   UNL     1       8.561  -0.987  26.728  0.00  0.00    +0.151 C 
BRANCH  15  16
ATOM     16  O   UNL     1       9.322  -0.405  27.804  0.00  0.00    -0.389 OA
ATOM     17  H   UNL     1       9.167   0.558  27.785  0.00  0.00    +0.210 HD
ENDBRANCH  15  16
BRANCH  15  18
ATOM     18  C   UNL     1       9.250  -0.619  25.401  0.00  0.00    +0.142 C 
BRANCH  18  19
ATOM     19  N   UNL     1       8.321  -0.685  24.156  0.00  0.00    -0.174 NA
BRANCH  19  20
ATOM     20  S   UNL     1       8.905  -1.973  23.106  0.00  0.00    +0.061 S 
ATOM     21  O   UNL     1      10.199  -2.378  23.614  0.00  0.00    -0.153 OA
ATOM     22  O   UNL     1       8.728  -1.573  21.729  0.00  0.00    -0.153 OA
BRANCH  20  23
ATOM     23  C   UNL     1       7.762  -3.329  23.370  0.00  0.00    +0.109 A 
ATOM     24  C   UNL     1       8.232  -4.591  23.797  0.00  0.00    +0.032 A 
ATOM     25  C   UNL     1       7.351  -5.681  23.857  0.00  0.00    +0.051 A 
ATOM     26  C   UNL     1       6.033  -5.475  23.502  0.00  0.00    +0.166 A 
ATOM     27  O   UNL     1       5.057  -6.412  23.453  0.00  0.00    -0.453 OA
ATOM     28  C   UNL     1       3.939  -5.632  22.990  0.00  0.00    +0.466 C 
ATOM     29  O   UNL     1       4.273  -4.253  22.738  0.00  0.00    -0.453 OA
ATOM     30  C   UNL     1       5.591  -4.237  23.080  0.00  0.00    +0.168 A 
ATOM     31  C   UNL     1       6.421  -3.141  23.004  0.00  0.00    +0.078 A 
ENDBRANCH  20  23
ENDBRANCH  19  20
BRANCH  19  32
ATOM     32  C   UNL     1       8.289   0.679  23.467  0.00  0.00    +0.112 C 
BRANCH  32  33
ATOM     33  C   UNL     1       9.494   1.648  23.558  0.00  0.00    -0.001 C 
ATOM     34  C   UNL     1       9.012   2.923  24.288  0.00  0.00    +0.008 C 
ATOM     35  C   UNL     1      10.124   2.112  22.241  0.00  0.00    +0.008 C 
ENDBRANCH  32  33
ENDBRANCH  19  32
ENDBRANCH  18  19
ENDBRANCH  15  18
ENDBRANCH   1  15
BRANCH   1  36
ATOM     36  C   UNL     1       7.095   0.850  27.660  0.00  0.00    +0.060 C 
BRANCH  36  37
ATOM     37  C   UNL     1       6.409   2.012  26.991  0.00  0.00    -0.045 A 
ATOM     38  C   UNL     1       5.754   1.874  25.763  0.00  0.00    +0.007 A 
ATOM     39  C   UNL     1       5.056   2.953  25.222  0.00  0.00    +0.046 A 
ATOM     40  C   UNL     1       5.030   4.179  25.889  0.00  0.00    +0.121 A 
ATOM     41  C   UNL     1       5.703   4.324  27.100  0.00  0.00    +0.046 A 
ATOM     42  C   UNL     1       6.400   3.251  27.639  0.00  0.00    +0.007 A 
BRANCH  40  43
ATOM     43  O   UNL     1       4.307   5.162  25.281  0.00  0.00    -0.486 OA
BRANCH  43  44
ATOM     44  C   UNL     1       4.957   6.436  25.193  0.00  0.00    +0.285 C 
BRANCH  44  45
ATOM     45  C   UNL     1       6.023   6.419  24.148  0.00  0.00    +0.086 A 
ATOM     46  N   UNL     1       7.354   6.472  24.538  0.00  0.00    -0.246 NA
ATOM     47  C   UNL     1       8.129   6.419  23.475  0.00  0.00    +0.076 A 
ATOM     48  C   UNL     1       9.615   6.451  23.528  0.00  0.00    +0.073 C 
ATOM     49  S   UNL     1       7.316   6.297  21.968  0.00  0.00    -0.080 S 
ATOM     50  C   UNL     1       5.819   6.313  22.785  0.00  0.00    +0.073 A 
ENDBRANCH  44  45
ENDBRANCH  43  44
ENDBRANCH  40  43
ENDBRANCH  36  37
ENDBRANCH   1  36
TORSDOF 16
ENDMDL
MODEL 7
REMARK VINA RESULT:      -6.4      2.749      4.398
REMARK  Name = 
REMARK  19 active torsions:
REMARK  status: ('A' for Active; 'I' for Inactive)
REMARK    1  A    between atoms: C_8  and  O_12
REMARK    2  A    between atoms: O_12  and  C_13
REMARK    3  A    between atoms: N_15  and  C_16
REMARK    4  A    between atoms: C_16  and  C_18
REMARK    5  A    between atoms: C_16  and  C_33
REMARK    6  A    between atoms: C_18  and  C_19
REMARK    7  A    between atoms: C_22  and  O_23
REMARK    8  A    between atoms: O_23  and  C_24
REMARK    9  A    between atoms: C_24  and  C_25
REMARK   10  A    between atoms: C_28  and  C_29
REMARK   11  A    between atoms: C_33  and  O_35
REMARK   12  A    between atoms: C_33  and  C_36
REMARK   13  A    between atoms: C_36  and  N_37
REMARK   14  A    between atoms: N_37  and  C_38
REMARK   15  A    between atoms: N_37  and  S_42
REMARK   16  A    between atoms: C_38  and  C_39
REMARK   17  A    between atoms: C_39  and  C_40
REMARK   18  A    between atoms: C_39  and  C_41
REMARK   19  A    between atoms: S_42  and  C_45
REMARK                            x       y       z     vdW  Elec       q    Type
REMARK                         _______ _______ _______ _____ _____    ______ ____
ROOT
ATOM      1  C   UNL     1       9.173   0.603  23.218  0.00  0.00    +0.110 C 
ENDROOT
BRANCH   1   3
ATOM      2  C   UNL     1       8.310   0.164  25.560  0.00  0.00    +0.401 C 
ATOM      3  N   UNL     1       8.123   0.321  24.216  0.00  0.00    -0.275 N 
ATOM      4  H   UNL     1       7.182   0.618  23.993  0.00  0.00    +0.152 HD
ATOM      5  O   UNL     1       9.382  -0.007  26.116  0.00  0.00    -0.226 OA
BRANCH   2   6
ATOM      6  O   UNL     1       7.106   0.265  26.187  0.00  0.00    -0.444 OA
BRANCH   6  10
ATOM      7  C   UNL     1       5.304  -2.718  27.221  0.00  0.00    +0.257 C 
ATOM      8  O   UNL     1       4.596  -1.645  27.846  0.00  0.00    -0.347 OA
ATOM      9  C   UNL     1       5.437  -0.482  27.818  0.00  0.00    +0.208 C 
ATOM     10  C   UNL     1       6.713  -0.824  27.041  0.00  0.00    +0.212 C 
ATOM     11  C   UNL     1       6.321  -2.085  26.302  0.00  0.00    +0.090 C 
ATOM     12  C   UNL     1       5.546  -1.899  25.010  0.00  0.00    +0.040 C 
ATOM     13  C   UNL     1       4.368  -2.852  25.124  0.00  0.00    +0.163 C 
ATOM     14  O   UNL     1       4.450  -3.500  26.395  0.00  0.00    -0.351 OA
ENDBRANCH   6  10
ENDBRANCH   2   6
ENDBRANCH   1   3
BRANCH   1  15
ATOM     15  C   UNL     1       8.686   1.298  21.910  0.00  0.00    +0.151 C 
BRANCH  15  16
ATOM     16  O   UNL     1       9.692   2.242  21.497  0.00  0.00    -0.389 OA
ATOM     17  H   UNL     1       9.242   2.951  21.001  0.00  0.00    +0.210 HD
ENDBRANCH  15  16
BRANCH  15  18
ATOM     18  C   UNL     1       7.361   2.061  22.093  0.00  0.00    +0.142 C 
BRANCH  18  19
ATOM     19  N   UNL     1       7.401   3.164  23.188  0.00  0.00    -0.174 NA
BRANCH  19  20
ATOM     20  S   UNL     1       5.927   3.041  24.143  0.00  0.00    +0.061 S 
ATOM     21  O   UNL     1       6.199   3.665  25.422  0.00  0.00    -0.153 OA
ATOM     22  O   UNL     1       5.424   1.689  24.057  0.00  0.00    -0.153 OA
BRANCH  20  23
ATOM     23  C   UNL     1       4.735   4.061  23.275  0.00  0.00    +0.109 A 
ATOM     24  C   UNL     1       4.480   5.384  23.699  0.00  0.00    +0.032 A 
ATOM     25  C   UNL     1       3.443   6.119  23.106  0.00  0.00    +0.051 A 
ATOM     26  C   UNL     1       2.705   5.517  22.107  0.00  0.00    +0.166 A 
ATOM     27  O   UNL     1       1.643   6.050  21.457  0.00  0.00    -0.453 OA
ATOM     28  C   UNL     1       1.276   4.970  20.579  0.00  0.00    +0.466 C 
ATOM     29  O   UNL     1       2.100   3.799  20.743  0.00  0.00    -0.453 OA
ATOM     30  C   UNL     1       2.962   4.220  21.709  0.00  0.00    +0.168 A 
ATOM     31  C   UNL     1       3.969   3.463  22.264  0.00  0.00    +0.078 A 
ENDBRANCH  20  23
ENDBRANCH  19  20
BRANCH  19  32
ATOM     32  C   UNL     1       7.576   4.534  22.531  0.00  0.00    +0.112 C 
BRANCH  32  33
ATOM     33  C   UNL     1       8.532   5.593  23.135  0.00  0.00    -0.001 C 
ATOM     34  C   UNL     1       9.452   4.868  24.144  0.00  0.00    +0.008 C 
ATOM     35  C   UNL     1       7.897   6.765  23.888  0.00  0.00    +0.008 C 
ENDBRANCH  32  33
ENDBRANCH  19  32
ENDBRANCH  18  19
ENDBRANCH  15  18
ENDBRANCH   1  15
BRANCH   1  36
ATOM     36  C   UNL     1      10.013  -0.644  22.833  0.00  0.00    +0.060 C 
BRANCH  36  37
ATOM     37  C   UNL     1       9.294  -1.955  23.017  0.00  0.00    -0.045 A 
ATOM     38  C   UNL     1       9.602  -2.824  24.068  0.00  0.00    +0.007 A 
ATOM     39  C   UNL     1       8.852  -3.985  24.253  0.00  0.00    +0.046 A 
ATOM     40  C   UNL     1       7.811  -4.296  23.378  0.00  0.00    +0.121 A 
ATOM     41  C   UNL     1       7.519  -3.443  22.317  0.00  0.00    +0.046 A 
ATOM     42  C   UNL     1       8.266  -2.287  22.128  0.00  0.00    +0.007 A 
BRANCH  40  43
ATOM     43  O   UNL     1       7.132  -5.445  23.659  0.00  0.00    -0.486 OA
BRANCH  43  44
ATOM     44  C   UNL     1       6.130  -5.815  22.703  0.00  0.00    +0.285 C 
BRANCH  44  45
ATOM     45  C   UNL     1       4.808  -6.012  23.367  0.00  0.00    +0.086 A 
ATOM     46  N   UNL     1       3.658  -5.563  22.732  0.00  0.00    -0.246 NA
ATOM     47  C   UNL     1       2.605  -5.855  23.467  0.00  0.00    +0.076 A 
ATOM     48  C   UNL     1       1.206  -5.522  23.084  0.00  0.00    +0.073 C 
ATOM     49  S   UNL     1       2.929  -6.679  24.938  0.00  0.00    -0.080 S 
ATOM     50  C   UNL     1       4.596  -6.650  24.575  0.00  0.00    +0.073 A 
ENDBRANCH  44  45
ENDBRANCH  43  44
ENDBRANCH  40  43
ENDBRANCH  36  37
ENDBRANCH   1  36
TORSDOF 16
ENDMDL
MODEL 8
REMARK VINA RESULT:      -6.3      2.309      7.919
REMARK  Name = 
REMARK  19 active torsions:
REMARK  status: ('A' for Active; 'I' for Inactive)
REMARK    1  A    between atoms: C_8  and  O_12
REMARK    2  A    between atoms: O_12  and  C_13
REMARK    3  A    between atoms: N_15  and  C_16
REMARK    4  A    between atoms: C_16  and  C_18
REMARK    5  A    between atoms: C_16  and  C_33
REMARK    6  A    between atoms: C_18  and  C_19
REMARK    7  A    between atoms: C_22  and  O_23
REMARK    8  A    between atoms: O_23  and  C_24
REMARK    9  A    between atoms: C_24  and  C_25
REMARK   10  A    between atoms: C_28  and  C_29
REMARK   11  A    between atoms: C_33  and  O_35
REMARK   12  A    between atoms: C_33  and  C_36
REMARK   13  A    between atoms: C_36  and  N_37
REMARK   14  A    between atoms: N_37  and  C_38
REMARK   15  A    between atoms: N_37  and  S_42
REMARK   16  A    between atoms: C_38  and  C_39
REMARK   17  A    between atoms: C_39  and  C_40
REMARK   18  A    between atoms: C_39  and  C_41
REMARK   19  A    between atoms: S_42  and  C_45
REMARK                            x       y       z     vdW  Elec       q    Type
REMARK                         _______ _______ _______ _____ _____    ______ ____
ROOT
ATOM      1  C   UNL     1       9.525  -1.352  24.056  0.00  0.00    +0.110 C 
ENDROOT
BRANCH   1   3
ATOM      2  C   UNL     1      10.385   1.031  23.954  0.00  0.00    +0.401 C 
ATOM      3  N   UNL     1       9.401   0.097  23.795  0.00  0.00    -0.275 N 
ATOM      4  H   UNL     1       8.704   0.387  23.122  0.00  0.00    +0.152 HD
ATOM      5  O   UNL     1      11.433   0.868  24.557  0.00  0.00    -0.226 OA
BRANCH   2   6
ATOM      6  O   UNL     1      10.023   2.167  23.300  0.00  0.00    -0.444 OA
BRANCH   6  10
ATOM      7  C   UNL     1       7.914   5.019  24.100  0.00  0.00    +0.257 C 
ATOM      8  O   UNL     1       9.167   5.600  23.731  0.00  0.00    -0.347 OA
ATOM      9  C   UNL     1      10.164   4.569  23.769  0.00  0.00    +0.208 C 
ATOM     10  C   UNL     1       9.475   3.238  24.090  0.00  0.00    +0.212 C 
ATOM     11  C   UNL     1       8.020   3.543  23.802  0.00  0.00    +0.090 C 
ATOM     12  C   UNL     1       7.585   3.455  22.350  0.00  0.00    +0.040 C 
ATOM     13  C   UNL     1       6.819   4.742  22.097  0.00  0.00    +0.163 C 
ATOM     14  O   UNL     1       6.849   5.514  23.300  0.00  0.00    -0.351 OA
ENDBRANCH   6  10
ENDBRANCH   2   6
ENDBRANCH   1   3
BRANCH   1  15
ATOM     15  C   UNL     1       9.169  -2.282  22.857  0.00  0.00    +0.151 C 
BRANCH  15  16
ATOM     16  O   UNL     1       9.272  -1.514  21.643  0.00  0.00    -0.389 OA
ATOM     17  H   UNL     1       8.509  -0.907  21.615  0.00  0.00    +0.210 HD
ENDBRANCH  15  16
BRANCH  15  18
ATOM     18  C   UNL     1       7.741  -2.852  22.943  0.00  0.00    +0.142 C 
BRANCH  18  19
ATOM     19  N   UNL     1       7.583  -4.278  22.342  0.00  0.00    -0.174 NA
BRANCH  19  20
ATOM     20  S   UNL     1       6.000  -4.376  21.577  0.00  0.00    +0.061 S 
ATOM     21  O   UNL     1       6.049  -5.486  20.647  0.00  0.00    -0.153 OA
ATOM     22  O   UNL     1       5.601  -3.054  21.152  0.00  0.00    -0.153 OA
BRANCH  20  23
ATOM     23  C   UNL     1       4.879  -4.821  22.904  0.00  0.00    +0.109 A 
ATOM     24  C   UNL     1       4.444  -3.848  23.832  0.00  0.00    +0.032 A 
ATOM     25  C   UNL     1       3.688  -4.236  24.948  0.00  0.00    +0.051 A 
ATOM     26  C   UNL     1       3.383  -5.574  25.096  0.00  0.00    +0.166 A 
ATOM     27  O   UNL     1       2.709  -6.137  26.126  0.00  0.00    -0.453 OA
ATOM     28  C   UNL     1       2.734  -7.528  25.756  0.00  0.00    +0.466 C 
ATOM     29  O   UNL     1       3.451  -7.777  24.531  0.00  0.00    -0.453 OA
ATOM     30  C   UNL     1       3.822  -6.514  24.184  0.00  0.00    +0.168 A 
ATOM     31  C   UNL     1       4.567  -6.177  23.076  0.00  0.00    +0.078 A 
ENDBRANCH  20  23
ENDBRANCH  19  20
BRANCH  19  32
ATOM     32  C   UNL     1       7.782  -5.323  23.441  0.00  0.00    +0.112 C 
BRANCH  32  33
ATOM     33  C   UNL     1       8.014  -4.899  24.912  0.00  0.00    -0.001 C 
ATOM     34  C   UNL     1       9.433  -5.362  25.313  0.00  0.00    +0.008 C 
ATOM     35  C   UNL     1       7.056  -5.465  25.965  0.00  0.00    +0.008 C 
ENDBRANCH  32  33
ENDBRANCH  19  32
ENDBRANCH  18  19
ENDBRANCH  15  18
ENDBRANCH   1  15
BRANCH   1  36
ATOM     36  C   UNL     1       8.733  -1.825  25.305  0.00  0.00    +0.060 C 
BRANCH  36  37
ATOM     37  C   UNL     1       7.701  -0.842  25.792  0.00  0.00    -0.045 A 
ATOM     38  C   UNL     1       8.023   0.178  26.694  0.00  0.00    +0.007 A 
ATOM     39  C   UNL     1       7.059   1.120  27.050  0.00  0.00    +0.046 A 
ATOM     40  C   UNL     1       5.767   1.035  26.530  0.00  0.00    +0.121 A 
ATOM     41  C   UNL     1       5.439   0.006  25.651  0.00  0.00    +0.046 A 
ATOM     42  C   UNL     1       6.396  -0.935  25.296  0.00  0.00    +0.007 A 
BRANCH  40  43
ATOM     43  O   UNL     1       4.907   2.016  26.932  0.00  0.00    -0.486 OA
BRANCH  43  44
ATOM     44  C   UNL     1       5.241   3.339  26.496  0.00  0.00    +0.285 C 
BRANCH  44  45
ATOM     45  C   UNL     1       4.289   3.809  25.447  0.00  0.00    +0.086 A 
ATOM     46  N   UNL     1       4.362   3.262  24.173  0.00  0.00    -0.246 NA
ATOM     47  C   UNL     1       3.426   3.789  23.411  0.00  0.00    +0.076 A 
ATOM     48  C   UNL     1       3.214   3.427  21.984  0.00  0.00    +0.073 C 
ATOM     49  S   UNL     1       2.415   4.950  24.170  0.00  0.00    -0.080 S 
ATOM     50  C   UNL     1       3.282   4.739  25.624  0.00  0.00    +0.073 A 
ENDBRANCH  44  45
ENDBRANCH  43  44
ENDBRANCH  40  43
ENDBRANCH  36  37
ENDBRANCH   1  36
TORSDOF 16
ENDMDL
MODEL 9
REMARK VINA RESULT:      -6.3      2.274      9.291
REMARK  Name = 
REMARK  19 active torsions:
REMARK  status: ('A' for Active; 'I' for Inactive)
REMARK    1  A    between atoms: C_8  and  O_12
REMARK    2  A    between atoms: O_12  and  C_13
REMARK    3  A    between atoms: N_15  and  C_16
REMARK    4  A    between atoms: C_16  and  C_18
REMARK    5  A    between atoms: C_16  and  C_33
REMARK    6  A    between atoms: C_18  and  C_19
REMARK    7  A    between atoms: C_22  and  O_23
REMARK    8  A    between atoms: O_23  and  C_24
REMARK    9  A    between atoms: C_24  and  C_25
REMARK   10  A    between atoms: C_28  and  C_29
REMARK   11  A    between atoms: C_33  and  O_35
REMARK   12  A    between atoms: C_33  and  C_36
REMARK   13  A    between atoms: C_36  and  N_37
REMARK   14  A    between atoms: N_37  and  C_38
REMARK   15  A    between atoms: N_37  and  S_42
REMARK   16  A    between atoms: C_38  and  C_39
REMARK   17  A    between atoms: C_39  and  C_40
REMARK   18  A    between atoms: C_39  and  C_41
REMARK   19  A    between atoms: S_42  and  C_45
REMARK                            x       y       z     vdW  Elec       q    Type
REMARK                         _______ _______ _______ _____ _____    ______ ____
ROOT
ATOM      1  C   UNL     1       6.360   0.056  27.138  0.00  0.00    +0.110 C 
ENDROOT
BRANCH   1   3
ATOM      2  C   UNL     1       8.625  -0.876  26.486  0.00  0.00    +0.401 C 
ATOM      3  N   UNL     1       7.775   0.164  26.731  0.00  0.00    -0.275 N 
ATOM      4  H   UNL     1       8.053   1.007  26.245  0.00  0.00    +0.152 HD
ATOM      5  O   UNL     1       8.434  -2.041  26.791  0.00  0.00    -0.226 OA
BRANCH   2   6
ATOM      6  O   UNL     1       9.711  -0.408  25.812  0.00  0.00    -0.444 OA
BRANCH   6  10
ATOM      7  C   UNL     1       9.930   0.221  22.239  0.00  0.00    +0.257 C 
ATOM      8  O   UNL     1       8.545  -0.052  22.463  0.00  0.00    -0.347 OA
ATOM      9  C   UNL     1       8.419  -0.680  23.748  0.00  0.00    +0.208 C 
ATOM     10  C   UNL     1       9.801  -0.715  24.409  0.00  0.00    +0.212 C 
ATOM     11  C   UNL     1      10.580   0.298  23.599  0.00  0.00    +0.090 C 
ATOM     12  C   UNL     1      10.398   1.756  23.983  0.00  0.00    +0.040 C 
ATOM     13  C   UNL     1      10.129   2.471  22.670  0.00  0.00    +0.163 C 
ATOM     14  O   UNL     1      10.123   1.491  21.630  0.00  0.00    -0.351 OA
ENDBRANCH   6  10
ENDBRANCH   2   6
ENDBRANCH   1   3
BRANCH   1  15
ATOM     15  C   UNL     1       5.576  -1.145  26.526  0.00  0.00    +0.151 C 
BRANCH  15  16
ATOM     16  O   UNL     1       4.966  -0.707  25.297  0.00  0.00    -0.389 OA
ATOM     17  H   UNL     1       5.193  -1.360  24.608  0.00  0.00    +0.210 HD
ENDBRANCH  15  16
BRANCH  15  18
ATOM     18  C   UNL     1       4.465  -1.673  27.451  0.00  0.00    +0.142 C 
BRANCH  18  19
ATOM     19  N   UNL     1       4.433  -3.221  27.598  0.00  0.00    -0.174 NA
BRANCH  19  20
ATOM     20  S   UNL     1       3.525  -3.880  26.241  0.00  0.00    +0.061 S 
ATOM     21  O   UNL     1       2.899  -2.761  25.568  0.00  0.00    -0.153 OA
ATOM     22  O   UNL     1       2.752  -5.012  26.700  0.00  0.00    -0.153 OA
BRANCH  20  23
ATOM     23  C   UNL     1       4.772  -4.555  25.143  0.00  0.00    +0.109 A 
ATOM     24  C   UNL     1       6.133  -4.562  25.521  0.00  0.00    +0.032 A 
ATOM     25  C   UNL     1       7.113  -4.956  24.597  0.00  0.00    +0.051 A 
ATOM     26  C   UNL     1       6.703  -5.336  23.336  0.00  0.00    +0.166 A 
ATOM     27  O   UNL     1       7.503  -5.698  22.305  0.00  0.00    -0.453 OA
ATOM     28  C   UNL     1       6.536  -5.942  21.267  0.00  0.00    +0.466 C 
ATOM     29  O   UNL     1       5.180  -5.688  21.682  0.00  0.00    -0.453 OA
ATOM     30  C   UNL     1       5.370  -5.317  22.979  0.00  0.00    +0.168 A 
ATOM     31  C   UNL     1       4.376  -4.937  23.853  0.00  0.00    +0.078 A 
ENDBRANCH  20  23
ENDBRANCH  19  20
BRANCH  19  32
ATOM     32  C   UNL     1       3.837  -3.595  28.955  0.00  0.00    +0.112 C 
BRANCH  32  33
ATOM     33  C   UNL     1       4.476  -4.703  29.829  0.00  0.00    -0.001 C 
ATOM     34  C   UNL     1       5.656  -5.304  29.031  0.00  0.00    +0.008 C 
ATOM     35  C   UNL     1       3.583  -5.878  30.239  0.00  0.00    +0.008 C 
ENDBRANCH  32  33
ENDBRANCH  19  32
ENDBRANCH  18  19
ENDBRANCH  15  18
ENDBRANCH   1  15
BRANCH   1  36
ATOM     36  C   UNL     1       5.545   1.355  26.897  0.00  0.00    +0.060 C 
BRANCH  36  37
ATOM     37  C   UNL     1       6.249   2.377  26.044  0.00  0.00    -0.045 A 
ATOM     38  C   UNL     1       6.195   2.335  24.647  0.00  0.00    +0.007 A 
ATOM     39  C   UNL     1       6.787   3.350  23.898  0.00  0.00    +0.046 A 
ATOM     40  C   UNL     1       7.456   4.396  24.535  0.00  0.00    +0.121 A 
ATOM     41  C   UNL     1       7.532   4.425  25.925  0.00  0.00    +0.046 A 
ATOM     42  C   UNL     1       6.945   3.414  26.674  0.00  0.00    +0.007 A 
BRANCH  40  43
ATOM     43  O   UNL     1       7.986   5.344  23.709  0.00  0.00    -0.486 OA
BRANCH  43  44
ATOM     44  C   UNL     1       8.467   6.526  24.361  0.00  0.00    +0.285 C 
BRANCH  44  45
ATOM     45  C   UNL     1       9.950   6.480  24.518  0.00  0.00    +0.086 A 
ATOM     46  N   UNL     1      10.709   5.790  23.583  0.00  0.00    -0.246 NA
ATOM     47  C   UNL     1      11.986   5.893  23.886  0.00  0.00    +0.076 A 
ATOM     48  C   UNL     1      13.082   5.275  23.092  0.00  0.00    +0.073 C 
ATOM     49  S   UNL     1      12.345   6.817  25.287  0.00  0.00    -0.080 S 
ATOM     50  C   UNL     1      10.679   7.107  25.511  0.00  0.00    +0.073 A 
ENDBRANCH  44  45
ENDBRANCH  43  44
ENDBRANCH  40  43
ENDBRANCH  36  37
ENDBRANCH   1  36
TORSDOF 16
ENDMDL
