MODEL 1
REMARK VINA RESULT:      -4.3      0.000      0.000
REMARK  Name = 
REMARK  1 active torsions:
REMARK  status: ('A' for Active; 'I' for Inactive)
REMARK    1  A    between atoms: C_2  and  C_4
REMARK                            x       y       z     vdW  Elec       q    Type
REMARK                         _______ _______ _______ _____ _____    ______ ____
ROOT
ATOM      1  C   UNL     1       9.958  -0.350  22.871  0.00  0.00    +0.055 A 
ATOM      2  C   UNL     1      10.436   0.140  24.080  0.00  0.00    +0.123 A 
ATOM      3  N   UNL     1      10.680   1.453  24.317  0.00  0.00    -0.263 NA
ATOM      4  C   UNL     1      10.458   2.307  23.294  0.00  0.00    +0.111 A 
ATOM      5  C   UNL     1      10.004   1.910  22.045  0.00  0.00    +0.020 A 
ATOM      6  C   UNL     1       9.750   0.556  21.829  0.00  0.00    +0.016 A 
ENDROOT
BRANCH   1  10
ATOM      7  N   UNL     1       8.541  -2.188  22.151  0.00  0.00    -0.325 N 
ATOM      8  H   UNL     1       7.762  -1.557  22.021  0.00  0.00    +0.145 HD
ATOM      9  H   UNL     1       8.339  -3.180  22.170  0.00  0.00    +0.145 HD
ATOM     10  C   UNL     1       9.713  -1.801  22.738  0.00  0.00    +0.243 C 
ATOM     11  O   UNL     1      10.506  -2.628  23.170  0.00  0.00    -0.270 OA
ENDBRANCH   1  10
TORSDOF 1
ENDMDL
MODEL 2
REMARK VINA RESULT:      -4.2      2.217      3.828
REMARK  Name = 
REMARK  1 active torsions:
REMARK  status: ('A' for Active; 'I' for Inactive)
REMARK    1  A    between atoms: C_2  and  C_4
REMARK                            x       y       z     vdW  Elec       q    Type
REMARK                         _______ _______ _______ _____ _____    ______ ____
ROOT
ATOM      1  C   UNL     1      10.014   0.376  23.113  0.00  0.00    +0.055 A 
ATOM      2  C   UNL     1      10.017  -0.504  22.038  0.00  0.00    +0.123 A 
ATOM      3  N   UNL     1       9.830  -1.842  22.159  0.00  0.00    -0.263 NA
ATOM      4  C   UNL     1       9.657  -2.320  23.411  0.00  0.00    +0.111 A 
ATOM      5  C   UNL     1       9.661  -1.524  24.547  0.00  0.00    +0.020 A 
ATOM      6  C   UNL     1       9.845  -0.150  24.394  0.00  0.00    +0.016 A 
ENDROOT
BRANCH   1  10
ATOM      7  N   UNL     1       9.969   2.263  21.582  0.00  0.00    -0.325 N 
ATOM      8  H   UNL     1       9.891   1.639  20.791  0.00  0.00    +0.145 HD
ATOM      9  H   UNL     1      10.216   3.227  21.393  0.00  0.00    +0.145 HD
ATOM     10  C   UNL     1      10.211   1.817  22.852  0.00  0.00    +0.243 C 
ATOM     11  O   UNL     1      10.613   2.578  23.722  0.00  0.00    -0.270 OA
ENDBRANCH   1  10
TORSDOF 1
ENDMDL
MODEL 3
REMARK VINA RESULT:      -4.2      2.203      3.512
REMARK  Name = 
REMARK  1 active torsions:
REMARK  status: ('A' for Active; 'I' for Inactive)
REMARK    1  A    between atoms: C_2  and  C_4
REMARK                            x       y       z     vdW  Elec       q    Type
REMARK                         _______ _______ _______ _____ _____    ______ ____
ROOT
ATOM      1  C   UNL     1       9.939   0.298  22.944  0.00  0.00    +0.055 A 
ATOM      2  C   UNL     1       9.948  -0.323  24.187  0.00  0.00    +0.123 A 
ATOM      3  N   UNL     1       9.641  -1.630  24.378  0.00  0.00    -0.263 NA
ATOM      4  C   UNL     1       9.287  -2.338  23.283  0.00  0.00    +0.111 A 
ATOM      5  C   UNL     1       9.227  -1.801  22.006  0.00  0.00    +0.020 A 
ATOM      6  C   UNL     1       9.558  -0.457  21.834  0.00  0.00    +0.016 A 
ENDROOT
BRANCH   1  10
ATOM      7  N   UNL     1      10.119   2.353  21.661  0.00  0.00    -0.325 N 
ATOM      8  H   UNL     1       9.962   1.848  20.800  0.00  0.00    +0.145 HD
ATOM      9  H   UNL     1      10.481   3.296  21.588  0.00  0.00    +0.145 HD
ATOM     10  C   UNL     1      10.310   1.726  22.860  0.00  0.00    +0.243 C 
ATOM     11  O   UNL     1      10.805   2.317  23.811  0.00  0.00    -0.270 OA
ENDBRANCH   1  10
TORSDOF 1
ENDMDL
MODEL 4
REMARK VINA RESULT:      -4.1      0.976      1.620
REMARK  Name = 
REMARK  1 active torsions:
REMARK  status: ('A' for Active; 'I' for Inactive)
REMARK    1  A    between atoms: C_2  and  C_4
REMARK                            x       y       z     vdW  Elec       q    Type
REMARK                         _______ _______ _______ _____ _____    ______ ____
ROOT
ATOM      1  C   UNL     1       9.933  -0.487  23.064  0.00  0.00    +0.055 A 
ATOM      2  C   UNL     1       9.717   0.294  21.936  0.00  0.00    +0.123 A 
ATOM      3  N   UNL     1       9.969   1.626  21.882  0.00  0.00    -0.263 NA
ATOM      4  C   UNL     1      10.434   2.202  23.011  0.00  0.00    +0.111 A 
ATOM      5  C   UNL     1      10.660   1.511  24.192  0.00  0.00    +0.020 A 
ATOM      6  C   UNL     1      10.403   0.140  24.219  0.00  0.00    +0.016 A 
ENDROOT
BRANCH   1  10
ATOM      7  N   UNL     1       8.562  -2.317  22.242  0.00  0.00    -0.325 N 
ATOM      8  H   UNL     1       7.852  -1.668  21.934  0.00  0.00    +0.145 HD
ATOM      9  H   UNL     1       8.306  -3.296  22.296  0.00  0.00    +0.145 HD
ATOM     10  C   UNL     1       9.636  -1.933  22.995  0.00  0.00    +0.243 C 
ATOM     11  O   UNL     1      10.299  -2.754  23.616  0.00  0.00    -0.270 OA
ENDBRANCH   1  10
TORSDOF 1
ENDMDL
MODEL 5
REMARK VINA RESULT:      -4.0      2.494      3.574
REMARK  Name = 
REMARK  1 active torsions:
REMARK  status: ('A' for Active; 'I' for Inactive)
REMARK    1  A    between atoms: C_2  and  C_4
REMARK                            x       y       z     vdW  Elec       q    Type
REMARK                         _______ _______ _______ _____ _____    ______ ____
ROOT
ATOM      1  C   UNL     1       9.293   0.263  22.595  0.00  0.00    +0.055 A 
ATOM      2  C   UNL     1       8.735   0.173  23.864  0.00  0.00    +0.123 A 
ATOM      3  N   UNL     1       8.871  -0.907  24.672  0.00  0.00    -0.263 NA
ATOM      4  C   UNL     1       9.575  -1.949  24.180  0.00  0.00    +0.111 A 
ATOM      5  C   UNL     1      10.150  -1.963  22.918  0.00  0.00    +0.020 A 
ATOM      6  C   UNL     1      10.006  -0.835  22.110  0.00  0.00    +0.016 A 
ENDROOT
BRANCH   1  10
ATOM      7  N   UNL     1      10.166   2.333  21.668  0.00  0.00    -0.325 N 
ATOM      8  H   UNL     1      10.995   2.258  22.242  0.00  0.00    +0.145 HD
ATOM      9  H   UNL     1       9.982   3.227  21.229  0.00  0.00    +0.145 HD
ATOM     10  C   UNL     1       9.091   1.502  21.814  0.00  0.00    +0.243 C 
ATOM     11  O   UNL     1       7.997   1.795  21.349  0.00  0.00    -0.270 OA
ENDBRANCH   1  10
TORSDOF 1
ENDMDL
MODEL 6
REMARK VINA RESULT:      -4.0      1.310      1.692
REMARK  Name = 
REMARK  1 active torsions:
REMARK  status: ('A' for Active; 'I' for Inactive)
REMARK    1  A    between atoms: C_2  and  C_4
REMARK                            x       y       z     vdW  Elec       q    Type
REMARK                         _______ _______ _______ _____ _____    ______ ____
ROOT
ATOM      1  C   UNL     1       9.446  -1.679  23.112  0.00  0.00    +0.055 A 
ATOM      2  C   UNL     1      10.077  -0.731  23.909  0.00  0.00    +0.123 A 
ATOM      3  N   UNL     1      10.355   0.532  23.501  0.00  0.00    -0.263 NA
ATOM      4  C   UNL     1      10.008   0.852  22.235  0.00  0.00    +0.111 A 
ATOM      5  C   UNL     1       9.396  -0.031  21.358  0.00  0.00    +0.020 A 
ATOM      6  C   UNL     1       9.111  -1.321  21.805  0.00  0.00    +0.016 A 
ENDROOT
BRANCH   1  10
ATOM      7  N   UNL     1       7.939  -3.551  23.465  0.00  0.00    -0.325 N 
ATOM      8  H   UNL     1       7.153  -2.997  23.157  0.00  0.00    +0.145 HD
ATOM      9  H   UNL     1       7.737  -4.416  23.951  0.00  0.00    +0.145 HD
ATOM     10  C   UNL     1       9.180  -3.019  23.675  0.00  0.00    +0.243 C 
ATOM     11  O   UNL     1      10.020  -3.614  24.337  0.00  0.00    -0.270 OA
ENDBRANCH   1  10
TORSDOF 1
ENDMDL
MODEL 7
REMARK VINA RESULT:      -3.9      4.493      5.570
REMARK  Name = 
REMARK  1 active torsions:
REMARK  status: ('A' for Active; 'I' for Inactive)
REMARK    1  A    between atoms: C_2  and  C_4
REMARK                            x       y       z     vdW  Elec       q    Type
REMARK                         _______ _______ _______ _____ _____    ______ ____
ROOT
ATOM      1  C   UNL     1       7.014  -4.680  22.442  0.00  0.00    +0.055 A 
ATOM      2  C   UNL     1       7.810  -5.306  23.393  0.00  0.00    +0.123 A 
ATOM      3  N   UNL     1       8.727  -4.657  24.153  0.00  0.00    -0.263 NA
ATOM      4  C   UNL     1       8.870  -3.332  23.934  0.00  0.00    +0.111 A 
ATOM      5  C   UNL     1       8.138  -2.624  22.993  0.00  0.00    +0.020 A 
ATOM      6  C   UNL     1       7.193  -3.311  22.231  0.00  0.00    +0.016 A 
ENDROOT
BRANCH   1  10
ATOM      7  N   UNL     1       5.203  -6.299  22.410  0.00  0.00    -0.325 N 
ATOM      8  H   UNL     1       5.375  -6.534  23.378  0.00  0.00    +0.145 HD
ATOM      9  H   UNL     1       4.618  -6.930  21.875  0.00  0.00    +0.145 HD
ATOM     10  C   UNL     1       6.036  -5.491  21.687  0.00  0.00    +0.243 C 
ATOM     11  O   UNL     1       5.995  -5.473  20.464  0.00  0.00    -0.270 OA
ENDBRANCH   1  10
TORSDOF 1
ENDMDL
MODEL 8
REMARK VINA RESULT:      -3.8      3.516      4.464
REMARK  Name = 
REMARK  1 active torsions:
REMARK  status: ('A' for Active; 'I' for Inactive)
REMARK    1  A    between atoms: C_2  and  C_4
REMARK                            x       y       z     vdW  Elec       q    Type
REMARK                         _______ _______ _______ _____ _____    ______ ____
ROOT
ATOM      1  C   UNL     1       8.968  -3.618  25.293  0.00  0.00    +0.055 A 
ATOM      2  C   UNL     1       9.602  -2.971  24.240  0.00  0.00    +0.123 A 
ATOM      3  N   UNL     1       9.730  -1.624  24.151  0.00  0.00    -0.263 NA
ATOM      4  C   UNL     1       9.181  -0.894  25.146  0.00  0.00    +0.111 A 
ATOM      5  C   UNL     1       8.510  -1.447  26.226  0.00  0.00    +0.020 A 
ATOM      6  C   UNL     1       8.400  -2.835  26.300  0.00  0.00    +0.016 A 
ENDROOT
BRANCH   1  10
ATOM      7  N   UNL     1       8.502  -5.709  26.440  0.00  0.00    -0.325 N 
ATOM      8  H   UNL     1       8.470  -5.231  27.330  0.00  0.00    +0.145 HD
ATOM      9  H   UNL     1       8.573  -6.719  26.455  0.00  0.00    +0.145 HD
ATOM     10  C   UNL     1       8.906  -5.094  25.288  0.00  0.00    +0.243 C 
ATOM     11  O   UNL     1       9.240  -5.746  24.307  0.00  0.00    -0.270 OA
ENDBRANCH   1  10
TORSDOF 1
ENDMDL
MODEL 9
REMARK VINA RESULT:      -3.8      2.461      4.540
REMARK  Name = 
REMARK  1 active torsions:
REMARK  status: ('A' for Active; 'I' for Inactive)
REMARK    1  A    between atoms: C_2  and  C_4
REMARK                            x       y       z     vdW  Elec       q    Type
REMARK                         _______ _______ _______ _____ _____    ______ ____
ROOT
ATOM      1  C   UNL     1       9.219  -2.243  23.067  0.00  0.00    +0.055 A 
ATOM      2  C   UNL     1       8.074  -2.722  22.442  0.00  0.00    +0.123 A 
ATOM      3  N   UNL     1       7.384  -3.810  22.865  0.00  0.00    -0.263 NA
ATOM      4  C   UNL     1       7.874  -4.459  23.944  0.00  0.00    +0.111 A 
ATOM      5  C   UNL     1       9.021  -4.071  24.620  0.00  0.00    +0.020 A 
ATOM      6  C   UNL     1       9.707  -2.943  24.172  0.00  0.00    +0.016 A 
ENDROOT
BRANCH   1  10
ATOM      7  N   UNL     1       9.679  -0.761  21.197  0.00  0.00    -0.325 N 
ATOM      8  H   UNL     1       9.316  -1.444  20.547  0.00  0.00    +0.145 HD
ATOM      9  H   UNL     1      10.223   0.003  20.815  0.00  0.00    +0.145 HD
ATOM     10  C   UNL     1       9.874  -1.035  22.522  0.00  0.00    +0.243 C 
ATOM     11  O   UNL     1      10.593  -0.328  23.215  0.00  0.00    -0.270 OA
ENDBRANCH   1  10
TORSDOF 1
ENDMDL
