MODEL 1
REMARK VINA RESULT:      -7.5      0.000      0.000
REMARK  Name = 
REMARK  14 active torsions:
REMARK  status: ('A' for Active; 'I' for Inactive)
REMARK    1  A    between atoms: C_4  and  O_5
REMARK    2  A    between atoms: C_8  and  C_9
REMARK    3  A    between atoms: C_9  and  C_10
REMARK    4  A    between atoms: C_10  and  C_12
REMARK    5  A    between atoms: C_10  and  C_15
REMARK    6  A    between atoms: C_12  and  O_13
REMARK    7  A    between atoms: C_18  and  C_21
REMARK    8  A    between atoms: N_23  and  CA_24
REMARK    9  A    between atoms: CA_24  and  CB_26
REMARK   10  A    between atoms: CA_24  and  C_31
REMARK   11  A    between atoms: CB_26  and  CG_27
REMARK   12  A    between atoms: CG_27  and  CD_28
REMARK   13  A    between atoms: CD_28  and  OE1_29
REMARK   14  A    between atoms: C_31  and  O_32
REMARK                            x       y       z     vdW  Elec       q    Type
REMARK                         _______ _______ _______ _____ _____    ______ ____
ROOT
ATOM      1  C   UNK A   0      10.025   4.006  23.335  0.00  0.00    +0.132 C 
ENDROOT
BRANCH   1   2
ATOM      2  C   UNK A   0      10.202   2.489  23.254  0.00  0.00    -0.033 A 
ATOM      3  C   UNK A   0      10.326   1.725  24.425  0.00  0.00    +0.005 A 
ATOM      4  C   UNK A   0      10.188   0.337  24.398  0.00  0.00    +0.013 A 
ATOM      5  C   UNK A   0       9.926  -0.319  23.192  0.00  0.00    +0.037 A 
ATOM      6  C   UNK A   0       9.904   0.428  22.005  0.00  0.00    +0.013 A 
ATOM      7  C   UNK A   0      10.042   1.821  22.032  0.00  0.00    +0.005 A 
BRANCH   5   8
ATOM      8  C   UNK A   0       9.492  -1.750  23.132  0.00  0.00    +0.245 C 
ATOM      9  N   GLU A   1       8.131  -2.010  23.097  0.00  0.00    -0.298 N 
ATOM     10  H   GLU A   1       7.478  -1.312  23.431  0.00  0.00    +0.150 HD
ATOM     11  O   UNK A   0      10.318  -2.644  23.004  0.00  0.00    -0.270 OA
BRANCH   9  12
ATOM     12  CA  GLU A   1       7.619  -3.385  22.924  0.00  0.00    +0.182 C 
BRANCH  12  13
ATOM     13  C   GLU A   1       6.358  -3.392  22.027  0.00  0.00    +0.325 C 
ATOM     14  OXT GLU A   1       6.038  -4.320  21.296  0.00  0.00    -0.249 OA
BRANCH  13  15
ATOM     15  O   GLU A   1       5.581  -2.290  22.153  0.00  0.00    -0.479 OA
ATOM     16  H   GLU A   1       4.812  -2.362  21.556  0.00  0.00    +0.295 HD
ENDBRANCH  13  15
ENDBRANCH  12  13
BRANCH  12  17
ATOM     17  CB  GLU A   1       7.321  -4.000  24.301  0.00  0.00    +0.045 C 
BRANCH  17  18
ATOM     18  CG  GLU A   1       8.154  -5.247  24.608  0.00  0.00    +0.123 C 
BRANCH  18  19
ATOM     19  CD  GLU A   1       9.319  -4.955  25.517  0.00  0.00    +0.305 C 
ATOM     20  OE2 GLU A   1       9.231  -4.662  26.700  0.00  0.00    -0.251 OA
BRANCH  19  21
ATOM     21  OE1 GLU A   1      10.506  -5.057  24.874  0.00  0.00    -0.481 OA
ATOM     22  HE1 GLU A   1      10.708  -4.299  24.297  0.00  0.00    +0.295 HD
ENDBRANCH  19  21
ENDBRANCH  18  19
ENDBRANCH  17  18
ENDBRANCH  12  17
ENDBRANCH   9  12
ENDBRANCH   5   8
ENDBRANCH   1   2
BRANCH   1  23
ATOM     23  C   UNK A   0      11.342   4.716  23.635  0.00  0.00    +0.313 C 
ATOM     24  O   UNK A   0      12.451   4.288  23.343  0.00  0.00    -0.250 OA
BRANCH  23  25
ATOM     25  O   UNK A   0      11.184   5.938  24.199  0.00  0.00    -0.480 OA
ATOM     26  H   UNK A   0      11.846   6.156  24.882  0.00  0.00    +0.295 HD
ENDBRANCH  23  25
ENDBRANCH   1  23
BRANCH   1  27
ATOM     27  C   UNK A   0       8.965   4.285  24.425  0.00  0.00    +0.054 C 
BRANCH  27  36
ATOM     28  N   UNK A   0       1.354   4.167  22.740  0.00  0.00    -0.327 N 
ATOM     29  H   UNK A   0       1.217   5.150  22.540  0.00  0.00    +0.145 HD
ATOM     30  H   UNK A   0       0.721   3.738  23.397  0.00  0.00    +0.145 HD
ATOM     31  C   UNK A   0       2.660   3.955  23.124  0.00  0.00    +0.216 A 
ATOM     32  N   UNK A   0       3.561   4.872  22.754  0.00  0.00    -0.214 NA
ATOM     33  C   UNK A   0       4.832   4.692  23.136  0.00  0.00    +0.080 A 
ATOM     34  C   UNK A   0       5.237   3.596  23.896  0.00  0.00    +0.062 A 
ATOM     35  C   UNK A   0       6.586   3.434  24.290  0.00  0.00    +0.019 A 
ATOM     36  C   UNK A   0       7.540   4.394  23.943  0.00  0.00    -0.045 A 
ATOM     37  C   UNK A   0       7.131   5.493  23.182  0.00  0.00    +0.006 A 
ATOM     38  C   UNK A   0       4.201   2.734  24.221  0.00  0.00    +0.225 A 
ATOM     39  C   UNK A   0       5.797   5.626  22.785  0.00  0.00    +0.029 A 
ATOM     40  N   UNK A   0       2.920   2.881  23.870  0.00  0.00    -0.179 NA
BRANCH  38  41
ATOM     41  O   UNK A   0       4.422   1.626  24.981  0.00  0.00    -0.492 OA
ATOM     42  H   UNK A   0       3.505   1.364  25.176  0.00  0.00    +0.294 HD
ENDBRANCH  38  41
ENDBRANCH  27  36
ENDBRANCH   1  27
TORSDOF 14
ENDMDL
MODEL 2
REMARK VINA RESULT:      -7.5      3.059      8.543
REMARK  Name = 
REMARK  14 active torsions:
REMARK  status: ('A' for Active; 'I' for Inactive)
REMARK    1  A    between atoms: C_4  and  O_5
REMARK    2  A    between atoms: C_8  and  C_9
REMARK    3  A    between atoms: C_9  and  C_10
REMARK    4  A    between atoms: C_10  and  C_12
REMARK    5  A    between atoms: C_10  and  C_15
REMARK    6  A    between atoms: C_12  and  O_13
REMARK    7  A    between atoms: C_18  and  C_21
REMARK    8  A    between atoms: N_23  and  CA_24
REMARK    9  A    between atoms: CA_24  and  CB_26
REMARK   10  A    between atoms: CA_24  and  C_31
REMARK   11  A    between atoms: CB_26  and  CG_27
REMARK   12  A    between atoms: CG_27  and  CD_28
REMARK   13  A    between atoms: CD_28  and  OE1_29
REMARK   14  A    between atoms: C_31  and  O_32
REMARK                            x       y       z     vdW  Elec       q    Type
REMARK                         _______ _______ _______ _____ _____    ______ ____
ROOT
ATOM      1  C   UNK A   0       8.648  -1.835  23.165  0.00  0.00    +0.132 C 
ENDROOT
BRANCH   1   2
ATOM      2  C   UNK A   0       8.095  -0.526  23.728  0.00  0.00    -0.033 A 
ATOM      3  C   UNK A   0       8.777   0.151  24.752  0.00  0.00    +0.005 A 
ATOM      4  C   UNK A   0       8.468   1.474  25.072  0.00  0.00    +0.013 A 
ATOM      5  C   UNK A   0       7.464   2.149  24.373  0.00  0.00    +0.037 A 
ATOM      6  C   UNK A   0       6.711   1.447  23.420  0.00  0.00    +0.013 A 
ATOM      7  C   UNK A   0       7.021   0.119  23.099  0.00  0.00    +0.005 A 
BRANCH   5   8
ATOM      8  C   UNK A   0       7.276   3.630  24.466  0.00  0.00    +0.245 C 
ATOM      9  N   GLU A   1       8.050   4.432  23.643  0.00  0.00    -0.298 N 
ATOM     10  H   GLU A   1       8.914   4.070  23.258  0.00  0.00    +0.150 HD
ATOM     11  O   UNK A   0       6.387   4.099  25.165  0.00  0.00    -0.270 OA
BRANCH   9  12
ATOM     12  CA  GLU A   1       7.849   5.895  23.590  0.00  0.00    +0.182 C 
BRANCH  12  13
ATOM     13  C   GLU A   1       6.914   6.278  22.418  0.00  0.00    +0.325 C 
ATOM     14  OXT GLU A   1       5.745   6.615  22.552  0.00  0.00    -0.249 OA
BRANCH  13  15
ATOM     15  O   GLU A   1       7.513   6.268  21.204  0.00  0.00    -0.479 OA
ATOM     16  H   GLU A   1       6.848   6.438  20.509  0.00  0.00    +0.295 HD
ENDBRANCH  13  15
ENDBRANCH  12  13
BRANCH  12  17
ATOM     17  CB  GLU A   1       9.210   6.598  23.463  0.00  0.00    +0.045 C 
BRANCH  17  18
ATOM     18  CG  GLU A   1      10.283   6.026  24.392  0.00  0.00    +0.123 C 
BRANCH  18  19
ATOM     19  CD  GLU A   1      11.437   5.419  23.638  0.00  0.00    +0.305 C 
ATOM     20  OE2 GLU A   1      12.554   5.908  23.549  0.00  0.00    -0.251 OA
BRANCH  19  21
ATOM     21  OE1 GLU A   1      11.105   4.242  23.058  0.00  0.00    -0.481 OA
ATOM     22  HE1 GLU A   1      10.530   4.336  22.276  0.00  0.00    +0.295 HD
ENDBRANCH  19  21
ENDBRANCH  18  19
ENDBRANCH  17  18
ENDBRANCH  12  17
ENDBRANCH   9  12
ENDBRANCH   5   8
ENDBRANCH   1   2
BRANCH   1  23
ATOM     23  C   UNK A   0       9.833  -1.597  22.233  0.00  0.00    +0.313 C 
ATOM     24  O   UNK A   0      10.981  -1.960  22.453  0.00  0.00    -0.250 OA
BRANCH  23  25
ATOM     25  O   UNK A   0       9.494  -1.001  21.064  0.00  0.00    -0.480 OA
ATOM     26  H   UNK A   0       9.774  -1.489  20.267  0.00  0.00    +0.295 HD
ENDBRANCH  23  25
ENDBRANCH   1  23
BRANCH   1  27
ATOM     27  C   UNK A   0       7.485  -2.548  22.438  0.00  0.00    +0.054 C 
BRANCH  27  36
ATOM     28  N   UNK A   0       3.857  -7.144  27.586  0.00  0.00    -0.327 N 
ATOM     29  H   UNK A   0       2.922  -6.762  27.514  0.00  0.00    +0.145 HD
ATOM     30  H   UNK A   0       4.248  -7.235  28.511  0.00  0.00    +0.145 HD
ATOM     31  C   UNK A   0       4.709  -6.428  26.773  0.00  0.00    +0.216 A 
ATOM     32  N   UNK A   0       4.157  -5.737  25.770  0.00  0.00    -0.214 NA
ATOM     33  C   UNK A   0       4.969  -5.020  24.982  0.00  0.00    +0.080 A 
ATOM     34  C   UNK A   0       6.349  -4.971  25.176  0.00  0.00    +0.062 A 
ATOM     35  C   UNK A   0       7.181  -4.199  24.331  0.00  0.00    +0.019 A 
ATOM     36  C   UNK A   0       6.626  -3.444  23.295  0.00  0.00    -0.045 A 
ATOM     37  C   UNK A   0       5.243  -3.494  23.105  0.00  0.00    +0.006 A 
ATOM     38  C   UNK A   0       6.783  -5.720  26.259  0.00  0.00    +0.225 A 
ATOM     39  C   UNK A   0       4.438  -4.277  23.937  0.00  0.00    +0.029 A 
ATOM     40  N   UNK A   0       6.008  -6.441  27.074  0.00  0.00    -0.179 NA
BRANCH  38  41
ATOM     41  O   UNK A   0       8.100  -5.760  26.600  0.00  0.00    -0.492 OA
ATOM     42  H   UNK A   0       8.386  -6.542  26.096  0.00  0.00    +0.294 HD
ENDBRANCH  38  41
ENDBRANCH  27  36
ENDBRANCH   1  27
TORSDOF 14
ENDMDL
MODEL 3
REMARK VINA RESULT:      -7.5      3.375      8.904
REMARK  Name = 
REMARK  14 active torsions:
REMARK  status: ('A' for Active; 'I' for Inactive)
REMARK    1  A    between atoms: C_4  and  O_5
REMARK    2  A    between atoms: C_8  and  C_9
REMARK    3  A    between atoms: C_9  and  C_10
REMARK    4  A    between atoms: C_10  and  C_12
REMARK    5  A    between atoms: C_10  and  C_15
REMARK    6  A    between atoms: C_12  and  O_13
REMARK    7  A    between atoms: C_18  and  C_21
REMARK    8  A    between atoms: N_23  and  CA_24
REMARK    9  A    between atoms: CA_24  and  CB_26
REMARK   10  A    between atoms: CA_24  and  C_31
REMARK   11  A    between atoms: CB_26  and  CG_27
REMARK   12  A    between atoms: CG_27  and  CD_28
REMARK   13  A    between atoms: CD_28  and  OE1_29
REMARK   14  A    between atoms: C_31  and  O_32
REMARK                            x       y       z     vdW  Elec       q    Type
REMARK                         _______ _______ _______ _____ _____    ______ ____
ROOT
ATOM      1  C   UNK A   0       8.607  -1.944  24.359  0.00  0.00    +0.132 C 
ENDROOT
BRANCH   1   2
ATOM      2  C   UNK A   0       8.996  -0.470  24.479  0.00  0.00    -0.033 A 
ATOM      3  C   UNK A   0      10.318  -0.107  24.781  0.00  0.00    +0.005 A 
ATOM      4  C   UNK A   0      10.764   1.204  24.603  0.00  0.00    +0.013 A 
ATOM      5  C   UNK A   0       9.892   2.183  24.121  0.00  0.00    +0.037 A 
ATOM      6  C   UNK A   0       8.545   1.849  23.915  0.00  0.00    +0.013 A 
ATOM      7  C   UNK A   0       8.097   0.534  24.093  0.00  0.00    +0.005 A 
BRANCH   5   8
ATOM      8  C   UNK A   0      10.367   3.519  23.644  0.00  0.00    +0.245 C 
ATOM      9  N   GLU A   1       9.664   4.639  24.057  0.00  0.00    -0.298 N 
ATOM     10  H   GLU A   1       8.706   4.543  24.372  0.00  0.00    +0.150 HD
ATOM     11  O   UNK A   0      11.407   3.615  23.006  0.00  0.00    -0.270 OA
BRANCH   9  12
ATOM     12  CA  GLU A   1      10.131   6.001  23.725  0.00  0.00    +0.182 C 
BRANCH  12  13
ATOM     13  C   GLU A   1      11.173   6.491  24.759  0.00  0.00    +0.325 C 
ATOM     14  OXT GLU A   1      10.889   6.992  25.838  0.00  0.00    -0.249 OA
BRANCH  13  15
ATOM     15  O   GLU A   1      12.459   6.268  24.398  0.00  0.00    -0.479 OA
ATOM     16  H   GLU A   1      12.967   7.100  24.462  0.00  0.00    +0.295 HD
ENDBRANCH  13  15
ENDBRANCH  12  13
BRANCH  12  17
ATOM     17  CB  GLU A   1       8.928   6.956  23.659  0.00  0.00    +0.045 C 
BRANCH  17  18
ATOM     18  CG  GLU A   1       7.579   6.237  23.574  0.00  0.00    +0.123 C 
BRANCH  18  19
ATOM     19  CD  GLU A   1       7.321   5.651  22.210  0.00  0.00    +0.305 C 
ATOM     20  OE2 GLU A   1       7.264   4.457  21.958  0.00  0.00    -0.251 OA
BRANCH  19  21
ATOM     21  OE1 GLU A   1       7.146   6.608  21.269  0.00  0.00    -0.481 OA
ATOM     22  HE1 GLU A   1       7.745   6.523  20.505  0.00  0.00    +0.295 HD
ENDBRANCH  19  21
ENDBRANCH  18  19
ENDBRANCH  17  18
ENDBRANCH  12  17
ENDBRANCH   9  12
ENDBRANCH   5   8
ENDBRANCH   1   2
BRANCH   1  23
ATOM     23  C   UNK A   0       9.741  -2.784  23.778  0.00  0.00    +0.313 C 
ATOM     24  O   UNK A   0      10.193  -3.800  24.290  0.00  0.00    -0.250 OA
BRANCH  23  25
ATOM     25  O   UNK A   0      10.174  -2.351  22.569  0.00  0.00    -0.480 OA
ATOM     26  H   UNK A   0       9.486  -2.330  21.878  0.00  0.00    +0.295 HD
ENDBRANCH  23  25
ENDBRANCH   1  23
BRANCH   1  27
ATOM     27  C   UNK A   0       7.338  -2.013  23.480  0.00  0.00    +0.054 C 
BRANCH  27  36
ATOM     28  N   UNK A   0       3.042  -8.097  25.782  0.00  0.00    -0.327 N 
ATOM     29  H   UNK A   0       2.164  -7.852  25.342  0.00  0.00    +0.145 HD
ATOM     30  H   UNK A   0       3.016  -8.325  26.764  0.00  0.00    +0.145 HD
ATOM     31  C   UNK A   0       3.967  -7.104  25.545  0.00  0.00    +0.216 A 
ATOM     32  N   UNK A   0       3.747  -6.303  24.497  0.00  0.00    -0.214 NA
ATOM     33  C   UNK A   0       4.626  -5.320  24.263  0.00  0.00    +0.080 A 
ATOM     34  C   UNK A   0       5.744  -5.109  25.068  0.00  0.00    +0.062 A 
ATOM     35  C   UNK A   0       6.653  -4.059  24.800  0.00  0.00    +0.019 A 
ATOM     36  C   UNK A   0       6.429  -3.189  23.730  0.00  0.00    -0.045 A 
ATOM     37  C   UNK A   0       5.306  -3.402  22.926  0.00  0.00    +0.006 A 
ATOM     38  C   UNK A   0       5.842  -6.001  26.125  0.00  0.00    +0.225 A 
ATOM     39  C   UNK A   0       4.429  -4.458  23.194  0.00  0.00    +0.029 A 
ATOM     40  N   UNK A   0       4.983  -6.988  26.400  0.00  0.00    -0.179 NA
BRANCH  38  41
ATOM     41  O   UNK A   0       6.863  -5.917  27.021  0.00  0.00    -0.492 OA
ATOM     42  H   UNK A   0       7.018  -4.955  27.017  0.00  0.00    +0.294 HD
ENDBRANCH  38  41
ENDBRANCH  27  36
ENDBRANCH   1  27
TORSDOF 14
ENDMDL
MODEL 4
REMARK VINA RESULT:      -7.4      3.330      7.676
REMARK  Name = 
REMARK  14 active torsions:
REMARK  status: ('A' for Active; 'I' for Inactive)
REMARK    1  A    between atoms: C_4  and  O_5
REMARK    2  A    between atoms: C_8  and  C_9
REMARK    3  A    between atoms: C_9  and  C_10
REMARK    4  A    between atoms: C_10  and  C_12
REMARK    5  A    between atoms: C_10  and  C_15
REMARK    6  A    between atoms: C_12  and  O_13
REMARK    7  A    between atoms: C_18  and  C_21
REMARK    8  A    between atoms: N_23  and  CA_24
REMARK    9  A    between atoms: CA_24  and  CB_26
REMARK   10  A    between atoms: CA_24  and  C_31
REMARK   11  A    between atoms: CB_26  and  CG_27
REMARK   12  A    between atoms: CG_27  and  CD_28
REMARK   13  A    between atoms: CD_28  and  OE1_29
REMARK   14  A    between atoms: C_31  and  O_32
REMARK                            x       y       z     vdW  Elec       q    Type
REMARK                         _______ _______ _______ _____ _____    ______ ____
ROOT
ATOM      1  C   UNK A   0       4.695  -4.898  24.432  0.00  0.00    +0.132 C 
ENDROOT
BRANCH   1   2
ATOM      2  C   UNK A   0       6.019  -4.390  23.860  0.00  0.00    -0.033 A 
ATOM      3  C   UNK A   0       6.036  -3.617  22.688  0.00  0.00    +0.005 A 
ATOM      4  C   UNK A   0       7.172  -2.899  22.314  0.00  0.00    +0.013 A 
ATOM      5  C   UNK A   0       8.322  -2.942  23.107  0.00  0.00    +0.037 A 
ATOM      6  C   UNK A   0       8.345  -3.793  24.223  0.00  0.00    +0.013 A 
ATOM      7  C   UNK A   0       7.204  -4.513  24.598  0.00  0.00    +0.005 A 
BRANCH   5   8
ATOM      8  C   UNK A   0       9.462  -1.990  22.924  0.00  0.00    +0.245 C 
ATOM      9  N   GLU A   1       9.180  -0.634  22.946  0.00  0.00    -0.298 N 
ATOM     10  H   GLU A   1       8.238  -0.314  22.756  0.00  0.00    +0.150 HD
ATOM     11  O   UNK A   0      10.613  -2.404  22.873  0.00  0.00    -0.270 OA
BRANCH   9  12
ATOM     12  CA  GLU A   1      10.259   0.374  22.886  0.00  0.00    +0.182 C 
BRANCH  12  13
ATOM     13  C   GLU A   1      10.545   0.956  24.291  0.00  0.00    +0.325 C 
ATOM     14  OXT GLU A   1      11.536   0.690  24.957  0.00  0.00    -0.249 OA
BRANCH  13  15
ATOM     15  O   GLU A   1       9.622   1.849  24.720  0.00  0.00    -0.479 OA
ATOM     16  H   GLU A   1       9.317   1.601  25.614  0.00  0.00    +0.295 HD
ENDBRANCH  13  15
ENDBRANCH  12  13
BRANCH  12  17
ATOM     17  CB  GLU A   1       9.872   1.484  21.897  0.00  0.00    +0.045 C 
BRANCH  17  18
ATOM     18  CG  GLU A   1       8.403   1.437  21.466  0.00  0.00    +0.123 C 
BRANCH  18  19
ATOM     19  CD  GLU A   1       7.605   2.594  22.006  0.00  0.00    +0.305 C 
ATOM     20  OE2 GLU A   1       6.387   2.620  22.107  0.00  0.00    -0.251 OA
BRANCH  19  21
ATOM     21  OE1 GLU A   1       8.394   3.626  22.385  0.00  0.00    -0.481 OA
ATOM     22  HE1 GLU A   1       8.405   3.781  23.347  0.00  0.00    +0.295 HD
ENDBRANCH  19  21
ENDBRANCH  18  19
ENDBRANCH  17  18
ENDBRANCH  12  17
ENDBRANCH   9  12
ENDBRANCH   5   8
ENDBRANCH   1   2
BRANCH   1  23
ATOM     23  C   UNK A   0       3.983  -5.840  23.465  0.00  0.00    +0.313 C 
ATOM     24  O   UNK A   0       3.045  -5.525  22.744  0.00  0.00    -0.250 OA
BRANCH  23  25
ATOM     25  O   UNK A   0       4.536  -7.075  23.404  0.00  0.00    -0.480 OA
ATOM     26  H   UNK A   0       3.991  -7.782  23.799  0.00  0.00    +0.295 HD
ENDBRANCH  23  25
ENDBRANCH   1  23
BRANCH   1  27
ATOM     27  C   UNK A   0       3.833  -3.658  24.761  0.00  0.00    +0.054 C 
BRANCH  27  36
ATOM     28  N   UNK A   0       7.198   2.171  28.694  0.00  0.00    -0.327 N 
ATOM     29  H   UNK A   0       6.608   2.175  29.516  0.00  0.00    +0.145 HD
ATOM     30  H   UNK A   0       7.339   3.052  28.224  0.00  0.00    +0.145 HD
ATOM     31  C   UNK A   0       6.743   1.221  27.806  0.00  0.00    +0.216 A 
ATOM     32  N   UNK A   0       5.985   0.237  28.301  0.00  0.00    -0.214 NA
ATOM     33  C   UNK A   0       5.517  -0.684  27.448  0.00  0.00    +0.080 A 
ATOM     34  C   UNK A   0       5.791  -0.647  26.082  0.00  0.00    +0.062 A 
ATOM     35  C   UNK A   0       5.279  -1.630  25.204  0.00  0.00    +0.019 A 
ATOM     36  C   UNK A   0       4.458  -2.651  25.692  0.00  0.00    -0.045 A 
ATOM     37  C   UNK A   0       4.184  -2.684  27.061  0.00  0.00    +0.006 A 
ATOM     38  C   UNK A   0       6.575   0.433  25.704  0.00  0.00    +0.225 A 
ATOM     39  C   UNK A   0       4.715  -1.715  27.918  0.00  0.00    +0.029 A 
ATOM     40  N   UNK A   0       7.053   1.378  26.519  0.00  0.00    -0.179 NA
BRANCH  38  41
ATOM     41  O   UNK A   0       6.913   0.631  24.400  0.00  0.00    -0.492 OA
ATOM     42  H   UNK A   0       7.683   1.218  24.509  0.00  0.00    +0.294 HD
ENDBRANCH  38  41
ENDBRANCH  27  36
ENDBRANCH   1  27
TORSDOF 14
ENDMDL
MODEL 5
REMARK VINA RESULT:      -7.4      2.385      3.221
REMARK  Name = 
REMARK  14 active torsions:
REMARK  status: ('A' for Active; 'I' for Inactive)
REMARK    1  A    between atoms: C_4  and  O_5
REMARK    2  A    between atoms: C_8  and  C_9
REMARK    3  A    between atoms: C_9  and  C_10
REMARK    4  A    between atoms: C_10  and  C_12
REMARK    5  A    between atoms: C_10  and  C_15
REMARK    6  A    between atoms: C_12  and  O_13
REMARK    7  A    between atoms: C_18  and  C_21
REMARK    8  A    between atoms: N_23  and  CA_24
REMARK    9  A    between atoms: CA_24  and  CB_26
REMARK   10  A    between atoms: CA_24  and  C_31
REMARK   11  A    between atoms: CB_26  and  CG_27
REMARK   12  A    between atoms: CG_27  and  CD_28
REMARK   13  A    between atoms: CD_28  and  OE1_29
REMARK   14  A    between atoms: C_31  and  O_32
REMARK                            x       y       z     vdW  Elec       q    Type
REMARK                         _______ _______ _______ _____ _____    ______ ____
ROOT
ATOM      1  C   UNK A   0       9.425   4.397  23.528  0.00  0.00    +0.132 C 
ENDROOT
BRANCH   1   2
ATOM      2  C   UNK A   0       9.845   2.958  23.228  0.00  0.00    -0.033 A 
ATOM      3  C   UNK A   0      10.747   2.291  24.072  0.00  0.00    +0.005 A 
ATOM      4  C   UNK A   0      10.914   0.907  24.000  0.00  0.00    +0.013 A 
ATOM      5  C   UNK A   0      10.181   0.159  23.074  0.00  0.00    +0.037 A 
ATOM      6  C   UNK A   0       9.356   0.831  22.161  0.00  0.00    +0.013 A 
ATOM      7  C   UNK A   0       9.188   2.220  22.234  0.00  0.00    +0.005 A 
BRANCH   5   8
ATOM      8  C   UNK A   0      10.099  -1.334  23.132  0.00  0.00    +0.245 C 
ATOM      9  N   GLU A   1       9.257  -1.898  24.077  0.00  0.00    -0.298 N 
ATOM     10  H   GLU A   1       8.983  -1.359  24.890  0.00  0.00    +0.150 HD
ATOM     11  O   UNK A   0      10.671  -2.018  22.293  0.00  0.00    -0.270 OA
BRANCH   9  12
ATOM     12  CA  GLU A   1       9.031  -3.357  24.126  0.00  0.00    +0.182 C 
BRANCH  12  13
ATOM     13  C   GLU A   1       7.690  -3.728  23.449  0.00  0.00    +0.325 C 
ATOM     14  OXT GLU A   1       7.583  -4.514  22.517  0.00  0.00    -0.249 OA
BRANCH  13  15
ATOM     15  O   GLU A   1       6.604  -3.147  24.013  0.00  0.00    -0.479 OA
ATOM     16  H   GLU A   1       6.034  -3.834  24.409  0.00  0.00    +0.295 HD
ENDBRANCH  13  15
ENDBRANCH  12  13
BRANCH  12  17
ATOM     17  CB  GLU A   1       9.062  -3.833  25.587  0.00  0.00    +0.045 C 
BRANCH  17  18
ATOM     18  CG  GLU A   1       8.506  -5.246  25.783  0.00  0.00    +0.123 C 
BRANCH  18  19
ATOM     19  CD  GLU A   1       7.341  -5.282  26.738  0.00  0.00    +0.305 C 
ATOM     20  OE2 GLU A   1       6.274  -4.712  26.565  0.00  0.00    -0.251 OA
BRANCH  19  21
ATOM     21  OE1 GLU A   1       7.602  -6.035  27.832  0.00  0.00    -0.481 OA
ATOM     22  HE1 GLU A   1       8.279  -6.720  27.687  0.00  0.00    +0.295 HD
ENDBRANCH  19  21
ENDBRANCH  18  19
ENDBRANCH  17  18
ENDBRANCH  12  17
ENDBRANCH   9  12
ENDBRANCH   5   8
ENDBRANCH   1   2
BRANCH   1  23
ATOM     23  C   UNK A   0      10.631   5.312  23.720  0.00  0.00    +0.313 C 
ATOM     24  O   UNK A   0      10.803   6.052  24.680  0.00  0.00    -0.250 OA
BRANCH  23  25
ATOM     25  O   UNK A   0      11.572   5.181  22.754  0.00  0.00    -0.480 OA
ATOM     26  H   UNK A   0      11.266   4.711  21.954  0.00  0.00    +0.295 HD
ENDBRANCH  23  25
ENDBRANCH   1  23
BRANCH   1  27
ATOM     27  C   UNK A   0       8.530   4.360  24.788  0.00  0.00    +0.054 C 
BRANCH  27  36
ATOM     28  N   UNK A   0       4.441  -2.115  26.249  0.00  0.00    -0.327 N 
ATOM     29  H   UNK A   0       3.506  -1.746  26.133  0.00  0.00    +0.145 HD
ATOM     30  H   UNK A   0       4.633  -2.625  27.098  0.00  0.00    +0.145 HD
ATOM     31  C   UNK A   0       5.358  -1.101  26.082  0.00  0.00    +0.216 A 
ATOM     32  N   UNK A   0       4.958  -0.023  25.399  0.00  0.00    -0.214 NA
ATOM     33  C   UNK A   0       5.832   0.981  25.244  0.00  0.00    +0.080 A 
ATOM     34  C   UNK A   0       7.123   0.938  25.768  0.00  0.00    +0.062 A 
ATOM     35  C   UNK A   0       8.021   2.016  25.594  0.00  0.00    +0.019 A 
ATOM     36  C   UNK A   0       7.617   3.166  24.910  0.00  0.00    -0.045 A 
ATOM     37  C   UNK A   0       6.322   3.207  24.388  0.00  0.00    +0.006 A 
ATOM     38  C   UNK A   0       7.399  -0.229  26.464  0.00  0.00    +0.225 A 
ATOM     39  C   UNK A   0       5.454   2.124  24.553  0.00  0.00    +0.029 A 
ATOM     40  N   UNK A   0       6.556  -1.249  26.651  0.00  0.00    -0.179 NA
BRANCH  38  41
ATOM     41  O   UNK A   0       8.608  -0.420  27.061  0.00  0.00    -0.492 OA
ATOM     42  H   UNK A   0       9.165  -0.571  26.276  0.00  0.00    +0.294 HD
ENDBRANCH  38  41
ENDBRANCH  27  36
ENDBRANCH   1  27
TORSDOF 14
ENDMDL
MODEL 6
REMARK VINA RESULT:      -7.4      3.811      6.415
REMARK  Name = 
REMARK  14 active torsions:
REMARK  status: ('A' for Active; 'I' for Inactive)
REMARK    1  A    between atoms: C_4  and  O_5
REMARK    2  A    between atoms: C_8  and  C_9
REMARK    3  A    between atoms: C_9  and  C_10
REMARK    4  A    between atoms: C_10  and  C_12
REMARK    5  A    between atoms: C_10  and  C_15
REMARK    6  A    between atoms: C_12  and  O_13
REMARK    7  A    between atoms: C_18  and  C_21
REMARK    8  A    between atoms: N_23  and  CA_24
REMARK    9  A    between atoms: CA_24  and  CB_26
REMARK   10  A    between atoms: CA_24  and  C_31
REMARK   11  A    between atoms: CB_26  and  CG_27
REMARK   12  A    between atoms: CG_27  and  CD_28
REMARK   13  A    between atoms: CD_28  and  OE1_29
REMARK   14  A    between atoms: C_31  and  O_32
REMARK                            x       y       z     vdW  Elec       q    Type
REMARK                         _______ _______ _______ _____ _____    ______ ____
ROOT
ATOM      1  C   UNK A   0       9.921   1.441  24.503  0.00  0.00    +0.132 C 
ENDROOT
BRANCH   1   2
ATOM      2  C   UNK A   0       8.811   0.727  25.274  0.00  0.00    -0.033 A 
ATOM      3  C   UNK A   0       7.511   0.658  24.748  0.00  0.00    +0.005 A 
ATOM      4  C   UNK A   0       6.568  -0.228  25.270  0.00  0.00    +0.013 A 
ATOM      5  C   UNK A   0       6.905  -1.064  26.338  0.00  0.00    +0.037 A 
ATOM      6  C   UNK A   0       8.168  -0.927  26.934  0.00  0.00    +0.013 A 
ATOM      7  C   UNK A   0       9.115  -0.038  26.409  0.00  0.00    +0.005 A 
BRANCH   5   8
ATOM      8  C   UNK A   0       6.051  -2.219  26.757  0.00  0.00    +0.245 C 
ATOM      9  N   GLU A   1       6.548  -3.496  26.554  0.00  0.00    -0.298 N 
ATOM     10  H   GLU A   1       7.276  -3.648  25.867  0.00  0.00    +0.150 HD
ATOM     11  O   UNK A   0       5.003  -2.027  27.360  0.00  0.00    -0.270 OA
BRANCH   9  12
ATOM     12  CA  GLU A   1       5.820  -4.687  27.041  0.00  0.00    +0.182 C 
BRANCH  12  13
ATOM     13  C   GLU A   1       6.761  -5.614  27.846  0.00  0.00    +0.325 C 
ATOM     14  OXT GLU A   1       6.544  -5.990  28.990  0.00  0.00    -0.249 OA
BRANCH  13  15
ATOM     15  O   GLU A   1       7.846  -6.038  27.156  0.00  0.00    -0.479 OA
ATOM     16  H   GLU A   1       8.297  -6.745  27.656  0.00  0.00    +0.295 HD
ENDBRANCH  13  15
ENDBRANCH  12  13
BRANCH  12  17
ATOM     17  CB  GLU A   1       5.197  -5.432  25.850  0.00  0.00    +0.045 C 
BRANCH  17  18
ATOM     18  CG  GLU A   1       3.905  -4.792  25.335  0.00  0.00    +0.123 C 
BRANCH  18  19
ATOM     19  CD  GLU A   1       4.034  -4.285  23.922  0.00  0.00    +0.305 C 
ATOM     20  OE2 GLU A   1       3.539  -4.814  22.938  0.00  0.00    -0.251 OA
BRANCH  19  21
ATOM     21  OE1 GLU A   1       4.768  -3.150  23.853  0.00  0.00    -0.481 OA
ATOM     22  HE1 GLU A   1       5.200  -3.012  22.990  0.00  0.00    +0.295 HD
ENDBRANCH  19  21
ENDBRANCH  18  19
ENDBRANCH  17  18
ENDBRANCH  12  17
ENDBRANCH   9  12
ENDBRANCH   5   8
ENDBRANCH   1   2
BRANCH   1  23
ATOM     23  C   UNK A   0       9.371   2.565  23.629  0.00  0.00    +0.313 C 
ATOM     24  O   UNK A   0       8.680   3.492  24.032  0.00  0.00    -0.250 OA
BRANCH  23  25
ATOM     25  O   UNK A   0       9.785   2.503  22.340  0.00  0.00    -0.480 OA
ATOM     26  H   UNK A   0      10.698   2.817  22.194  0.00  0.00    +0.295 HD
ENDBRANCH  23  25
ENDBRANCH   1  23
BRANCH   1  27
ATOM     27  C   UNK A   0      10.656   0.373  23.662  0.00  0.00    +0.054 C 
BRANCH  27  36
ATOM     28  N   UNK A   0       6.503  -6.134  22.567  0.00  0.00    -0.327 N 
ATOM     29  H   UNK A   0       5.760  -5.758  21.992  0.00  0.00    +0.145 HD
ATOM     30  H   UNK A   0       6.232  -6.675  23.374  0.00  0.00    +0.145 HD
ATOM     31  C   UNK A   0       7.357  -5.118  22.936  0.00  0.00    +0.216 A 
ATOM     32  N   UNK A   0       7.356  -4.016  22.179  0.00  0.00    -0.214 NA
ATOM     33  C   UNK A   0       8.167  -3.010  22.535  0.00  0.00    +0.080 A 
ATOM     34  C   UNK A   0       8.996  -3.077  23.653  0.00  0.00    +0.062 A 
ATOM     35  C   UNK A   0       9.837  -1.996  24.008  0.00  0.00    +0.019 A 
ATOM     36  C   UNK A   0       9.831  -0.821  23.252  0.00  0.00    -0.045 A 
ATOM     37  C   UNK A   0       8.998  -0.757  22.132  0.00  0.00    +0.006 A 
ATOM     38  C   UNK A   0       8.886  -4.268  24.354  0.00  0.00    +0.225 A 
ATOM     39  C   UNK A   0       8.187  -1.842  21.785  0.00  0.00    +0.029 A 
ATOM     40  N   UNK A   0       8.085  -5.291  24.040  0.00  0.00    -0.179 NA
BRANCH  38  41
ATOM     41  O   UNK A   0       9.609  -4.484  25.487  0.00  0.00    -0.492 OA
ATOM     42  H   UNK A   0       9.349  -3.705  26.009  0.00  0.00    +0.294 HD
ENDBRANCH  38  41
ENDBRANCH  27  36
ENDBRANCH   1  27
TORSDOF 14
ENDMDL
MODEL 7
REMARK VINA RESULT:      -7.2      2.092      2.861
REMARK  Name = 
REMARK  14 active torsions:
REMARK  status: ('A' for Active; 'I' for Inactive)
REMARK    1  A    between atoms: C_4  and  O_5
REMARK    2  A    between atoms: C_8  and  C_9
REMARK    3  A    between atoms: C_9  and  C_10
REMARK    4  A    between atoms: C_10  and  C_12
REMARK    5  A    between atoms: C_10  and  C_15
REMARK    6  A    between atoms: C_12  and  O_13
REMARK    7  A    between atoms: C_18  and  C_21
REMARK    8  A    between atoms: N_23  and  CA_24
REMARK    9  A    between atoms: CA_24  and  CB_26
REMARK   10  A    between atoms: CA_24  and  C_31
REMARK   11  A    between atoms: CB_26  and  CG_27
REMARK   12  A    between atoms: CG_27  and  CD_28
REMARK   13  A    between atoms: CD_28  and  OE1_29
REMARK   14  A    between atoms: C_31  and  O_32
REMARK                            x       y       z     vdW  Elec       q    Type
REMARK                         _______ _______ _______ _____ _____    ______ ____
ROOT
ATOM      1  C   UNK A   0       9.961   1.906  22.158  0.00  0.00    +0.132 C 
ENDROOT
BRANCH   1   2
ATOM      2  C   UNK A   0      10.015   0.442  22.595  0.00  0.00    -0.033 A 
ATOM      3  C   UNK A   0      10.181   0.111  23.949  0.00  0.00    +0.005 A 
ATOM      4  C   UNK A   0       9.936  -1.184  24.409  0.00  0.00    +0.013 A 
ATOM      5  C   UNK A   0       9.523  -2.179  23.520  0.00  0.00    +0.037 A 
ATOM      6  C   UNK A   0       9.455  -1.879  22.151  0.00  0.00    +0.013 A 
ATOM      7  C   UNK A   0       9.700  -0.580  21.689  0.00  0.00    +0.005 A 
BRANCH   5   8
ATOM      8  C   UNK A   0       8.977  -3.494  23.980  0.00  0.00    +0.245 C 
ATOM      9  N   GLU A   1       7.638  -3.757  23.741  0.00  0.00    -0.298 N 
ATOM     10  H   GLU A   1       6.998  -2.989  23.578  0.00  0.00    +0.150 HD
ATOM     11  O   UNK A   0       9.723  -4.345  24.448  0.00  0.00    -0.270 OA
BRANCH   9  12
ATOM     12  CA  GLU A   1       7.047  -5.073  24.061  0.00  0.00    +0.182 C 
BRANCH  12  13
ATOM     13  C   GLU A   1       6.476  -5.741  22.788  0.00  0.00    +0.325 C 
ATOM     14  OXT GLU A   1       6.912  -5.560  21.659  0.00  0.00    -0.249 OA
BRANCH  13  15
ATOM     15  O   GLU A   1       5.464  -6.611  23.024  0.00  0.00    -0.479 OA
ATOM     16  H   GLU A   1       5.069  -6.892  22.176  0.00  0.00    +0.295 HD
ENDBRANCH  13  15
ENDBRANCH  12  13
BRANCH  12  17
ATOM     17  CB  GLU A   1       5.958  -4.901  25.131  0.00  0.00    +0.045 C 
BRANCH  17  18
ATOM     18  CG  GLU A   1       6.480  -4.324  26.450  0.00  0.00    +0.123 C 
BRANCH  18  19
ATOM     19  CD  GLU A   1       7.331  -5.305  27.213  0.00  0.00    +0.305 C 
ATOM     20  OE2 GLU A   1       6.904  -6.240  27.875  0.00  0.00    -0.251 OA
BRANCH  19  21
ATOM     21  OE1 GLU A   1       8.653  -5.043  27.084  0.00  0.00    -0.481 OA
ATOM     22  HE1 GLU A   1       8.846  -4.156  26.729  0.00  0.00    +0.295 HD
ENDBRANCH  19  21
ENDBRANCH  18  19
ENDBRANCH  17  18
ENDBRANCH  12  17
ENDBRANCH   9  12
ENDBRANCH   5   8
ENDBRANCH   1   2
BRANCH   1  23
ATOM     23  C   UNK A   0      10.307   2.853  23.304  0.00  0.00    +0.313 C 
ATOM     24  O   UNK A   0       9.831   2.793  24.430  0.00  0.00    -0.250 OA
BRANCH  23  25
ATOM     25  O   UNK A   0      11.274   3.750  22.995  0.00  0.00    -0.480 OA
ATOM     26  H   UNK A   0      11.264   4.050  22.066  0.00  0.00    +0.295 HD
ENDBRANCH  23  25
ENDBRANCH   1  23
BRANCH   1  27
ATOM     27  C   UNK A   0       8.539   2.169  21.611  0.00  0.00    +0.054 C 
BRANCH  27  36
ATOM     28  N   UNK A   0       3.218   1.405  27.257  0.00  0.00    -0.327 N 
ATOM     29  H   UNK A   0       3.214   2.355  27.606  0.00  0.00    +0.145 HD
ATOM     30  H   UNK A   0       3.334   0.667  27.933  0.00  0.00    +0.145 HD
ATOM     31  C   UNK A   0       4.154   1.289  26.253  0.00  0.00    +0.216 A 
ATOM     32  N   UNK A   0       4.527   2.414  25.634  0.00  0.00    -0.214 NA
ATOM     33  C   UNK A   0       5.452   2.322  24.669  0.00  0.00    +0.080 A 
ATOM     34  C   UNK A   0       6.028   1.108  24.298  0.00  0.00    +0.062 A 
ATOM     35  C   UNK A   0       7.007   1.042  23.279  0.00  0.00    +0.019 A 
ATOM     36  C   UNK A   0       7.437   2.207  22.639  0.00  0.00    -0.045 A 
ATOM     37  C   UNK A   0       6.858   3.422  23.013  0.00  0.00    +0.006 A 
ATOM     38  C   UNK A   0       5.562   0.027  25.030  0.00  0.00    +0.225 A 
ATOM     39  C   UNK A   0       5.878   3.466  24.009  0.00  0.00    +0.029 A 
ATOM     40  N   UNK A   0       4.650   0.076  26.006  0.00  0.00    -0.179 NA
BRANCH  38  41
ATOM     41  O   UNK A   0       6.042  -1.228  24.810  0.00  0.00    -0.492 OA
ATOM     42  H   UNK A   0       6.256  -1.493  25.723  0.00  0.00    +0.294 HD
ENDBRANCH  38  41
ENDBRANCH  27  36
ENDBRANCH   1  27
TORSDOF 14
ENDMDL
MODEL 8
REMARK VINA RESULT:      -7.0      3.375      8.734
REMARK  Name = 
REMARK  14 active torsions:
REMARK  status: ('A' for Active; 'I' for Inactive)
REMARK    1  A    between atoms: C_4  and  O_5
REMARK    2  A    between atoms: C_8  and  C_9
REMARK    3  A    between atoms: C_9  and  C_10
REMARK    4  A    between atoms: C_10  and  C_12
REMARK    5  A    between atoms: C_10  and  C_15
REMARK    6  A    between atoms: C_12  and  O_13
REMARK    7  A    between atoms: C_18  and  C_21
REMARK    8  A    between atoms: N_23  and  CA_24
REMARK    9  A    between atoms: CA_24  and  CB_26
REMARK   10  A    between atoms: CA_24  and  C_31
REMARK   11  A    between atoms: CB_26  and  CG_27
REMARK   12  A    between atoms: CG_27  and  CD_28
REMARK   13  A    between atoms: CD_28  and  OE1_29
REMARK   14  A    between atoms: C_31  and  O_32
REMARK                            x       y       z     vdW  Elec       q    Type
REMARK                         _______ _______ _______ _____ _____    ______ ____
ROOT
ATOM      1  C   UNK A   0       9.038  -1.978  23.530  0.00  0.00    +0.132 C 
ENDROOT
BRANCH   1   2
ATOM      2  C   UNK A   0       8.799  -0.619  24.189  0.00  0.00    -0.033 A 
ATOM      3  C   UNK A   0       9.881   0.150  24.643  0.00  0.00    +0.005 A 
ATOM      4  C   UNK A   0       9.722   1.499  24.966  0.00  0.00    +0.013 A 
ATOM      5  C   UNK A   0       8.470   2.107  24.844  0.00  0.00    +0.037 A 
ATOM      6  C   UNK A   0       7.365   1.318  24.490  0.00  0.00    +0.013 A 
ATOM      7  C   UNK A   0       7.525  -0.035  24.165  0.00  0.00    +0.005 A 
BRANCH   5   8
ATOM      8  C   UNK A   0       8.288   3.591  24.899  0.00  0.00    +0.245 C 
ATOM      9  N   GLU A   1       8.467   4.307  23.726  0.00  0.00    -0.298 N 
ATOM     10  H   GLU A   1       9.012   3.906  22.973  0.00  0.00    +0.150 HD
ATOM     11  O   UNK A   0       7.883   4.128  25.922  0.00  0.00    -0.270 OA
BRANCH   9  12
ATOM     12  CA  GLU A   1       8.196   5.758  23.667  0.00  0.00    +0.182 C 
BRANCH  12  13
ATOM     13  C   GLU A   1       7.122   6.073  22.599  0.00  0.00    +0.325 C 
ATOM     14  OXT GLU A   1       5.931   6.217  22.842  0.00  0.00    -0.249 OA
BRANCH  13  15
ATOM     15  O   GLU A   1       7.615   6.238  21.348  0.00  0.00    -0.479 OA
ATOM     16  H   GLU A   1       8.098   5.433  21.078  0.00  0.00    +0.295 HD
ENDBRANCH  13  15
ENDBRANCH  12  13
BRANCH  12  17
ATOM     17  CB  GLU A   1       9.503   6.513  23.376  0.00  0.00    +0.045 C 
BRANCH  17  18
ATOM     18  CG  GLU A   1      10.583   6.303  24.440  0.00  0.00    +0.123 C 
BRANCH  18  19
ATOM     19  CD  GLU A   1      11.752   5.504  23.927  0.00  0.00    +0.305 C 
ATOM     20  OE2 GLU A   1      11.669   4.437  23.337  0.00  0.00    -0.251 OA
BRANCH  19  21
ATOM     21  OE1 GLU A   1      12.936   6.106  24.188  0.00  0.00    -0.481 OA
ATOM     22  HE1 GLU A   1      13.712   5.545  24.008  0.00  0.00    +0.295 HD
ENDBRANCH  19  21
ENDBRANCH  18  19
ENDBRANCH  17  18
ENDBRANCH  12  17
ENDBRANCH   9  12
ENDBRANCH   5   8
ENDBRANCH   1   2
BRANCH   1  23
ATOM     23  C   UNK A   0       9.508  -1.834  22.085  0.00  0.00    +0.313 C 
ATOM     24  O   UNK A   0       8.769  -1.701  21.119  0.00  0.00    -0.250 OA
BRANCH  23  25
ATOM     25  O   UNK A   0      10.856  -1.783  21.955  0.00  0.00    -0.480 OA
ATOM     26  H   UNK A   0      11.329  -2.538  22.354  0.00  0.00    +0.295 HD
ENDBRANCH  23  25
ENDBRANCH   1  23
BRANCH   1  27
ATOM     27  C   UNK A   0       7.716  -2.772  23.623  0.00  0.00    +0.054 C 
BRANCH  27  36
ATOM     28  N   UNK A   0       5.676  -7.063  29.804  0.00  0.00    -0.327 N 
ATOM     29  H   UNK A   0       6.509  -7.632  29.889  0.00  0.00    +0.145 HD
ATOM     30  H   UNK A   0       4.790  -7.544  29.787  0.00  0.00    +0.145 HD
ATOM     31  C   UNK A   0       5.795  -6.236  28.709  0.00  0.00    +0.216 A 
ATOM     32  N   UNK A   0       7.031  -5.989  28.263  0.00  0.00    -0.214 NA
ATOM     33  C   UNK A   0       7.164  -5.202  27.187  0.00  0.00    +0.080 A 
ATOM     34  C   UNK A   0       6.069  -4.645  26.527  0.00  0.00    +0.062 A 
ATOM     35  C   UNK A   0       6.239  -3.823  25.389  0.00  0.00    +0.019 A 
ATOM     36  C   UNK A   0       7.519  -3.575  24.885  0.00  0.00    -0.045 A 
ATOM     37  C   UNK A   0       8.614  -4.136  25.547  0.00  0.00    +0.006 A 
ATOM     38  C   UNK A   0       4.850  -4.995  27.086  0.00  0.00    +0.225 A 
ATOM     39  C   UNK A   0       8.428  -4.930  26.682  0.00  0.00    +0.029 A 
ATOM     40  N   UNK A   0       4.672  -5.783  28.151  0.00  0.00    -0.179 NA
BRANCH  38  41
ATOM     41  O   UNK A   0       3.679  -4.555  26.546  0.00  0.00    -0.492 OA
ATOM     42  H   UNK A   0       3.525  -3.764  27.093  0.00  0.00    +0.294 HD
ENDBRANCH  38  41
ENDBRANCH  27  36
ENDBRANCH   1  27
TORSDOF 14
ENDMDL
MODEL 9
REMARK VINA RESULT:      -7.0      3.518      8.913
REMARK  Name = 
REMARK  14 active torsions:
REMARK  status: ('A' for Active; 'I' for Inactive)
REMARK    1  A    between atoms: C_4  and  O_5
REMARK    2  A    between atoms: C_8  and  C_9
REMARK    3  A    between atoms: C_9  and  C_10
REMARK    4  A    between atoms: C_10  and  C_12
REMARK    5  A    between atoms: C_10  and  C_15
REMARK    6  A    between atoms: C_12  and  O_13
REMARK    7  A    between atoms: C_18  and  C_21
REMARK    8  A    between atoms: N_23  and  CA_24
REMARK    9  A    between atoms: CA_24  and  CB_26
REMARK   10  A    between atoms: CA_24  and  C_31
REMARK   11  A    between atoms: CB_26  and  CG_27
REMARK   12  A    between atoms: CG_27  and  CD_28
REMARK   13  A    between atoms: CD_28  and  OE1_29
REMARK   14  A    between atoms: C_31  and  O_32
REMARK                            x       y       z     vdW  Elec       q    Type
REMARK                         _______ _______ _______ _____ _____    ______ ____
ROOT
ATOM      1  C   UNK A   0       8.425  -3.811  25.156  0.00  0.00    +0.132 C 
ENDROOT
BRANCH   1   2
ATOM      2  C   UNK A   0       9.077  -2.457  24.874  0.00  0.00    -0.033 A 
ATOM      3  C   UNK A   0       9.769  -2.238  23.672  0.00  0.00    +0.005 A 
ATOM      4  C   UNK A   0      10.108  -0.949  23.260  0.00  0.00    +0.013 A 
ATOM      5  C   UNK A   0       9.764   0.153  24.048  0.00  0.00    +0.037 A 
ATOM      6  C   UNK A   0       9.165  -0.067  25.297  0.00  0.00    +0.013 A 
ATOM      7  C   UNK A   0       8.824  -1.361  25.711  0.00  0.00    +0.005 A 
BRANCH   5   8
ATOM      8  C   UNK A   0       9.842   1.559  23.542  0.00  0.00    +0.245 C 
ATOM      9  N   GLU A   1       9.676   2.585  24.458  0.00  0.00    -0.298 N 
ATOM     10  H   GLU A   1       9.199   2.404  25.334  0.00  0.00    +0.150 HD
ATOM     11  O   UNK A   0      10.155   1.783  22.380  0.00  0.00    -0.270 OA
BRANCH   9  12
ATOM     12  CA  GLU A   1       9.849   3.999  24.064  0.00  0.00    +0.182 C 
BRANCH  12  13
ATOM     13  C   GLU A   1       8.592   4.521  23.328  0.00  0.00    +0.325 C 
ATOM     14  OXT GLU A   1       7.489   3.997  23.394  0.00  0.00    -0.249 OA
BRANCH  13  15
ATOM     15  O   GLU A   1       8.793   5.664  22.631  0.00  0.00    -0.479 OA
ATOM     16  H   GLU A   1       9.054   6.380  23.243  0.00  0.00    +0.295 HD
ENDBRANCH  13  15
ENDBRANCH  12  13
BRANCH  12  17
ATOM     17  CB  GLU A   1      11.102   4.138  23.185  0.00  0.00    +0.045 C 
BRANCH  17  18
ATOM     18  CG  GLU A   1      11.978   5.338  23.552  0.00  0.00    +0.123 C 
BRANCH  18  19
ATOM     19  CD  GLU A   1      13.221   5.428  22.705  0.00  0.00    +0.305 C 
ATOM     20  OE2 GLU A   1      13.265   5.872  21.568  0.00  0.00    -0.251 OA
BRANCH  19  21
ATOM     21  OE1 GLU A   1      14.314   4.959  23.352  0.00  0.00    -0.481 OA
ATOM     22  HE1 GLU A   1      14.183   4.086  23.764  0.00  0.00    +0.295 HD
ENDBRANCH  19  21
ENDBRANCH  18  19
ENDBRANCH  17  18
ENDBRANCH  12  17
ENDBRANCH   9  12
ENDBRANCH   5   8
ENDBRANCH   1   2
BRANCH   1  23
ATOM     23  C   UNK A   0       9.429  -4.821  25.704  0.00  0.00    +0.313 C 
ATOM     24  O   UNK A   0      10.215  -5.468  25.023  0.00  0.00    -0.250 OA
BRANCH  23  25
ATOM     25  O   UNK A   0       9.442  -4.895  27.057  0.00  0.00    -0.480 OA
ATOM     26  H   UNK A   0      10.299  -4.668  27.465  0.00  0.00    +0.295 HD
ENDBRANCH  23  25
ENDBRANCH   1  23
BRANCH   1  27
ATOM     27  C   UNK A   0       7.790  -4.298  23.833  0.00  0.00    +0.054 C 
BRANCH  27  36
ATOM     28  N   UNK A   0       0.779  -7.304  25.442  0.00  0.00    -0.327 N 
ATOM     29  H   UNK A   0       0.204  -6.680  24.889  0.00  0.00    +0.145 HD
ATOM     30  H   UNK A   0       0.520  -7.434  26.407  0.00  0.00    +0.145 HD
ATOM     31  C   UNK A   0       2.098  -6.917  25.347  0.00  0.00    +0.216 A 
ATOM     32  N   UNK A   0       2.441  -6.172  24.290  0.00  0.00    -0.214 NA
ATOM     33  C   UNK A   0       3.715  -5.771  24.192  0.00  0.00    +0.080 A 
ATOM     34  C   UNK A   0       4.678  -6.099  25.145  0.00  0.00    +0.062 A 
ATOM     35  C   UNK A   0       6.016  -5.656  25.019  0.00  0.00    +0.019 A 
ATOM     36  C   UNK A   0       6.392  -4.851  23.940  0.00  0.00    -0.045 A 
ATOM     37  C   UNK A   0       5.424  -4.522  22.988  0.00  0.00    +0.006 A 
ATOM     38  C   UNK A   0       4.184  -6.861  26.193  0.00  0.00    +0.225 A 
ATOM     39  C   UNK A   0       4.111  -4.985  23.119  0.00  0.00    +0.029 A 
ATOM     40  N   UNK A   0       2.921  -7.274  26.334  0.00  0.00    -0.179 NA
BRANCH  38  41
ATOM     41  O   UNK A   0       4.989  -7.246  27.221  0.00  0.00    -0.492 OA
ATOM     42  H   UNK A   0       4.325  -7.375  27.922  0.00  0.00    +0.294 HD
ENDBRANCH  38  41
ENDBRANCH  27  36
ENDBRANCH   1  27
TORSDOF 14
ENDMDL
