MODEL 1
REMARK VINA RESULT:      -6.1      0.000      0.000
REMARK  Name = 
REMARK  7 active torsions:
REMARK  status: ('A' for Active; 'I' for Inactive)
REMARK    1  A    between atoms: C_1  and  C_2
REMARK    2  A    between atoms: C_2  and  C_3
REMARK    3  A    between atoms: C_3  and  N_4
REMARK    4  A    between atoms: C_9  and  C_11
REMARK    5  A    between atoms: N_13  and  C_14
REMARK    6  A    between atoms: C_15  and  C_16
REMARK    7  A    between atoms: C_20  and  C_21
REMARK                            x       y       z     vdW  Elec       q    Type
REMARK                         _______ _______ _______ _____ _____    ______ ____
ROOT
ATOM      1  C   UNL     1       8.794  -2.364  22.934  0.00  0.00    +0.234 C 
ATOM      2  N   UNL     1       8.288  -1.091  23.121  0.00  0.00    -0.284 N 
ATOM      3  H   UNL     1       7.323  -1.058  23.421  0.00  0.00    +0.155 HD
ATOM      4  O   UNL     1       9.990  -2.650  23.005  0.00  0.00    -0.274 OA
ENDROOT
BRANCH   2   5
ATOM      5  C   UNL     1       9.079   0.073  23.242  0.00  0.00    +0.039 A 
ATOM      6  C   UNL     1       9.349   0.811  22.067  0.00  0.00    -0.029 A 
ATOM      7  C   UNL     1       8.715   0.461  20.746  0.00  0.00    +0.045 C 
ATOM      8  C   UNL     1      10.150   1.962  22.135  0.00  0.00    +0.005 A 
ATOM      9  C   UNL     1      10.680   2.384  23.351  0.00  0.00    +0.001 A 
ATOM     10  C   UNL     1      10.420   1.657  24.509  0.00  0.00    +0.005 A 
ATOM     11  C   UNL     1       9.637   0.489  24.474  0.00  0.00    -0.029 A 
ATOM     12  C   UNL     1       9.495  -0.246  25.781  0.00  0.00    +0.045 C 
ENDBRANCH   2   5
BRANCH   1  14
ATOM     13  N   UNL     1       7.751  -4.523  23.815  0.00  0.00    -0.292 NA
ATOM     14  C   UNL     1       7.717  -3.458  22.760  0.00  0.00    +0.143 C 
ATOM     15  C   UNL     1       6.336  -2.805  22.591  0.00  0.00    +0.028 C 
ATOM     16  C   UNL     1       5.248  -3.838  22.336  0.00  0.00    +0.003 C 
ATOM     17  C   UNL     1       5.308  -4.973  23.350  0.00  0.00    +0.015 C 
ATOM     18  C   UNL     1       6.729  -5.536  23.465  0.00  0.00    +0.085 C 
BRANCH  13  19
ATOM     19  C   UNL     1       7.566  -3.994  25.188  0.00  0.00    +0.085 C 
BRANCH  19  21
ATOM     20  C   UNL     1       9.828  -5.073  25.533  0.00  0.00    +0.005 C 
ATOM     21  C   UNL     1       8.553  -4.586  26.208  0.00  0.00    +0.012 C 
ENDBRANCH  19  21
ENDBRANCH  13  19
ENDBRANCH   1  14
TORSDOF 4
ENDMDL
MODEL 2
REMARK VINA RESULT:      -6.0      0.272      1.974
REMARK  Name = 
REMARK  7 active torsions:
REMARK  status: ('A' for Active; 'I' for Inactive)
REMARK    1  A    between atoms: C_1  and  C_2
REMARK    2  A    between atoms: C_2  and  C_3
REMARK    3  A    between atoms: C_3  and  N_4
REMARK    4  A    between atoms: C_9  and  C_11
REMARK    5  A    between atoms: N_13  and  C_14
REMARK    6  A    between atoms: C_15  and  C_16
REMARK    7  A    between atoms: C_20  and  C_21
REMARK                            x       y       z     vdW  Elec       q    Type
REMARK                         _______ _______ _______ _____ _____    ______ ____
ROOT
ATOM      1  C   UNL     1       8.599  -2.428  22.967  0.00  0.00    +0.234 C 
ATOM      2  N   UNL     1       8.160  -1.146  23.238  0.00  0.00    -0.284 N 
ATOM      3  H   UNL     1       7.253  -1.093  23.683  0.00  0.00    +0.155 HD
ATOM      4  O   UNL     1       9.784  -2.744  22.853  0.00  0.00    -0.274 OA
ENDROOT
BRANCH   2   5
ATOM      5  C   UNL     1       8.989  -0.003  23.246  0.00  0.00    +0.039 A 
ATOM      6  C   UNL     1       9.502   0.431  24.491  0.00  0.00    -0.029 A 
ATOM      7  C   UNL     1       9.294  -0.363  25.755  0.00  0.00    +0.045 C 
ATOM      8  C   UNL     1      10.312   1.576  24.552  0.00  0.00    +0.005 A 
ATOM      9  C   UNL     1      10.615   2.290  23.396  0.00  0.00    +0.001 A 
ATOM     10  C   UNL     1      10.109   1.868  22.169  0.00  0.00    +0.005 A 
ATOM     11  C   UNL     1       9.280   0.736  22.075  0.00  0.00    -0.029 A 
ATOM     12  C   UNL     1       8.736   0.432  20.703  0.00  0.00    +0.045 C 
ENDBRANCH   2   5
BRANCH   1  14
ATOM     13  N   UNL     1       7.599  -4.521  24.039  0.00  0.00    -0.292 NA
ATOM     14  C   UNL     1       7.481  -3.494  22.952  0.00  0.00    +0.143 C 
ATOM     15  C   UNL     1       6.108  -2.806  22.904  0.00  0.00    +0.028 C 
ATOM     16  C   UNL     1       4.972  -3.813  22.808  0.00  0.00    +0.003 C 
ATOM     17  C   UNL     1       5.110  -4.912  23.853  0.00  0.00    +0.015 C 
ATOM     18  C   UNL     1       6.519  -5.514  23.840  0.00  0.00    +0.085 C 
BRANCH  13  19
ATOM     19  C   UNL     1       7.577  -3.937  25.401  0.00  0.00    +0.085 C 
BRANCH  19  21
ATOM     20  C   UNL     1       9.845  -5.046  25.551  0.00  0.00    +0.005 C 
ATOM     21  C   UNL     1       8.649  -4.523  26.335  0.00  0.00    +0.012 C 
ENDBRANCH  19  21
ENDBRANCH  13  19
ENDBRANCH   1  14
TORSDOF 4
ENDMDL
MODEL 3
REMARK VINA RESULT:      -6.0      2.060      3.107
REMARK  Name = 
REMARK  7 active torsions:
REMARK  status: ('A' for Active; 'I' for Inactive)
REMARK    1  A    between atoms: C_1  and  C_2
REMARK    2  A    between atoms: C_2  and  C_3
REMARK    3  A    between atoms: C_3  and  N_4
REMARK    4  A    between atoms: C_9  and  C_11
REMARK    5  A    between atoms: N_13  and  C_14
REMARK    6  A    between atoms: C_15  and  C_16
REMARK    7  A    between atoms: C_20  and  C_21
REMARK                            x       y       z     vdW  Elec       q    Type
REMARK                         _______ _______ _______ _____ _____    ______ ____
ROOT
ATOM      1  C   UNL     1       6.558  -2.200  23.625  0.00  0.00    +0.234 C 
ATOM      2  N   UNL     1       7.550  -1.309  23.985  0.00  0.00    -0.284 N 
ATOM      3  H   UNL     1       8.174  -1.638  24.710  0.00  0.00    +0.155 HD
ATOM      4  O   UNL     1       5.999  -2.206  22.527  0.00  0.00    -0.274 OA
ENDROOT
BRANCH   2   5
ATOM      5  C   UNL     1       7.932  -0.185  23.219  0.00  0.00    +0.039 A 
ATOM      6  C   UNL     1       9.098  -0.293  22.426  0.00  0.00    -0.029 A 
ATOM      7  C   UNL     1       9.844  -1.595  22.285  0.00  0.00    +0.045 C 
ATOM      8  C   UNL     1       9.529   0.804  21.665  0.00  0.00    +0.005 A 
ATOM      9  C   UNL     1       8.818   2.001  21.685  0.00  0.00    +0.001 A 
ATOM     10  C   UNL     1       7.672   2.113  22.467  0.00  0.00    +0.005 A 
ATOM     11  C   UNL     1       7.223   1.038  23.255  0.00  0.00    -0.029 A 
ATOM     12  C   UNL     1       6.016   1.314  24.115  0.00  0.00    +0.045 C 
ENDBRANCH   2   5
BRANCH   1  14
ATOM     13  N   UNL     1       6.285  -4.695  24.106  0.00  0.00    -0.292 NA
ATOM     14  C   UNL     1       6.285  -3.305  24.670  0.00  0.00    +0.143 C 
ATOM     15  C   UNL     1       7.228  -3.129  25.871  0.00  0.00    +0.028 C 
ATOM     16  C   UNL     1       6.945  -4.146  26.966  0.00  0.00    +0.003 C 
ATOM     17  C   UNL     1       6.864  -5.560  26.408  0.00  0.00    +0.015 C 
ATOM     18  C   UNL     1       5.923  -5.625  25.199  0.00  0.00    +0.085 C 
BRANCH  13  19
ATOM     19  C   UNL     1       7.567  -5.064  23.459  0.00  0.00    +0.085 C 
BRANCH  19  21
ATOM     20  C   UNL     1       6.096  -5.565  21.463  0.00  0.00    +0.005 C 
ATOM     21  C   UNL     1       7.388  -5.914  22.190  0.00  0.00    +0.012 C 
ENDBRANCH  19  21
ENDBRANCH  13  19
ENDBRANCH   1  14
TORSDOF 4
ENDMDL
MODEL 4
REMARK VINA RESULT:      -5.9      2.047      3.190
REMARK  Name = 
REMARK  7 active torsions:
REMARK  status: ('A' for Active; 'I' for Inactive)
REMARK    1  A    between atoms: C_1  and  C_2
REMARK    2  A    between atoms: C_2  and  C_3
REMARK    3  A    between atoms: C_3  and  N_4
REMARK    4  A    between atoms: C_9  and  C_11
REMARK    5  A    between atoms: N_13  and  C_14
REMARK    6  A    between atoms: C_15  and  C_16
REMARK    7  A    between atoms: C_20  and  C_21
REMARK                            x       y       z     vdW  Elec       q    Type
REMARK                         _______ _______ _______ _____ _____    ______ ____
ROOT
ATOM      1  C   UNL     1       6.633  -2.238  23.529  0.00  0.00    +0.234 C 
ATOM      2  N   UNL     1       7.560  -1.314  23.971  0.00  0.00    -0.284 N 
ATOM      3  H   UNL     1       8.112  -1.612  24.765  0.00  0.00    +0.155 HD
ATOM      4  O   UNL     1       6.193  -2.281  22.379  0.00  0.00    -0.274 OA
ENDROOT
BRANCH   2   5
ATOM      5  C   UNL     1       7.994  -0.197  23.224  0.00  0.00    +0.039 A 
ATOM      6  C   UNL     1       7.223   0.987  23.302  0.00  0.00    -0.029 A 
ATOM      7  C   UNL     1       6.057   1.114  24.248  0.00  0.00    +0.045 C 
ATOM      8  C   UNL     1       7.602   2.116  22.560  0.00  0.00    +0.005 A 
ATOM      9  C   UNL     1       8.730   2.082  21.745  0.00  0.00    +0.001 A 
ATOM     10  C   UNL     1       9.489   0.917  21.663  0.00  0.00    +0.005 A 
ATOM     11  C   UNL     1       9.127  -0.238  22.379  0.00  0.00    -0.029 A 
ATOM     12  C   UNL     1       9.987  -1.453  22.142  0.00  0.00    +0.045 C 
ENDBRANCH   2   5
BRANCH   1  14
ATOM     13  N   UNL     1       6.254  -4.720  24.004  0.00  0.00    -0.292 NA
ATOM     14  C   UNL     1       6.278  -3.329  24.564  0.00  0.00    +0.143 C 
ATOM     15  C   UNL     1       7.174  -3.181  25.804  0.00  0.00    +0.028 C 
ATOM     16  C   UNL     1       6.811  -4.183  26.889  0.00  0.00    +0.003 C 
ATOM     17  C   UNL     1       6.705  -5.596  26.331  0.00  0.00    +0.015 C 
ATOM     18  C   UNL     1       5.814  -5.633  25.084  0.00  0.00    +0.085 C 
BRANCH  13  19
ATOM     19  C   UNL     1       7.549  -5.135  23.414  0.00  0.00    +0.085 C 
BRANCH  19  21
ATOM     20  C   UNL     1       6.117  -5.631  21.387  0.00  0.00    +0.005 C 
ATOM     21  C   UNL     1       7.395  -5.982  22.138  0.00  0.00    +0.012 C 
ENDBRANCH  19  21
ENDBRANCH  13  19
ENDBRANCH   1  14
TORSDOF 4
ENDMDL
MODEL 5
REMARK VINA RESULT:      -5.9      1.600      1.904
REMARK  Name = 
REMARK  7 active torsions:
REMARK  status: ('A' for Active; 'I' for Inactive)
REMARK    1  A    between atoms: C_1  and  C_2
REMARK    2  A    between atoms: C_2  and  C_3
REMARK    3  A    between atoms: C_3  and  N_4
REMARK    4  A    between atoms: C_9  and  C_11
REMARK    5  A    between atoms: N_13  and  C_14
REMARK    6  A    between atoms: C_15  and  C_16
REMARK    7  A    between atoms: C_20  and  C_21
REMARK                            x       y       z     vdW  Elec       q    Type
REMARK                         _______ _______ _______ _____ _____    ______ ____
ROOT
ATOM      1  C   UNL     1       8.574  -3.737  23.902  0.00  0.00    +0.234 C 
ATOM      2  N   UNL     1       8.182  -2.425  23.720  0.00  0.00    -0.284 N 
ATOM      3  H   UNL     1       7.184  -2.291  23.613  0.00  0.00    +0.155 HD
ATOM      4  O   UNL     1       9.614  -4.076  24.469  0.00  0.00    -0.274 OA
ENDROOT
BRANCH   2   5
ATOM      5  C   UNL     1       8.992  -1.303  23.997  0.00  0.00    +0.039 A 
ATOM      6  C   UNL     1       9.681  -0.704  22.917  0.00  0.00    -0.029 A 
ATOM      7  C   UNL     1       9.464  -1.148  21.493  0.00  0.00    +0.045 C 
ATOM      8  C   UNL     1      10.517   0.400  23.147  0.00  0.00    +0.005 A 
ATOM      9  C   UNL     1      10.675   0.911  24.433  0.00  0.00    +0.001 A 
ATOM     10  C   UNL     1      10.002   0.322  25.500  0.00  0.00    +0.005 A 
ATOM     11  C   UNL     1       9.171  -0.796  25.306  0.00  0.00    -0.029 A 
ATOM     12  C   UNL     1       8.563  -1.386  26.553  0.00  0.00    +0.045 C 
ENDBRANCH   2   5
BRANCH   1  14
ATOM     13  N   UNL     1       6.511  -5.118  24.509  0.00  0.00    -0.292 NA
ATOM     14  C   UNL     1       7.527  -4.783  23.457  0.00  0.00    +0.143 C 
ATOM     15  C   UNL     1       6.907  -4.359  22.116  0.00  0.00    +0.028 C 
ATOM     16  C   UNL     1       5.925  -5.396  21.593  0.00  0.00    +0.003 C 
ATOM     17  C   UNL     1       4.927  -5.812  22.666  0.00  0.00    +0.015 C 
ATOM     18  C   UNL     1       5.642  -6.188  23.969  0.00  0.00    +0.085 C 
BRANCH  13  19
ATOM     19  C   UNL     1       5.733  -3.943  24.966  0.00  0.00    +0.085 C 
BRANCH  19  21
ATOM     20  C   UNL     1       6.799  -4.595  27.166  0.00  0.00    +0.005 C 
ATOM     21  C   UNL     1       5.686  -3.800  26.497  0.00  0.00    +0.012 C 
ENDBRANCH  19  21
ENDBRANCH  13  19
ENDBRANCH   1  14
TORSDOF 4
ENDMDL
MODEL 6
REMARK VINA RESULT:      -5.8      1.539      6.358
REMARK  Name = 
REMARK  7 active torsions:
REMARK  status: ('A' for Active; 'I' for Inactive)
REMARK    1  A    between atoms: C_1  and  C_2
REMARK    2  A    between atoms: C_2  and  C_3
REMARK    3  A    between atoms: C_3  and  N_4
REMARK    4  A    between atoms: C_9  and  C_11
REMARK    5  A    between atoms: N_13  and  C_14
REMARK    6  A    between atoms: C_15  and  C_16
REMARK    7  A    between atoms: C_20  and  C_21
REMARK                            x       y       z     vdW  Elec       q    Type
REMARK                         _______ _______ _______ _____ _____    ______ ____
ROOT
ATOM      1  C   UNL     1       8.314  -3.468  24.368  0.00  0.00    +0.234 C 
ATOM      2  N   UNL     1       6.962  -3.393  24.642  0.00  0.00    -0.284 N 
ATOM      3  H   UNL     1       6.603  -2.455  24.761  0.00  0.00    +0.155 HD
ATOM      4  O   UNL     1       8.849  -4.406  23.775  0.00  0.00    -0.274 OA
ENDROOT
BRANCH   2   5
ATOM      5  C   UNL     1       6.046  -4.449  24.440  0.00  0.00    +0.039 A 
ATOM      6  C   UNL     1       5.276  -4.437  23.253  0.00  0.00    -0.029 A 
ATOM      7  C   UNL     1       5.507  -3.416  22.169  0.00  0.00    +0.045 C 
ATOM      8  C   UNL     1       4.337  -5.453  23.020  0.00  0.00    +0.005 A 
ATOM      9  C   UNL     1       4.155  -6.475  23.947  0.00  0.00    +0.001 A 
ATOM     10  C   UNL     1       4.908  -6.489  25.118  0.00  0.00    +0.005 A 
ATOM     11  C   UNL     1       5.845  -5.476  25.392  0.00  0.00    -0.029 A 
ATOM     12  C   UNL     1       6.537  -5.566  26.727  0.00  0.00    +0.045 C 
ENDBRANCH   2   5
BRANCH   1  14
ATOM     13  N   UNL     1       9.757  -1.514  23.576  0.00  0.00    -0.292 NA
ATOM     14  C   UNL     1       9.110  -2.199  24.743  0.00  0.00    +0.143 C 
ATOM     15  C   UNL     1       8.232  -1.266  25.593  0.00  0.00    +0.028 C 
ATOM     16  C   UNL     1       8.996  -0.035  26.057  0.00  0.00    +0.003 C 
ATOM     17  C   UNL     1       9.726   0.637  24.902  0.00  0.00    +0.015 C 
ATOM     18  C   UNL     1      10.550  -0.379  24.102  0.00  0.00    +0.085 C 
BRANCH  13  19
ATOM     19  C   UNL     1       8.789  -1.086  22.538  0.00  0.00    +0.085 C 
BRANCH  19  21
ATOM     20  C   UNL     1       8.718   1.154  21.364  0.00  0.00    +0.005 C 
ATOM     21  C   UNL     1       9.414  -0.198  21.449  0.00  0.00    +0.012 C 
ENDBRANCH  19  21
ENDBRANCH  13  19
ENDBRANCH   1  14
TORSDOF 4
ENDMDL
MODEL 7
REMARK VINA RESULT:      -5.7      1.596      6.666
REMARK  Name = 
REMARK  7 active torsions:
REMARK  status: ('A' for Active; 'I' for Inactive)
REMARK    1  A    between atoms: C_1  and  C_2
REMARK    2  A    between atoms: C_2  and  C_3
REMARK    3  A    between atoms: C_3  and  N_4
REMARK    4  A    between atoms: C_9  and  C_11
REMARK    5  A    between atoms: N_13  and  C_14
REMARK    6  A    between atoms: C_15  and  C_16
REMARK    7  A    between atoms: C_20  and  C_21
REMARK                            x       y       z     vdW  Elec       q    Type
REMARK                         _______ _______ _______ _____ _____    ______ ____
ROOT
ATOM      1  C   UNL     1       8.419  -3.533  24.527  0.00  0.00    +0.234 C 
ATOM      2  N   UNL     1       7.050  -3.478  24.704  0.00  0.00    -0.284 N 
ATOM      3  H   UNL     1       6.663  -2.543  24.736  0.00  0.00    +0.155 HD
ATOM      4  O   UNL     1       9.014  -4.493  24.036  0.00  0.00    -0.274 OA
ENDROOT
BRANCH   2   5
ATOM      5  C   UNL     1       6.174  -4.569  24.512  0.00  0.00    +0.039 A 
ATOM      6  C   UNL     1       5.933  -5.423  25.613  0.00  0.00    -0.029 A 
ATOM      7  C   UNL     1       6.474  -5.118  26.987  0.00  0.00    +0.045 C 
ATOM      8  C   UNL     1       5.088  -6.533  25.464  0.00  0.00    +0.005 A 
ATOM      9  C   UNL     1       4.485  -6.803  24.239  0.00  0.00    +0.001 A 
ATOM     10  C   UNL     1       4.723  -5.967  23.151  0.00  0.00    +0.005 A 
ATOM     11  C   UNL     1       5.578  -4.857  23.261  0.00  0.00    -0.029 A 
ATOM     12  C   UNL     1       5.812  -4.079  21.992  0.00  0.00    +0.045 C 
ENDBRANCH   2   5
BRANCH   1  14
ATOM     13  N   UNL     1       9.796  -1.551  23.689  0.00  0.00    -0.292 NA
ATOM     14  C   UNL     1       9.159  -2.221  24.870  0.00  0.00    +0.143 C 
ATOM     15  C   UNL     1       8.232  -1.297  25.675  0.00  0.00    +0.028 C 
ATOM     16  C   UNL     1       8.940  -0.021  26.107  0.00  0.00    +0.003 C 
ATOM     17  C   UNL     1       9.660   0.641  24.940  0.00  0.00    +0.015 C 
ATOM     18  C   UNL     1      10.534  -0.368  24.186  0.00  0.00    +0.085 C 
BRANCH  13  19
ATOM     19  C   UNL     1       8.826  -1.197  22.624  0.00  0.00    +0.085 C 
BRANCH  19  21
ATOM     20  C   UNL     1       8.840   0.982  21.338  0.00  0.00    +0.005 C 
ATOM     21  C   UNL     1       9.455  -0.406  21.464  0.00  0.00    +0.012 C 
ENDBRANCH  19  21
ENDBRANCH  13  19
ENDBRANCH   1  14
TORSDOF 4
ENDMDL
MODEL 8
REMARK VINA RESULT:      -5.6      1.728      6.430
REMARK  Name = 
REMARK  7 active torsions:
REMARK  status: ('A' for Active; 'I' for Inactive)
REMARK    1  A    between atoms: C_1  and  C_2
REMARK    2  A    between atoms: C_2  and  C_3
REMARK    3  A    between atoms: C_3  and  N_4
REMARK    4  A    between atoms: C_9  and  C_11
REMARK    5  A    between atoms: N_13  and  C_14
REMARK    6  A    between atoms: C_15  and  C_16
REMARK    7  A    between atoms: C_20  and  C_21
REMARK                            x       y       z     vdW  Elec       q    Type
REMARK                         _______ _______ _______ _____ _____    ______ ____
ROOT
ATOM      1  C   UNL     1       8.352  -1.523  24.556  0.00  0.00    +0.234 C 
ATOM      2  N   UNL     1       8.248  -2.783  24.000  0.00  0.00    -0.284 N 
ATOM      3  H   UNL     1       9.003  -3.035  23.375  0.00  0.00    +0.155 HD
ATOM      4  O   UNL     1       7.831  -1.192  25.622  0.00  0.00    -0.274 OA
ENDROOT
BRANCH   2   5
ATOM      5  C   UNL     1       7.395  -3.801  24.480  0.00  0.00    +0.039 A 
ATOM      6  C   UNL     1       6.129  -3.943  23.866  0.00  0.00    -0.029 A 
ATOM      7  C   UNL     1       5.740  -3.138  22.653  0.00  0.00    +0.045 C 
ATOM      8  C   UNL     1       5.237  -4.926  24.324  0.00  0.00    +0.005 A 
ATOM      9  C   UNL     1       5.588  -5.762  25.380  0.00  0.00    +0.001 A 
ATOM     10  C   UNL     1       6.832  -5.622  25.990  0.00  0.00    +0.005 A 
ATOM     11  C   UNL     1       7.742  -4.636  25.567  0.00  0.00    -0.029 A 
ATOM     12  C   UNL     1       9.020  -4.539  26.360  0.00  0.00    +0.045 C 
ENDBRANCH   2   5
BRANCH   1  14
ATOM     13  N   UNL     1       8.686   0.101  22.612  0.00  0.00    -0.292 NA
ATOM     14  C   UNL     1       9.306  -0.570  23.802  0.00  0.00    +0.143 C 
ATOM     15  C   UNL     1       9.953   0.410  24.793  0.00  0.00    +0.028 C 
ATOM     16  C   UNL     1      10.963   1.321  24.112  0.00  0.00    +0.003 C 
ATOM     17  C   UNL     1      10.383   1.958  22.856  0.00  0.00    +0.015 C 
ATOM     18  C   UNL     1       9.738   0.904  21.948  0.00  0.00    +0.085 C 
BRANCH  13  19
ATOM     19  C   UNL     1       7.495   0.916  22.955  0.00  0.00    +0.085 C 
BRANCH  19  21
ATOM     20  C   UNL     1       6.909   3.321  22.434  0.00  0.00    +0.005 C 
ATOM     21  C   UNL     1       7.110   1.925  21.860  0.00  0.00    +0.012 C 
ENDBRANCH  19  21
ENDBRANCH  13  19
ENDBRANCH   1  14
TORSDOF 4
ENDMDL
MODEL 9
REMARK VINA RESULT:      -5.6      1.975      3.803
REMARK  Name = 
REMARK  7 active torsions:
REMARK  status: ('A' for Active; 'I' for Inactive)
REMARK    1  A    between atoms: C_1  and  C_2
REMARK    2  A    between atoms: C_2  and  C_3
REMARK    3  A    between atoms: C_3  and  N_4
REMARK    4  A    between atoms: C_9  and  C_11
REMARK    5  A    between atoms: N_13  and  C_14
REMARK    6  A    between atoms: C_15  and  C_16
REMARK    7  A    between atoms: C_20  and  C_21
REMARK                            x       y       z     vdW  Elec       q    Type
REMARK                         _______ _______ _______ _____ _____    ______ ____
ROOT
ATOM      1  C   UNL     1       7.678  -3.621  25.536  0.00  0.00    +0.234 C 
ATOM      2  N   UNL     1       7.507  -2.336  25.057  0.00  0.00    -0.284 N 
ATOM      3  H   UNL     1       6.616  -1.913  25.284  0.00  0.00    +0.155 HD
ATOM      4  O   UNL     1       8.775  -4.135  25.761  0.00  0.00    -0.274 OA
ENDROOT
BRANCH   2   5
ATOM      5  C   UNL     1       8.555  -1.508  24.598  0.00  0.00    +0.039 A 
ATOM      6  C   UNL     1       9.166  -0.639  25.531  0.00  0.00    -0.029 A 
ATOM      7  C   UNL     1       8.818  -0.678  26.997  0.00  0.00    +0.045 C 
ATOM      8  C   UNL     1      10.196   0.219  25.116  0.00  0.00    +0.005 A 
ATOM      9  C   UNL     1      10.623   0.222  23.791  0.00  0.00    +0.001 A 
ATOM     10  C   UNL     1      10.021  -0.628  22.868  0.00  0.00    +0.005 A 
ATOM     11  C   UNL     1       8.974  -1.488  23.246  0.00  0.00    -0.029 A 
ATOM     12  C   UNL     1       8.357  -2.300  22.137  0.00  0.00    +0.045 C 
ENDBRANCH   2   5
BRANCH   1  14
ATOM     13  N   UNL     1       5.474  -4.638  24.741  0.00  0.00    -0.292 NA
ATOM     14  C   UNL     1       6.364  -4.341  25.910  0.00  0.00    +0.143 C 
ATOM     15  C   UNL     1       6.676  -5.574  26.774  0.00  0.00    +0.028 C 
ATOM     16  C   UNL     1       5.408  -6.276  27.238  0.00  0.00    +0.003 C 
ATOM     17  C   UNL     1       4.451  -6.522  26.079  0.00  0.00    +0.015 C 
ATOM     18  C   UNL     1       4.228  -5.242  25.265  0.00  0.00    +0.085 C 
BRANCH  13  19
ATOM     19  C   UNL     1       6.120  -5.492  23.715  0.00  0.00    +0.085 C 
BRANCH  19  21
ATOM     20  C   UNL     1       6.626  -5.730  21.248  0.00  0.00    +0.005 C 
ATOM     21  C   UNL     1       5.648  -5.189  22.283  0.00  0.00    +0.012 C 
ENDBRANCH  19  21
ENDBRANCH  13  19
ENDBRANCH   1  14
TORSDOF 4
ENDMDL
