MODEL 1
REMARK VINA RESULT:      -6.8      0.000      0.000
REMARK  Name = 
REMARK  3 active torsions:
REMARK  status: ('A' for Active; 'I' for Inactive)
REMARK    1  A    between atoms: C_2  and  C_5
REMARK    2  A    between atoms: C_5  and  N_6
REMARK    3  A    between atoms: C_14  and  C_19
REMARK                            x       y       z     vdW  Elec       q    Type
REMARK                         _______ _______ _______ _____ _____    ______ ____
ROOT
ATOM      1  N   UNL     1       6.766  -4.075  24.386  0.00  0.00    -0.261 N 
ATOM      2  C   UNL     1       7.147  -4.351  23.070  0.00  0.00    +0.241 C 
ATOM      3  O   UNL     1       7.604  -5.452  22.753  0.00  0.00    -0.273 OA
ATOM      4  C   UNL     1       6.916  -3.259  22.038  0.00  0.00    +0.238 C 
ATOM      5  N   UNL     1       7.912  -2.214  22.249  0.00  0.00    -0.273 NA
ATOM      6  C   UNL     1       7.815  -1.476  23.303  0.00  0.00    +0.075 C 
ATOM      7  C   UNL     1       6.696  -1.579  24.292  0.00  0.00    +0.023 A 
ATOM      8  C   UNL     1       6.118  -0.372  24.726  0.00  0.00    +0.032 A 
ATOM      9  C   UNL     1       5.161  -0.375  25.733  0.00  0.00    +0.042 A 
ATOM     10  C   UNL     1       4.748  -1.574  26.298  0.00  0.00    +0.022 A 
ATOM     11  C   UNL     1       5.289  -2.783  25.844  0.00  0.00    +0.025 A 
ATOM     12 CL   UNL     1       4.506   1.111  26.297  0.00  0.00    -0.084 Cl
ATOM     13  C   UNL     1       6.264  -2.813  24.829  0.00  0.00    +0.046 A 
ENDROOT
BRANCH   6  14
ATOM     14  C   UNL     1       8.891  -0.448  23.517  0.00  0.00    +0.001 A 
ATOM     15  C   UNL     1       9.069   0.553  22.552  0.00  0.00    +0.010 A 
ATOM     16  C   UNL     1      10.029   1.549  22.736  0.00  0.00    +0.001 A 
ATOM     17  C   UNL     1      10.824   1.548  23.880  0.00  0.00    +0.000 A 
ATOM     18  C   UNL     1      10.680   0.536  24.829  0.00  0.00    +0.001 A 
ATOM     19  C   UNL     1       9.725  -0.468  24.644  0.00  0.00    +0.010 A 
ENDBRANCH   6  14
BRANCH   1  20
ATOM     20  C   UNL     1       6.927  -5.187  25.339  0.00  0.00    +0.226 C 
BRANCH  20  22
ATOM     21  F   UNL     1       8.737  -3.925  26.318  0.00  0.00    -0.169 F 
ATOM     22  C   UNL     1       8.197  -5.158  26.199  0.00  0.00    +0.406 C 
ATOM     23  F   UNL     1       7.974  -5.647  27.439  0.00  0.00    -0.169 F 
ATOM     24  F   UNL     1       9.148  -5.944  25.631  0.00  0.00    -0.169 F 
ENDBRANCH  20  22
ENDBRANCH   1  20
TORSDOF 3
ENDMDL
MODEL 2
REMARK VINA RESULT:      -6.4      3.353      4.547
REMARK  Name = 
REMARK  3 active torsions:
REMARK  status: ('A' for Active; 'I' for Inactive)
REMARK    1  A    between atoms: C_2  and  C_5
REMARK    2  A    between atoms: C_5  and  N_6
REMARK    3  A    between atoms: C_14  and  C_19
REMARK                            x       y       z     vdW  Elec       q    Type
REMARK                         _______ _______ _______ _____ _____    ______ ____
ROOT
ATOM      1  N   UNL     1       5.820  -5.042  26.191  0.00  0.00    -0.261 N 
ATOM      2  C   UNL     1       6.907  -5.063  27.068  0.00  0.00    +0.241 C 
ATOM      3  O   UNL     1       6.755  -4.901  28.281  0.00  0.00    -0.273 OA
ATOM      4  C   UNL     1       8.275  -5.352  26.471  0.00  0.00    +0.238 C 
ATOM      5  N   UNL     1       8.714  -4.168  25.741  0.00  0.00    -0.273 NA
ATOM      6  C   UNL     1       8.110  -3.863  24.642  0.00  0.00    +0.075 C 
ATOM      7  C   UNL     1       7.026  -4.695  24.030  0.00  0.00    +0.023 A 
ATOM      8  C   UNL     1       7.107  -4.924  22.644  0.00  0.00    +0.032 A 
ATOM      9  C   UNL     1       6.078  -5.579  21.980  0.00  0.00    +0.042 A 
ATOM     10  C   UNL     1       4.975  -6.039  22.686  0.00  0.00    +0.022 A 
ATOM     11  C   UNL     1       4.906  -5.851  24.072  0.00  0.00    +0.025 A 
ATOM     12 CL   UNL     1       6.159  -5.799  20.276  0.00  0.00    -0.084 Cl
ATOM     13  C   UNL     1       5.929  -5.187  24.774  0.00  0.00    +0.046 A 
ENDROOT
BRANCH   6  14
ATOM     14  C   UNL     1       8.550  -2.605  23.947  0.00  0.00    +0.001 A 
ATOM     15  C   UNL     1       9.889  -2.489  23.548  0.00  0.00    +0.010 A 
ATOM     16  C   UNL     1      10.326  -1.355  22.863  0.00  0.00    +0.001 A 
ATOM     17  C   UNL     1       9.432  -0.324  22.579  0.00  0.00    +0.000 A 
ATOM     18  C   UNL     1       8.106  -0.414  23.004  0.00  0.00    +0.001 A 
ATOM     19  C   UNL     1       7.667  -1.545  23.698  0.00  0.00    +0.010 A 
ENDBRANCH   6  14
BRANCH   1  20
ATOM     20  C   UNL     1       4.503  -4.843  26.818  0.00  0.00    +0.226 C 
BRANCH  20  22
ATOM     21  F   UNL     1       4.807  -2.483  26.415  0.00  0.00    -0.169 F 
ATOM     22  C   UNL     1       3.893  -3.443  26.672  0.00  0.00    +0.406 C 
ATOM     23  F   UNL     1       2.951  -3.404  25.703  0.00  0.00    -0.169 F 
ATOM     24  F   UNL     1       3.279  -3.093  27.833  0.00  0.00    -0.169 F 
ENDBRANCH  20  22
ENDBRANCH   1  20
TORSDOF 3
ENDMDL
MODEL 3
REMARK VINA RESULT:      -6.4      3.238      5.785
REMARK  Name = 
REMARK  3 active torsions:
REMARK  status: ('A' for Active; 'I' for Inactive)
REMARK    1  A    between atoms: C_2  and  C_5
REMARK    2  A    between atoms: C_5  and  N_6
REMARK    3  A    between atoms: C_14  and  C_19
REMARK                            x       y       z     vdW  Elec       q    Type
REMARK                         _______ _______ _______ _____ _____    ______ ____
ROOT
ATOM      1  N   UNL     1       8.805  -0.637  23.339  0.00  0.00    -0.261 N 
ATOM      2  C   UNL     1       9.720  -1.655  23.059  0.00  0.00    +0.241 C 
ATOM      3  O   UNL     1      10.428  -1.621  22.050  0.00  0.00    -0.273 OA
ATOM      4  C   UNL     1       9.848  -2.772  24.082  0.00  0.00    +0.238 C 
ATOM      5  N   UNL     1       8.666  -3.622  23.979  0.00  0.00    -0.273 NA
ATOM      6  C   UNL     1       7.534  -3.152  24.381  0.00  0.00    +0.075 C 
ATOM      7  C   UNL     1       7.369  -1.807  25.016  0.00  0.00    +0.023 A 
ATOM      8  C   UNL     1       6.566  -1.742  26.169  0.00  0.00    +0.032 A 
ATOM      9  C   UNL     1       6.262  -0.515  26.745  0.00  0.00    +0.042 A 
ATOM     10  C   UNL     1       6.775   0.656  26.202  0.00  0.00    +0.022 A 
ATOM     11  C   UNL     1       7.609   0.596  25.078  0.00  0.00    +0.025 A 
ATOM     12 CL   UNL     1       5.228  -0.443  28.117  0.00  0.00    -0.084 Cl
ATOM     13  C   UNL     1       7.931  -0.631  24.469  0.00  0.00    +0.046 A 
ENDROOT
BRANCH   6  14
ATOM     14  C   UNL     1       6.329  -4.034  24.207  0.00  0.00    +0.001 A 
ATOM     15  C   UNL     1       6.275  -5.247  24.907  0.00  0.00    +0.010 A 
ATOM     16  C   UNL     1       5.155  -6.073  24.804  0.00  0.00    +0.001 A 
ATOM     17  C   UNL     1       4.084  -5.697  23.996  0.00  0.00    +0.000 A 
ATOM     18  C   UNL     1       4.143  -4.509  23.267  0.00  0.00    +0.001 A 
ATOM     19  C   UNL     1       5.267  -3.684  23.361  0.00  0.00    +0.010 A 
ENDBRANCH   6  14
BRANCH   1  20
ATOM     20  C   UNL     1       8.770   0.470  22.367  0.00  0.00    +0.226 C 
BRANCH  20  22
ATOM     21  F   UNL     1      10.524   1.437  23.712  0.00  0.00    -0.169 F 
ATOM     22  C   UNL     1       9.725   1.638  22.642  0.00  0.00    +0.406 C 
ATOM     23  F   UNL     1      10.505   1.911  21.573  0.00  0.00    -0.169 F 
ATOM     24  F   UNL     1       9.005   2.760  22.901  0.00  0.00    -0.169 F 
ENDBRANCH  20  22
ENDBRANCH   1  20
TORSDOF 3
ENDMDL
MODEL 4
REMARK VINA RESULT:      -6.3      2.791      5.819
REMARK  Name = 
REMARK  3 active torsions:
REMARK  status: ('A' for Active; 'I' for Inactive)
REMARK    1  A    between atoms: C_2  and  C_5
REMARK    2  A    between atoms: C_5  and  N_6
REMARK    3  A    between atoms: C_14  and  C_19
REMARK                            x       y       z     vdW  Elec       q    Type
REMARK                         _______ _______ _______ _____ _____    ______ ____
ROOT
ATOM      1  N   UNL     1       8.460  -3.042  24.931  0.00  0.00    -0.261 N 
ATOM      2  C   UNL     1       9.132  -4.213  25.292  0.00  0.00    +0.241 C 
ATOM      3  O   UNL     1      10.198  -4.530  24.759  0.00  0.00    -0.273 OA
ATOM      4  C   UNL     1       8.526  -5.043  26.412  0.00  0.00    +0.238 C 
ATOM      5  N   UNL     1       7.346  -5.723  25.888  0.00  0.00    -0.273 NA
ATOM      6  C   UNL     1       6.301  -5.017  25.614  0.00  0.00    +0.075 C 
ATOM      7  C   UNL     1       6.200  -3.546  25.869  0.00  0.00    +0.023 A 
ATOM      8  C   UNL     1       5.012  -3.084  26.465  0.00  0.00    +0.032 A 
ATOM      9  C   UNL     1       4.788  -1.722  26.620  0.00  0.00    +0.042 A 
ATOM     10  C   UNL     1       5.751  -0.807  26.215  0.00  0.00    +0.022 A 
ATOM     11  C   UNL     1       6.953  -1.260  25.658  0.00  0.00    +0.025 A 
ATOM     12 CL   UNL     1       3.306  -1.167  27.293  0.00  0.00    -0.084 Cl
ATOM     13  C   UNL     1       7.207  -2.633  25.482  0.00  0.00    +0.046 A 
ENDROOT
BRANCH   6  14
ATOM     14  C   UNL     1       5.124  -5.742  25.022  0.00  0.00    +0.001 A 
ATOM     15  C   UNL     1       4.535  -6.781  25.755  0.00  0.00    +0.010 A 
ATOM     16  C   UNL     1       3.415  -7.450  25.258  0.00  0.00    +0.001 A 
ATOM     17  C   UNL     1       2.881  -7.091  24.022  0.00  0.00    +0.000 A 
ATOM     18  C   UNL     1       3.482  -6.082  23.269  0.00  0.00    +0.001 A 
ATOM     19  C   UNL     1       4.609  -5.416  23.760  0.00  0.00    +0.010 A 
ENDBRANCH   6  14
BRANCH   1  20
ATOM     20  C   UNL     1       9.123  -2.222  23.902  0.00  0.00    +0.226 C 
BRANCH  20  22
ATOM     21  F   UNL     1       7.937  -3.425  22.179  0.00  0.00    -0.169 F 
ATOM     22  C   UNL     1       8.473  -2.231  22.513  0.00  0.00    +0.406 C 
ATOM     23  F   UNL     1       7.513  -1.287  22.402  0.00  0.00    -0.169 F 
ATOM     24  F   UNL     1       9.412  -1.950  21.572  0.00  0.00    -0.169 F 
ENDBRANCH  20  22
ENDBRANCH   1  20
TORSDOF 3
ENDMDL
MODEL 5
REMARK VINA RESULT:      -6.2      3.775      5.860
REMARK  Name = 
REMARK  3 active torsions:
REMARK  status: ('A' for Active; 'I' for Inactive)
REMARK    1  A    between atoms: C_2  and  C_5
REMARK    2  A    between atoms: C_5  and  N_6
REMARK    3  A    between atoms: C_14  and  C_19
REMARK                            x       y       z     vdW  Elec       q    Type
REMARK                         _______ _______ _______ _____ _____    ______ ____
ROOT
ATOM      1  N   UNL     1       8.525   1.579  24.168  0.00  0.00    -0.261 N 
ATOM      2  C   UNL     1       9.884   1.303  23.997  0.00  0.00    +0.241 C 
ATOM      3  O   UNL     1      10.577   1.958  23.215  0.00  0.00    -0.273 OA
ATOM      4  C   UNL     1      10.483   0.205  24.860  0.00  0.00    +0.238 C 
ATOM      5  N   UNL     1      10.021  -1.081  24.347  0.00  0.00    -0.273 NA
ATOM      6  C   UNL     1       8.779  -1.396  24.507  0.00  0.00    +0.075 C 
ATOM      7  C   UNL     1       7.795  -0.551  25.253  0.00  0.00    +0.023 A 
ATOM      8  C   UNL     1       6.949  -1.212  26.162  0.00  0.00    +0.032 A 
ATOM      9  C   UNL     1       5.927  -0.521  26.800  0.00  0.00    +0.042 A 
ATOM     10  C   UNL     1       5.753   0.837  26.567  0.00  0.00    +0.022 A 
ATOM     11  C   UNL     1       6.617   1.511  25.695  0.00  0.00    +0.025 A 
ATOM     12 CL   UNL     1       4.861  -1.353  27.861  0.00  0.00    -0.084 Cl
ATOM     13  C   UNL     1       7.658   0.838  25.029  0.00  0.00    +0.046 A 
ENDROOT
BRANCH   6  14
ATOM     14  C   UNL     1       8.326  -2.702  23.916  0.00  0.00    +0.001 A 
ATOM     15  C   UNL     1       8.692  -3.895  24.554  0.00  0.00    +0.010 A 
ATOM     16  C   UNL     1       8.255  -5.124  24.060  0.00  0.00    +0.001 A 
ATOM     17  C   UNL     1       7.456  -5.172  22.919  0.00  0.00    +0.000 A 
ATOM     18  C   UNL     1       7.116  -3.993  22.256  0.00  0.00    +0.001 A 
ATOM     19  C   UNL     1       7.559  -2.761  22.743  0.00  0.00    +0.010 A 
ENDBRANCH   6  14
BRANCH   1  20
ATOM     20  C   UNL     1       8.001   2.705  23.377  0.00  0.00    +0.226 C 
BRANCH  20  22
ATOM     21  F   UNL     1       6.601   3.354  21.522  0.00  0.00    -0.169 F 
ATOM     22  C   UNL     1       7.314   2.338  22.056  0.00  0.00    +0.406 C 
ATOM     23  F   UNL     1       8.201   1.909  21.131  0.00  0.00    -0.169 F 
ATOM     24  F   UNL     1       6.440   1.319  22.267  0.00  0.00    -0.169 F 
ENDBRANCH  20  22
ENDBRANCH   1  20
TORSDOF 3
ENDMDL
MODEL 6
REMARK VINA RESULT:      -6.2      2.974      4.697
REMARK  Name = 
REMARK  3 active torsions:
REMARK  status: ('A' for Active; 'I' for Inactive)
REMARK    1  A    between atoms: C_2  and  C_5
REMARK    2  A    between atoms: C_5  and  N_6
REMARK    3  A    between atoms: C_14  and  C_19
REMARK                            x       y       z     vdW  Elec       q    Type
REMARK                         _______ _______ _______ _____ _____    ______ ____
ROOT
ATOM      1  N   UNL     1       7.938  -3.350  23.566  0.00  0.00    -0.261 N 
ATOM      2  C   UNL     1       7.973  -3.917  24.843  0.00  0.00    +0.241 C 
ATOM      3  O   UNL     1       7.471  -5.021  25.067  0.00  0.00    -0.273 OA
ATOM      4  C   UNL     1       8.708  -3.144  25.925  0.00  0.00    +0.238 C 
ATOM      5  N   UNL     1       7.885  -2.001  26.309  0.00  0.00    -0.273 NA
ATOM      6  C   UNL     1       7.750  -1.031  25.468  0.00  0.00    +0.075 C 
ATOM      7  C   UNL     1       8.447  -0.973  24.145  0.00  0.00    +0.023 A 
ATOM      8  C   UNL     1       9.041   0.252  23.792  0.00  0.00    +0.032 A 
ATOM      9  C   UNL     1       9.598   0.426  22.532  0.00  0.00    +0.042 A 
ATOM     10  C   UNL     1       9.597  -0.621  21.620  0.00  0.00    +0.022 A 
ATOM     11  C   UNL     1       9.044  -1.857  21.977  0.00  0.00    +0.025 A 
ATOM     12 CL   UNL     1      10.266   1.948  22.091  0.00  0.00    -0.084 Cl
ATOM     13  C   UNL     1       8.468  -2.063  23.245  0.00  0.00    +0.046 A 
ENDROOT
BRANCH   6  14
ATOM     14  C   UNL     1       6.849   0.102  25.874  0.00  0.00    +0.001 A 
ATOM     15  C   UNL     1       7.176   0.848  27.014  0.00  0.00    +0.010 A 
ATOM     16  C   UNL     1       6.388   1.933  27.399  0.00  0.00    +0.001 A 
ATOM     17  C   UNL     1       5.263   2.277  26.652  0.00  0.00    +0.000 A 
ATOM     18  C   UNL     1       4.909   1.519  25.535  0.00  0.00    +0.001 A 
ATOM     19  C   UNL     1       5.691   0.426  25.153  0.00  0.00    +0.010 A 
ENDBRANCH   6  14
BRANCH   1  20
ATOM     20  C   UNL     1       7.290  -4.168  22.526  0.00  0.00    +0.226 C 
BRANCH  20  22
ATOM     21  F   UNL     1       4.989  -4.869  22.347  0.00  0.00    -0.169 F 
ATOM     22  C   UNL     1       5.831  -3.821  22.209  0.00  0.00    +0.406 C 
ATOM     23  F   UNL     1       5.377  -2.806  22.977  0.00  0.00    -0.169 F 
ATOM     24  F   UNL     1       5.732  -3.412  20.917  0.00  0.00    -0.169 F 
ENDBRANCH  20  22
ENDBRANCH   1  20
TORSDOF 3
ENDMDL
MODEL 7
REMARK VINA RESULT:      -6.1      3.100      5.937
REMARK  Name = 
REMARK  3 active torsions:
REMARK  status: ('A' for Active; 'I' for Inactive)
REMARK    1  A    between atoms: C_2  and  C_5
REMARK    2  A    between atoms: C_5  and  N_6
REMARK    3  A    between atoms: C_14  and  C_19
REMARK                            x       y       z     vdW  Elec       q    Type
REMARK                         _______ _______ _______ _____ _____    ______ ____
ROOT
ATOM      1  N   UNL     1       7.631  -4.306  24.374  0.00  0.00    -0.261 N 
ATOM      2  C   UNL     1       8.661  -5.025  24.985  0.00  0.00    +0.241 C 
ATOM      3  O   UNL     1       9.356  -5.817  24.344  0.00  0.00    -0.273 OA
ATOM      4  C   UNL     1       8.926  -4.745  26.455  0.00  0.00    +0.238 C 
ATOM      5  N   UNL     1       7.854  -5.356  27.236  0.00  0.00    -0.273 NA
ATOM      6  C   UNL     1       6.675  -4.836  27.173  0.00  0.00    +0.075 C 
ATOM      7  C   UNL     1       6.351  -3.596  26.400  0.00  0.00    +0.023 A 
ATOM      8  C   UNL     1       5.549  -2.636  27.044  0.00  0.00    +0.032 A 
ATOM      9  C   UNL     1       5.102  -1.517  26.353  0.00  0.00    +0.042 A 
ATOM     10  C   UNL     1       5.469  -1.324  25.028  0.00  0.00    +0.022 A 
ATOM     11  C   UNL     1       6.301  -2.254  24.392  0.00  0.00    +0.025 A 
ATOM     12 CL   UNL     1       4.071  -0.383  27.132  0.00  0.00    -0.084 Cl
ATOM     13  C   UNL     1       6.766  -3.401  25.063  0.00  0.00    +0.046 A 
ENDROOT
BRANCH   6  14
ATOM     14  C   UNL     1       5.584  -5.525  27.945  0.00  0.00    +0.001 A 
ATOM     15  C   UNL     1       4.523  -6.108  27.238  0.00  0.00    +0.010 A 
ATOM     16  C   UNL     1       3.514  -6.793  27.916  0.00  0.00    +0.001 A 
ATOM     17  C   UNL     1       3.553  -6.894  29.306  0.00  0.00    +0.000 A 
ATOM     18  C   UNL     1       4.585  -6.287  30.021  0.00  0.00    +0.001 A 
ATOM     19  C   UNL     1       5.593  -5.592  29.345  0.00  0.00    +0.010 A 
ENDBRANCH   6  14
BRANCH   1  20
ATOM     20  C   UNL     1       7.461  -4.542  22.930  0.00  0.00    +0.226 C 
BRANCH  20  22
ATOM     21  F   UNL     1       6.983  -6.709  21.982  0.00  0.00    -0.169 F 
ATOM     22  C   UNL     1       6.431  -5.609  22.540  0.00  0.00    +0.406 C 
ATOM     23  F   UNL     1       5.685  -5.998  23.597  0.00  0.00    -0.169 F 
ATOM     24  F   UNL     1       5.574  -5.097  21.619  0.00  0.00    -0.169 F 
ENDBRANCH  20  22
ENDBRANCH   1  20
TORSDOF 3
ENDMDL
MODEL 8
REMARK VINA RESULT:      -6.1      3.020      4.196
REMARK  Name = 
REMARK  3 active torsions:
REMARK  status: ('A' for Active; 'I' for Inactive)
REMARK    1  A    between atoms: C_2  and  C_5
REMARK    2  A    between atoms: C_5  and  N_6
REMARK    3  A    between atoms: C_14  and  C_19
REMARK                            x       y       z     vdW  Elec       q    Type
REMARK                         _______ _______ _______ _____ _____    ______ ____
ROOT
ATOM      1  N   UNL     1       8.833  -0.306  23.895  0.00  0.00    -0.261 N 
ATOM      2  C   UNL     1       8.763  -0.164  22.507  0.00  0.00    +0.241 C 
ATOM      3  O   UNL     1       9.233  -1.018  21.751  0.00  0.00    -0.273 OA
ATOM      4  C   UNL     1       8.031   1.055  21.971  0.00  0.00    +0.238 C 
ATOM      5  N   UNL     1       8.877   2.225  22.183  0.00  0.00    -0.273 NA
ATOM      6  C   UNL     1       9.051   2.647  23.390  0.00  0.00    +0.075 C 
ATOM      7  C   UNL     1       8.377   2.051  24.586  0.00  0.00    +0.023 A 
ATOM      8  C   UNL     1       7.820   2.949  25.515  0.00  0.00    +0.032 A 
ATOM      9  C   UNL     1       7.288   2.482  26.710  0.00  0.00    +0.042 A 
ATOM     10  C   UNL     1       7.276   1.120  26.982  0.00  0.00    +0.022 A 
ATOM     11  C   UNL     1       7.792   0.217  26.044  0.00  0.00    +0.025 A 
ATOM     12 CL   UNL     1       6.666   3.594  27.865  0.00  0.00    -0.084 Cl
ATOM     13  C   UNL     1       8.342   0.659  24.827  0.00  0.00    +0.046 A 
ENDROOT
BRANCH   6  14
ATOM     14  C   UNL     1       9.974   3.820  23.575  0.00  0.00    +0.001 A 
ATOM     15  C   UNL     1      11.348   3.635  23.367  0.00  0.00    +0.010 A 
ATOM     16  C   UNL     1      12.231   4.709  23.489  0.00  0.00    +0.001 A 
ATOM     17  C   UNL     1      11.750   5.972  23.827  0.00  0.00    +0.000 A 
ATOM     18  C   UNL     1      10.389   6.158  24.072  0.00  0.00    +0.001 A 
ATOM     19  C   UNL     1       9.503   5.083  23.959  0.00  0.00    +0.010 A 
ENDBRANCH   6  14
BRANCH   1  20
ATOM     20  C   UNL     1       9.476  -1.542  24.375  0.00  0.00    +0.226 C 
BRANCH  20  22
ATOM     21  F   UNL     1       7.263  -2.496  24.256  0.00  0.00    -0.169 F 
ATOM     22  C   UNL     1       8.554  -2.753  24.560  0.00  0.00    +0.406 C 
ATOM     23  F   UNL     1       8.961  -3.811  23.824  0.00  0.00    -0.169 F 
ATOM     24  F   UNL     1       8.575  -3.146  25.860  0.00  0.00    -0.169 F 
ENDBRANCH  20  22
ENDBRANCH   1  20
TORSDOF 3
ENDMDL
MODEL 9
REMARK VINA RESULT:      -6.0      3.484      6.288
REMARK  Name = 
REMARK  3 active torsions:
REMARK  status: ('A' for Active; 'I' for Inactive)
REMARK    1  A    between atoms: C_2  and  C_5
REMARK    2  A    between atoms: C_5  and  N_6
REMARK    3  A    between atoms: C_14  and  C_19
REMARK                            x       y       z     vdW  Elec       q    Type
REMARK                         _______ _______ _______ _____ _____    ______ ____
ROOT
ATOM      1  N   UNL     1       7.123  -3.480  23.978  0.00  0.00    -0.261 N 
ATOM      2  C   UNL     1       7.155  -3.799  22.618  0.00  0.00    +0.241 C 
ATOM      3  O   UNL     1       7.562  -2.992  21.780  0.00  0.00    -0.273 OA
ATOM      4  C   UNL     1       6.726  -5.204  22.225  0.00  0.00    +0.238 C 
ATOM      5  N   UNL     1       5.274  -5.288  22.349  0.00  0.00    -0.273 NA
ATOM      6  C   UNL     1       4.756  -5.275  23.530  0.00  0.00    +0.075 C 
ATOM      7  C   UNL     1       5.560  -5.251  24.792  0.00  0.00    +0.023 A 
ATOM      8  C   UNL     1       5.163  -6.131  25.816  0.00  0.00    +0.032 A 
ATOM      9  C   UNL     1       5.778  -6.082  27.061  0.00  0.00    +0.042 A 
ATOM     10  C   UNL     1       6.810  -5.183  27.293  0.00  0.00    +0.022 A 
ATOM     11  C   UNL     1       7.238  -4.331  26.267  0.00  0.00    +0.025 A 
ATOM     12 CL   UNL     1       5.243  -7.120  28.323  0.00  0.00    -0.084 Cl
ATOM     13  C   UNL     1       6.632  -4.353  24.996  0.00  0.00    +0.046 A 
ENDROOT
BRANCH   6  14
ATOM     14  C   UNL     1       3.255  -5.306  23.617  0.00  0.00    +0.001 A 
ATOM     15  C   UNL     1       2.605  -4.337  24.392  0.00  0.00    +0.010 A 
ATOM     16  C   UNL     1       1.211  -4.307  24.463  0.00  0.00    +0.001 A 
ATOM     17  C   UNL     1       0.457  -5.249  23.766  0.00  0.00    +0.000 A 
ATOM     18  C   UNL     1       1.096  -6.240  23.020  0.00  0.00    +0.001 A 
ATOM     19  C   UNL     1       2.492  -6.278  22.954  0.00  0.00    +0.010 A 
ENDBRANCH   6  14
BRANCH   1  20
ATOM     20  C   UNL     1       7.626  -2.140  24.327  0.00  0.00    +0.226 C 
BRANCH  20  22
ATOM     21  F   UNL     1       9.793  -3.189  24.487  0.00  0.00    -0.169 F 
ATOM     22  C   UNL     1       9.149  -2.002  24.447  0.00  0.00    +0.406 C 
ATOM     23  F   UNL     1       9.668  -1.270  23.437  0.00  0.00    -0.169 F 
ATOM     24  F   UNL     1       9.456  -1.355  25.602  0.00  0.00    -0.169 F 
ENDBRANCH  20  22
ENDBRANCH   1  20
TORSDOF 3
ENDMDL
