MODEL 1
REMARK VINA RESULT:      -3.2      0.000      0.000
REMARK  Name = 
REMARK  51 active torsions:
REMARK  status: ('A' for Active; 'I' for Inactive)
REMARK    1  A    between atoms: C_1  and  C_2
REMARK    2  A    between atoms: C_2  and  O_4
REMARK    3  A    between atoms: C_2  and  C_5
REMARK    4  A    between atoms: C_5  and  N_7
REMARK    5  A    between atoms: C_5  and  C_82
REMARK    6  A    between atoms: C_8  and  C_10
REMARK    7  A    between atoms: C_10  and  C_12
REMARK    8  A    between atoms: C_10  and  C_13
REMARK    9  A    between atoms: C_13  and  O_15
REMARK   10  A    between atoms: C_13  and  C_16
REMARK   11  A    between atoms: C_16  and  C_18
REMARK   12  A    between atoms: C_16  and  N_19
REMARK   13  A    between atoms: C_20  and  C_22
REMARK   14  A    between atoms: C_22  and  N_24
REMARK   15  A    between atoms: C_22  and  C_49
REMARK   16  A    between atoms: C_25  and  C_27
REMARK   17  A    between atoms: C_28  and  C_29
REMARK   18  A    between atoms: C_33  and  C_35
REMARK   19  A    between atoms: C_35  and  C_37
REMARK   20  A    between atoms: C_35  and  N_41
REMARK   21  A    between atoms: C_37  and  C_38
REMARK   22  A    between atoms: N_41  and  C_42
REMARK   23  A    between atoms: C_42  and  C_43
REMARK   24  A    between atoms: C_43  and  N_45
REMARK   25  A    between atoms: C_43  and  C_46
REMARK   26  A    between atoms: C_49  and  O_51
REMARK   27  A    between atoms: C_49  and  C_77
REMARK   28  A    between atoms: O_51  and  C_52
REMARK   29  A    between atoms: C_54  and  C_55
REMARK   30  A    between atoms: C_55  and  O_56
REMARK   31  A    between atoms: C_57  and  O_58
REMARK   32  A    between atoms: C_59  and  O_60
REMARK   33  A    between atoms: C_61  and  O_62
REMARK   34  A    between atoms: O_62  and  C_63
REMARK   35  A    between atoms: C_65  and  C_66
REMARK   36  A    between atoms: C_66  and  O_67
REMARK   37  A    between atoms: C_68  and  O_69
REMARK   38  A    between atoms: C_70  and  O_71
REMARK   39  A    between atoms: O_71  and  C_72
REMARK   40  A    between atoms: C_75  and  O_76
REMARK   41  A    between atoms: N_84  and  C_85
REMARK   42  A    between atoms: C_85  and  C_86
REMARK   43  A    between atoms: C_86  and  C_87
REMARK   44  A    between atoms: C_89  and  C_92
REMARK   45  A    between atoms: C_94  and  C_97
REMARK   46  A    between atoms: N_99  and  C_100
REMARK   47  A    between atoms: C_100  and  C_101
REMARK   48  A    between atoms: C_101  and  C_102
REMARK   49  A    between atoms: C_102  and  S_103
REMARK   50  A    between atoms: S_103  and  C_104
REMARK   51  A    between atoms: S_103  and  C_105
REMARK                            x       y       z     vdW  Elec       q    Type
REMARK                         _______ _______ _______ _____ _____    ______ ____
ROOT
ATOM      1  C   UNL     1       4.546  -2.252  25.371  0.00  0.00    +0.194 C 
ENDROOT
BRANCH   1   4
ATOM      2  N   UNL     1       2.581  -1.105  26.469  0.00  0.00    -0.309 N 
ATOM      3  H   UNL     1       2.014  -1.540  25.754  0.00  0.00    +0.149 HD
ATOM      4  C   UNL     1       3.909  -1.461  26.549  0.00  0.00    +0.237 C 
ATOM      5  O   UNL     1       4.547  -1.251  27.585  0.00  0.00    -0.274 OA
BRANCH   2   6
ATOM      6  C   UNL     1       1.887  -0.188  27.411  0.00  0.00    +0.099 C 
ATOM      7  C   UNL     1       0.448   0.075  26.945  0.00  0.00    +0.030 C 
BRANCH   6   8
ATOM      8  C   UNL     1       2.645   1.138  27.753  0.00  0.00    +0.146 C 
BRANCH   8   9
ATOM      9  O   UNL     1       3.783   0.873  28.583  0.00  0.00    -0.389 OA
ATOM     10  H   UNL     1       4.199   1.758  28.725  0.00  0.00    +0.210 HD
ENDBRANCH   8   9
BRANCH   8  11
ATOM     11  C   UNL     1       3.080   1.926  26.490  0.00  0.00    +0.102 C 
ATOM     12  C   UNL     1       4.578   2.045  26.196  0.00  0.00    +0.020 C 
BRANCH  11  15
ATOM     13  N   UNL     1       2.993   4.188  25.554  0.00  0.00    -0.302 N 
ATOM     14  H   UNL     1       3.922   3.977  25.188  0.00  0.00    +0.150 HD
ATOM     15  C   UNL     1       2.474   3.317  26.483  0.00  0.00    +0.219 C 
ATOM     16  O   UNL     1       1.558   3.618  27.243  0.00  0.00    -0.275 OA
BRANCH  13  17
ATOM     17  C   UNL     1       2.540   5.575  25.498  0.00  0.00    +0.187 C 
BRANCH  17  18
ATOM     18  C   UNL     1       3.238   6.334  26.643  0.00  0.00    +0.236 C 
ATOM     19  N   UNL     1       2.580   6.210  27.858  0.00  0.00    -0.313 N 
ATOM     20  H   UNL     1       1.692   5.720  27.883  0.00  0.00    +0.149 HD
ATOM     21  O   UNL     1       4.195   7.090  26.506  0.00  0.00    -0.274 OA
BRANCH  19  22
ATOM     22  C   UNL     1       3.053   6.887  29.051  0.00  0.00    +0.111 C 
BRANCH  22  23
ATOM     23  C   UNL     1       4.576   6.888  29.150  0.00  0.00    +0.081 C 
BRANCH  23  24
ATOM     24  C   UNL     1       5.107   5.489  29.195  0.00  0.00    +0.081 A 
ATOM     25  S   UNL     1       4.673   4.434  30.482  0.00  0.00    -0.080 S 
ATOM     26  C   UNL     1       5.630   3.199  29.781  0.00  0.00    +0.077 A 
ATOM     27  C   UNL     1       6.210   3.656  28.616  0.00  0.00    +0.103 A 
ATOM     28  N   UNL     1       5.922   4.978  28.295  0.00  0.00    -0.242 NA
BRANCH  27  29
ATOM     29  C   UNL     1       7.073   2.785  27.743  0.00  0.00    +0.128 A 
ATOM     30  S   UNL     1       7.412   1.148  28.148  0.00  0.00    -0.073 S 
ATOM     31  C   UNL     1       8.404   1.017  26.766  0.00  0.00    +0.080 A 
ATOM     32  C   UNL     1       8.422   2.218  26.082  0.00  0.00    +0.133 A 
ATOM     33  N   UNL     1       7.638   3.224  26.632  0.00  0.00    -0.233 NA
BRANCH  32  34
ATOM     34  C   UNL     1       9.230   2.408  24.880  0.00  0.00    +0.263 C 
ATOM     35  N   UNL     1       9.160   3.692  24.367  0.00  0.00    -0.310 N 
ATOM     36  H   UNL     1       8.529   4.340  24.815  0.00  0.00    +0.149 HD
ATOM     37  O   UNL     1       9.913   1.523  24.372  0.00  0.00    -0.269 OA
BRANCH  35  38
ATOM     38  C   UNL     1       9.870   4.081  23.164  0.00  0.00    +0.109 C 
BRANCH  38  39
ATOM     39  C   UNL     1      10.758   5.306  23.387  0.00  0.00    +0.073 C 
BRANCH  39  40
ATOM     40  C   UNL     1      11.210   5.505  24.831  0.00  0.00    +0.279 C 
BRANCH  40  41
ATOM     41  S   UNL     1      10.586   7.052  25.569  0.00  0.00    -0.016 S 
ATOM     42  C   UNL     1      11.726   7.097  26.973  0.00  0.00    +0.340 C 
ATOM     43  C   UNL     1       9.188   6.346  26.472  0.00  0.00    +0.340 C 
ENDBRANCH  40  41
ENDBRANCH  39  40
ENDBRANCH  38  39
ENDBRANCH  35  38
ENDBRANCH  32  34
ENDBRANCH  27  29
ENDBRANCH  23  24
ENDBRANCH  22  23
ENDBRANCH  19  22
ENDBRANCH  17  18
BRANCH  17  45
ATOM     44  C   UNL     1       0.443   7.105  25.280  0.00  0.00    +0.040 C 
ATOM     45  C   UNL     1       1.004   5.699  25.450  0.00  0.00    +0.141 C 
BRANCH  45  46
ATOM     46  O   UNL     1       0.480   4.841  24.432  0.00  0.00    -0.390 OA
ATOM     47  H   UNL     1       1.135   4.821  23.714  0.00  0.00    +0.210 HD
ENDBRANCH  45  46
ENDBRANCH  17  45
ENDBRANCH  13  17
ENDBRANCH  11  15
ENDBRANCH   8  11
ENDBRANCH   6   8
ENDBRANCH   2   6
ENDBRANCH   1   4
BRANCH   1  48
ATOM     48  N   UNL     1       5.042  -1.257  24.403  0.00  0.00    -0.296 N 
ATOM     49  H   UNL     1       4.437  -0.828  23.708  0.00  0.00    +0.150 HD
ATOM     50  C   UNL     1       6.348  -0.800  24.495  0.00  0.00    +0.263 C 
ATOM     51  O   UNL     1       7.145  -1.260  25.307  0.00  0.00    -0.268 OA
BRANCH  50  52
ATOM     52  C   UNL     1       6.764   0.294  23.559  0.00  0.00    +0.134 A 
ATOM     53  N   UNL     1       5.999   1.411  23.617  0.00  0.00    -0.225 NA
ATOM     54  C   UNL     1       6.212   2.328  22.663  0.00  0.00    +0.149 A 
ATOM     55  N   UNL     1       7.142   2.197  21.697  0.00  0.00    -0.216 NA
ATOM     56  C   UNL     1       7.892   1.086  21.684  0.00  0.00    +0.123 A 
ATOM     57  N   UNL     1       8.707   0.930  20.568  0.00  0.00    -0.343 N 
ATOM     58  H   UNL     1       8.664   1.775  20.006  0.00  0.00    +0.144 HD
ATOM     59  H   UNL     1       9.653   0.638  20.776  0.00  0.00    +0.144 HD
ATOM     60  C   UNL     1       7.782   0.092  22.639  0.00  0.00    +0.020 A 
ATOM     61  C   UNL     1       8.675  -1.108  22.618  0.00  0.00    +0.050 C 
BRANCH  54  62
ATOM     62  C   UNL     1       5.265   3.547  22.568  0.00  0.00    +0.131 C 
BRANCH  62  63
ATOM     63  N   UNL     1       3.846   3.097  22.721  0.00  0.00    -0.304 NA
ATOM     64  H   UNL     1       3.676   2.872  23.703  0.00  0.00    +0.123 HD
BRANCH  63  65
ATOM     65  C   UNL     1       2.826   4.031  22.220  0.00  0.00    +0.109 C 
BRANCH  65  66
ATOM     66  C   UNL     1       1.529   3.282  21.822  0.00  0.00    +0.151 C 
BRANCH  66  67
ATOM     67  C   UNL     1       1.670   2.686  20.413  0.00  0.00    +0.229 C 
ATOM     68  O   UNL     1       0.908   1.839  19.959  0.00  0.00    -0.274 OA
ATOM     69  N   UNL     1       2.690   3.202  19.664  0.00  0.00    -0.328 N 
ATOM     70  H   UNL     1       2.910   2.762  18.782  0.00  0.00    +0.145 HD
ATOM     71  H   UNL     1       3.388   3.764  20.140  0.00  0.00    +0.145 HD
ENDBRANCH  66  67
BRANCH  66  72
ATOM     72  N   UNL     1       1.198   2.201  22.792  0.00  0.00    -0.319 NA
ATOM     73  H   UNL     1       1.855   1.436  22.606  0.00  0.00    +0.119 HD
ATOM     74  H   UNL     1       1.413   2.538  23.731  0.00  0.00    +0.119 HD
ENDBRANCH  66  72
ENDBRANCH  65  66
ENDBRANCH  63  65
ENDBRANCH  62  63
BRANCH  62  75
ATOM     75  C   UNL     1       5.618   4.644  23.593  0.00  0.00    +0.122 C 
BRANCH  75  76
ATOM     76  C   UNL     1       6.506   5.761  23.076  0.00  0.00    +0.212 C 
ATOM     77  O   UNL     1       6.946   6.661  23.791  0.00  0.00    -0.276 OA
ATOM     78  N   UNL     1       6.739   5.789  21.735  0.00  0.00    -0.329 N 
ATOM     79  H   UNL     1       7.320   6.539  21.383  0.00  0.00    +0.145 HD
ATOM     80  H   UNL     1       6.527   5.030  21.103  0.00  0.00    +0.145 HD
ENDBRANCH  75  76
ENDBRANCH  62  75
ENDBRANCH  54  62
ENDBRANCH  50  52
ENDBRANCH   1  48
BRANCH   1  81
ATOM     81  C   UNL     1       5.598  -3.382  25.655  0.00  0.00    +0.198 C 
BRANCH  81  82
ATOM     82  C   UNL     1       5.460  -4.498  24.625  0.00  0.00    +0.067 A 
ATOM     83  N   UNL     1       4.734  -4.378  23.467  0.00  0.00    -0.346 N 
ATOM     84  H   UNL     1       4.249  -3.550  23.145  0.00  0.00    +0.167 HD
ATOM     85  C   UNL     1       4.831  -5.557  22.780  0.00  0.00    +0.196 A 
ATOM     86  N   UNL     1       5.583  -6.423  23.417  0.00  0.00    -0.244 NA
ATOM     87  C   UNL     1       6.014  -5.765  24.539  0.00  0.00    +0.136 A 
ENDBRANCH  81  82
BRANCH  81  88
ATOM     88  O   UNL     1       5.468  -4.117  26.880  0.00  0.00    -0.337 OA
BRANCH  88  89
ATOM     89  C   UNL     1       4.457  -5.117  26.926  0.00  0.00    +0.283 C 
ATOM     90  C   UNL     1       3.055  -4.560  27.340  0.00  0.00    +0.208 C 
ATOM     91  C   UNL     1       3.267  -3.949  28.741  0.00  0.00    +0.179 C 
ATOM     92  C   UNL     1       3.643  -5.063  29.737  0.00  0.00    +0.177 C 
ATOM     93  C   UNL     1       4.933  -5.750  29.230  0.00  0.00    +0.178 C 
ATOM     94  O   UNL     1       4.828  -6.138  27.848  0.00  0.00    -0.340 OA
BRANCH  92  95
ATOM     95  O   UNL     1       2.598  -6.038  29.845  0.00  0.00    -0.386 OA
ATOM     96  H   UNL     1       2.265  -5.990  30.765  0.00  0.00    +0.210 HD
ENDBRANCH  92  95
BRANCH  91  97
ATOM     97  O   UNL     1       2.220  -3.071  29.157  0.00  0.00    -0.386 OA
ATOM     98  H   UNL     1       1.738  -2.700  28.406  0.00  0.00    +0.210 HD
ENDBRANCH  91  97
BRANCH  90  99
ATOM     99  O   UNL     1       2.130  -5.689  27.279  0.00  0.00    -0.338 OA
BRANCH  99 100
ATOM    100  C   UNL     1       2.669  -6.950  26.871  0.00  0.00    +0.283 C 
ATOM    101  C   UNL     1       2.329  -7.259  25.393  0.00  0.00    +0.213 C 
ATOM    102  C   UNL     1       0.842  -7.595  25.295  0.00  0.00    +0.242 C 
ATOM    103  C   UNL     1       0.504  -8.745  26.268  0.00  0.00    +0.189 C 
ATOM    104  C   UNL     1       0.859  -8.266  27.686  0.00  0.00    +0.179 C 
ATOM    105  O   UNL     1       2.269  -7.987  27.761  0.00  0.00    -0.340 OA
BRANCH 103 106
ATOM    106  O   UNL     1       1.258  -9.920  25.904  0.00  0.00    -0.385 OA
ATOM    107  H   UNL     1       2.209  -9.706  25.926  0.00  0.00    +0.210 HD
ENDBRANCH 103 106
BRANCH 101 108
ATOM    108  O   UNL     1       3.164  -8.334  24.917  0.00  0.00    -0.383 OA
ATOM    109  H   UNL     1       2.615  -8.902  24.340  0.00  0.00    +0.210 HD
ENDBRANCH 101 108
BRANCH 104 110
ATOM    110  C   UNL     1       0.587  -9.286  28.788  0.00  0.00    +0.190 C 
BRANCH 110 111
ATOM    111  O   UNL     1       1.685  -9.267  29.707  0.00  0.00    -0.392 OA
ATOM    112  H   UNL     1       1.775  -8.336  29.994  0.00  0.00    +0.210 HD
ENDBRANCH 110 111
ENDBRANCH 104 110
BRANCH 102 113
ATOM    113  O   UNL     1       0.517  -7.917  23.930  0.00  0.00    -0.442 OA
BRANCH 113 114
ATOM    114  C   UNL     1       1.269  -7.260  23.016  0.00  0.00    +0.398 C 
ATOM    115  O   UNL     1       1.689  -6.118  23.129  0.00  0.00    -0.227 OA
ATOM    116  N   UNL     1       1.520  -8.047  21.952  0.00  0.00    -0.295 N 
ATOM    117  H   UNL     1       2.088  -7.686  21.201  0.00  0.00    +0.148 HD
ATOM    118  H   UNL     1       1.199  -9.003  21.935  0.00  0.00    +0.148 HD
ENDBRANCH 113 114
ENDBRANCH 102 113
ENDBRANCH  99 100
ENDBRANCH  90  99
BRANCH  93 119
ATOM    119  C   UNL     1       5.247  -7.030  30.027  0.00  0.00    +0.190 C 
BRANCH 119 120
ATOM    120  O   UNL     1       6.509  -7.584  29.693  0.00  0.00    -0.392 OA
ATOM    121  H   UNL     1       6.358  -8.483  29.363  0.00  0.00    +0.210 HD
ENDBRANCH 119 120
ENDBRANCH  93 119
ENDBRANCH  88  89
ENDBRANCH  81  88
ENDBRANCH   1  81
TORSDOF 45
ENDMDL
MODEL 2
REMARK VINA RESULT:      -1.9      2.675      7.293
REMARK  Name = 
REMARK  51 active torsions:
REMARK  status: ('A' for Active; 'I' for Inactive)
REMARK    1  A    between atoms: C_1  and  C_2
REMARK    2  A    between atoms: C_2  and  O_4
REMARK    3  A    between atoms: C_2  and  C_5
REMARK    4  A    between atoms: C_5  and  N_7
REMARK    5  A    between atoms: C_5  and  C_82
REMARK    6  A    between atoms: C_8  and  C_10
REMARK    7  A    between atoms: C_10  and  C_12
REMARK    8  A    between atoms: C_10  and  C_13
REMARK    9  A    between atoms: C_13  and  O_15
REMARK   10  A    between atoms: C_13  and  C_16
REMARK   11  A    between atoms: C_16  and  C_18
REMARK   12  A    between atoms: C_16  and  N_19
REMARK   13  A    between atoms: C_20  and  C_22
REMARK   14  A    between atoms: C_22  and  N_24
REMARK   15  A    between atoms: C_22  and  C_49
REMARK   16  A    between atoms: C_25  and  C_27
REMARK   17  A    between atoms: C_28  and  C_29
REMARK   18  A    between atoms: C_33  and  C_35
REMARK   19  A    between atoms: C_35  and  C_37
REMARK   20  A    between atoms: C_35  and  N_41
REMARK   21  A    between atoms: C_37  and  C_38
REMARK   22  A    between atoms: N_41  and  C_42
REMARK   23  A    between atoms: C_42  and  C_43
REMARK   24  A    between atoms: C_43  and  N_45
REMARK   25  A    between atoms: C_43  and  C_46
REMARK   26  A    between atoms: C_49  and  O_51
REMARK   27  A    between atoms: C_49  and  C_77
REMARK   28  A    between atoms: O_51  and  C_52
REMARK   29  A    between atoms: C_54  and  C_55
REMARK   30  A    between atoms: C_55  and  O_56
REMARK   31  A    between atoms: C_57  and  O_58
REMARK   32  A    between atoms: C_59  and  O_60
REMARK   33  A    between atoms: C_61  and  O_62
REMARK   34  A    between atoms: O_62  and  C_63
REMARK   35  A    between atoms: C_65  and  C_66
REMARK   36  A    between atoms: C_66  and  O_67
REMARK   37  A    between atoms: C_68  and  O_69
REMARK   38  A    between atoms: C_70  and  O_71
REMARK   39  A    between atoms: O_71  and  C_72
REMARK   40  A    between atoms: C_75  and  O_76
REMARK   41  A    between atoms: N_84  and  C_85
REMARK   42  A    between atoms: C_85  and  C_86
REMARK   43  A    between atoms: C_86  and  C_87
REMARK   44  A    between atoms: C_89  and  C_92
REMARK   45  A    between atoms: C_94  and  C_97
REMARK   46  A    between atoms: N_99  and  C_100
REMARK   47  A    between atoms: C_100  and  C_101
REMARK   48  A    between atoms: C_101  and  C_102
REMARK   49  A    between atoms: C_102  and  S_103
REMARK   50  A    between atoms: S_103  and  C_104
REMARK   51  A    between atoms: S_103  and  C_105
REMARK                            x       y       z     vdW  Elec       q    Type
REMARK                         _______ _______ _______ _____ _____    ______ ____
ROOT
ATOM      1  C   UNL     1       7.610  -0.033  24.633  0.00  0.00    +0.194 C 
ENDROOT
BRANCH   1   4
ATOM      2  N   UNL     1       5.521  -0.717  25.879  0.00  0.00    -0.309 N 
ATOM      3  H   UNL     1       5.466  -1.488  25.227  0.00  0.00    +0.149 HD
ATOM      4  C   UNL     1       6.644   0.079  25.847  0.00  0.00    +0.237 C 
ATOM      5  O   UNL     1       6.931   0.787  26.818  0.00  0.00    -0.274 OA
BRANCH   2   6
ATOM      6  C   UNL     1       4.413  -0.588  26.860  0.00  0.00    +0.099 C 
ATOM      7  C   UNL     1       3.080  -0.337  26.138  0.00  0.00    +0.030 C 
BRANCH   6   8
ATOM      8  C   UNL     1       4.649   0.430  28.025  0.00  0.00    +0.146 C 
BRANCH   8   9
ATOM      9  O   UNL     1       3.783   1.563  27.893  0.00  0.00    -0.389 OA
ATOM     10  H   UNL     1       3.207   1.532  28.696  0.00  0.00    +0.210 HD
ENDBRANCH   8   9
BRANCH   8  11
ATOM     11  C   UNL     1       4.479  -0.209  29.427  0.00  0.00    +0.102 C 
ATOM     12  C   UNL     1       5.671  -0.169  30.387  0.00  0.00    +0.020 C 
BRANCH  11  15
ATOM     13  N   UNL     1       4.883  -2.525  28.739  0.00  0.00    -0.302 N 
ATOM     14  H   UNL     1       5.615  -2.130  28.148  0.00  0.00    +0.150 HD
ATOM     15  C   UNL     1       3.998  -1.644  29.315  0.00  0.00    +0.219 C 
ATOM     16  O   UNL     1       2.899  -1.985  29.745  0.00  0.00    -0.275 OA
BRANCH  13  17
ATOM     17  C   UNL     1       4.507  -3.919  28.512  0.00  0.00    +0.187 C 
BRANCH  17  18
ATOM     18  C   UNL     1       2.969  -3.997  28.578  0.00  0.00    +0.236 C 
ATOM     19  N   UNL     1       2.356  -3.653  27.382  0.00  0.00    -0.313 N 
ATOM     20  H   UNL     1       2.932  -3.317  26.618  0.00  0.00    +0.149 HD
ATOM     21  O   UNL     1       2.319  -4.200  29.598  0.00  0.00    -0.274 OA
BRANCH  19  22
ATOM     22  C   UNL     1       0.911  -3.620  27.251  0.00  0.00    +0.111 C 
BRANCH  22  23
ATOM     23  C   UNL     1       0.444  -2.553  26.264  0.00  0.00    +0.081 C 
BRANCH  23  24
ATOM     24  C   UNL     1       0.449  -1.200  26.902  0.00  0.00    +0.081 A 
ATOM     25  S   UNL     1       0.446  -1.045  28.616  0.00  0.00    -0.080 S 
ATOM     26  C   UNL     1       0.457   0.661  28.452  0.00  0.00    +0.077 A 
ATOM     27  C   UNL     1       0.472   1.006  27.117  0.00  0.00    +0.103 A 
ATOM     28  N   UNL     1       0.447  -0.066  26.232  0.00  0.00    -0.242 NA
BRANCH  27  29
ATOM     29  C   UNL     1       0.532   2.436  26.650  0.00  0.00    +0.128 A 
ATOM     30  S   UNL     1       0.614   2.842  24.980  0.00  0.00    -0.073 S 
ATOM     31  C   UNL     1       0.706   4.495  25.392  0.00  0.00    +0.080 A 
ATOM     32  C   UNL     1       0.672   4.642  26.766  0.00  0.00    +0.133 A 
ATOM     33  N   UNL     1       0.547   3.460  27.485  0.00  0.00    -0.233 NA
BRANCH  32  34
ATOM     34  C   UNL     1       0.781   5.952  27.403  0.00  0.00    +0.263 C 
ATOM     35  N   UNL     1       0.767   5.893  28.786  0.00  0.00    -0.310 N 
ATOM     36  H   UNL     1       0.621   4.991  29.214  0.00  0.00    +0.149 HD
ATOM     37  O   UNL     1       0.885   7.005  26.781  0.00  0.00    -0.269 OA
BRANCH  35  38
ATOM     38  C   UNL     1       0.842   7.085  29.608  0.00  0.00    +0.109 C 
BRANCH  38  39
ATOM     39  C   UNL     1       2.096   7.107  30.484  0.00  0.00    +0.073 C 
BRANCH  39  40
ATOM     40  C   UNL     1       2.910   5.816  30.455  0.00  0.00    +0.279 C 
BRANCH  40  41
ATOM     41  S   UNL     1       4.621   6.062  29.875  0.00  0.00    -0.016 S 
ATOM     42  C   UNL     1       4.224   6.305  28.128  0.00  0.00    +0.340 C 
ATOM     43  C   UNL     1       5.084   4.320  29.733  0.00  0.00    +0.340 C 
ENDBRANCH  40  41
ENDBRANCH  39  40
ENDBRANCH  38  39
ENDBRANCH  35  38
ENDBRANCH  32  34
ENDBRANCH  27  29
ENDBRANCH  23  24
ENDBRANCH  22  23
ENDBRANCH  19  22
ENDBRANCH  17  18
BRANCH  17  45
ATOM     44  C   UNL     1       4.663  -6.288  29.584  0.00  0.00    +0.040 C 
ATOM     45  C   UNL     1       5.267  -4.898  29.429  0.00  0.00    +0.141 C 
BRANCH  45  46
ATOM     46  O   UNL     1       6.629  -5.004  29.001  0.00  0.00    -0.390 OA
ATOM     47  H   UNL     1       6.811  -5.951  28.871  0.00  0.00    +0.210 HD
ENDBRANCH  45  46
ENDBRANCH  17  45
ENDBRANCH  13  17
ENDBRANCH  11  15
ENDBRANCH   8  11
ENDBRANCH   6   8
ENDBRANCH   2   6
ENDBRANCH   1   4
BRANCH   1  48
ATOM     48  N   UNL     1       7.786   1.328  24.095  0.00  0.00    -0.296 N 
ATOM     49  H   UNL     1       8.690   1.679  23.793  0.00  0.00    +0.150 HD
ATOM     50  C   UNL     1       6.676   2.133  23.887  0.00  0.00    +0.263 C 
ATOM     51  O   UNL     1       5.547   1.787  24.218  0.00  0.00    -0.268 OA
BRANCH  50  52
ATOM     52  C   UNL     1       6.901   3.462  23.232  0.00  0.00    +0.134 A 
ATOM     53  N   UNL     1       8.168   3.935  23.330  0.00  0.00    -0.225 NA
ATOM     54  C   UNL     1       8.362   5.201  22.935  0.00  0.00    +0.149 A 
ATOM     55  N   UNL     1       7.386   5.985  22.438  0.00  0.00    -0.216 NA
ATOM     56  C   UNL     1       6.150   5.475  22.338  0.00  0.00    +0.123 A 
ATOM     57  N   UNL     1       5.157   6.383  21.985  0.00  0.00    -0.343 N 
ATOM     58  H   UNL     1       5.590   7.271  21.750  0.00  0.00    +0.144 HD
ATOM     59  H   UNL     1       4.517   6.051  21.276  0.00  0.00    +0.144 HD
ATOM     60  C   UNL     1       5.844   4.171  22.684  0.00  0.00    +0.020 A 
ATOM     61  C   UNL     1       4.462   3.626  22.507  0.00  0.00    +0.050 C 
BRANCH  54  62
ATOM     62  C   UNL     1       9.741   5.859  23.175  0.00  0.00    +0.131 C 
BRANCH  62  63
ATOM     63  N   UNL     1       9.619   6.920  24.223  0.00  0.00    -0.304 NA
ATOM     64  H   UNL     1       8.658   7.269  24.229  0.00  0.00    +0.123 HD
BRANCH  63  65
ATOM     65  C   UNL     1      10.036   6.526  25.578  0.00  0.00    +0.109 C 
BRANCH  65  66
ATOM     66  C   UNL     1       9.042   7.053  26.644  0.00  0.00    +0.151 C 
BRANCH  66  67
ATOM     67  C   UNL     1       7.785   6.172  26.680  0.00  0.00    +0.229 C 
ATOM     68  O   UNL     1       7.596   5.300  27.521  0.00  0.00    -0.274 OA
ATOM     69  N   UNL     1       6.848   6.457  25.727  0.00  0.00    -0.328 N 
ATOM     70  H   UNL     1       6.062   5.832  25.622  0.00  0.00    +0.145 HD
ATOM     71  H   UNL     1       7.124   7.060  24.959  0.00  0.00    +0.145 HD
ENDBRANCH  66  67
BRANCH  66  72
ATOM     72  N   UNL     1       9.661   7.099  27.998  0.00  0.00    -0.319 NA
ATOM     73  H   UNL     1       9.347   6.254  28.487  0.00  0.00    +0.119 HD
ATOM     74  H   UNL     1      10.671   7.007  27.891  0.00  0.00    +0.119 HD
ENDBRANCH  66  72
ENDBRANCH  65  66
ENDBRANCH  63  65
ENDBRANCH  62  63
BRANCH  62  75
ATOM     75  C   UNL     1      10.825   4.828  23.546  0.00  0.00    +0.122 C 
BRANCH  75  76
ATOM     76  C   UNL     1      12.244   5.201  23.155  0.00  0.00    +0.212 C 
ATOM     77  O   UNL     1      13.152   5.353  23.972  0.00  0.00    -0.276 OA
ATOM     78  N   UNL     1      12.470   5.457  21.837  0.00  0.00    -0.329 N 
ATOM     79  H   UNL     1      13.412   5.718  21.573  0.00  0.00    +0.145 HD
ATOM     80  H   UNL     1      11.824   5.235  21.094  0.00  0.00    +0.145 HD
ENDBRANCH  75  76
ENDBRANCH  62  75
ENDBRANCH  54  62
ENDBRANCH  50  52
ENDBRANCH   1  48
BRANCH   1  81
ATOM     81  C   UNL     1       8.974  -0.797  24.777  0.00  0.00    +0.198 C 
BRANCH  81  82
ATOM     82  C   UNL     1      10.131   0.116  24.386  0.00  0.00    +0.067 A 
ATOM     83  N   UNL     1      11.115   0.512  25.257  0.00  0.00    -0.346 N 
ATOM     84  H   UNL     1      11.214   0.226  26.222  0.00  0.00    +0.167 HD
ATOM     85  C   UNL     1      11.987   1.315  24.574  0.00  0.00    +0.196 A 
ATOM     86  N   UNL     1      11.634   1.451  23.319  0.00  0.00    -0.244 NA
ATOM     87  C   UNL     1      10.511   0.679  23.178  0.00  0.00    +0.136 A 
ENDBRANCH  81  82
BRANCH  81  88
ATOM     88  O   UNL     1       9.200  -1.919  23.912  0.00  0.00    -0.337 OA
BRANCH  88  89
ATOM     89  C   UNL     1       8.244  -2.971  23.961  0.00  0.00    +0.283 C 
ATOM     90  C   UNL     1       7.312  -2.900  25.216  0.00  0.00    +0.208 C 
ATOM     91  C   UNL     1       8.266  -2.986  26.426  0.00  0.00    +0.179 C 
ATOM     92  C   UNL     1       8.963  -4.361  26.435  0.00  0.00    +0.177 C 
ATOM     93  C   UNL     1       9.737  -4.520  25.106  0.00  0.00    +0.178 C 
ATOM     94  O   UNL     1       8.909  -4.231  23.964  0.00  0.00    -0.340 OA
BRANCH  92  95
ATOM     95  O   UNL     1       8.010  -5.426  26.558  0.00  0.00    -0.386 OA
ATOM     96  H   UNL     1       8.449  -6.134  27.073  0.00  0.00    +0.210 HD
ENDBRANCH  92  95
BRANCH  91  97
ATOM     97  O   UNL     1       7.675  -2.581  27.662  0.00  0.00    -0.386 OA
ATOM     98  H   UNL     1       6.724  -2.750  27.681  0.00  0.00    +0.210 HD
ENDBRANCH  91  97
BRANCH  90  99
ATOM     99  O   UNL     1       6.361  -4.001  25.084  0.00  0.00    -0.338 OA
BRANCH  99 100
ATOM    100  C   UNL     1       5.351  -3.870  24.079  0.00  0.00    +0.283 C 
ATOM    101  C   UNL     1       4.027  -4.542  24.517  0.00  0.00    +0.213 C 
ATOM    102  C   UNL     1       4.211  -6.058  24.472  0.00  0.00    +0.242 C 
ATOM    103  C   UNL     1       4.692  -6.481  23.067  0.00  0.00    +0.189 C 
ATOM    104  C   UNL     1       6.028  -5.764  22.804  0.00  0.00    +0.179 C 
ATOM    105  O   UNL     1       5.822  -4.340  22.820  0.00  0.00    -0.340 OA
BRANCH 103 106
ATOM    106  O   UNL     1       3.696  -6.117  22.088  0.00  0.00    -0.385 OA
ATOM    107  H   UNL     1       3.658  -6.808  21.402  0.00  0.00    +0.210 HD
ENDBRANCH 103 106
BRANCH 101 108
ATOM    108  O   UNL     1       2.952  -4.096  23.665  0.00  0.00    -0.383 OA
ATOM    109  H   UNL     1       3.241  -3.266  23.235  0.00  0.00    +0.210 HD
ENDBRANCH 101 108
BRANCH 104 110
ATOM    110  C   UNL     1       6.656  -6.070  21.447  0.00  0.00    +0.190 C 
BRANCH 110 111
ATOM    111  O   UNL     1       5.605  -6.299  20.501  0.00  0.00    -0.392 OA
ATOM    112  H   UNL     1       5.863  -7.103  20.007  0.00  0.00    +0.210 HD
ENDBRANCH 110 111
ENDBRANCH 104 110
BRANCH 102 113
ATOM    113  O   UNL     1       2.976  -6.697  24.844  0.00  0.00    -0.442 OA
BRANCH 113 114
ATOM    114  C   UNL     1       2.909  -7.044  26.151  0.00  0.00    +0.398 C 
ATOM    115  O   UNL     1       3.846  -7.047  26.936  0.00  0.00    -0.227 OA
ATOM    116  N   UNL     1       1.649  -7.376  26.492  0.00  0.00    -0.295 N 
ATOM    117  H   UNL     1       1.454  -7.639  27.445  0.00  0.00    +0.148 HD
ATOM    118  H   UNL     1       0.900  -7.301  25.819  0.00  0.00    +0.148 HD
ENDBRANCH 113 114
ENDBRANCH 102 113
ENDBRANCH  99 100
ENDBRANCH  90  99
BRANCH  93 119
ATOM    119  C   UNL     1      10.262  -5.956  24.920  0.00  0.00    +0.190 C 
BRANCH 119 120
ATOM    120  O   UNL     1       9.355  -6.779  24.206  0.00  0.00    -0.392 OA
ATOM    121  H   UNL     1       9.428  -7.678  24.564  0.00  0.00    +0.210 HD
ENDBRANCH 119 120
ENDBRANCH  93 119
ENDBRANCH  88  89
ENDBRANCH  81  88
ENDBRANCH   1  81
TORSDOF 45
ENDMDL
MODEL 3
REMARK VINA RESULT:      -1.5      2.641      9.687
REMARK  Name = 
REMARK  51 active torsions:
REMARK  status: ('A' for Active; 'I' for Inactive)
REMARK    1  A    between atoms: C_1  and  C_2
REMARK    2  A    between atoms: C_2  and  O_4
REMARK    3  A    between atoms: C_2  and  C_5
REMARK    4  A    between atoms: C_5  and  N_7
REMARK    5  A    between atoms: C_5  and  C_82
REMARK    6  A    between atoms: C_8  and  C_10
REMARK    7  A    between atoms: C_10  and  C_12
REMARK    8  A    between atoms: C_10  and  C_13
REMARK    9  A    between atoms: C_13  and  O_15
REMARK   10  A    between atoms: C_13  and  C_16
REMARK   11  A    between atoms: C_16  and  C_18
REMARK   12  A    between atoms: C_16  and  N_19
REMARK   13  A    between atoms: C_20  and  C_22
REMARK   14  A    between atoms: C_22  and  N_24
REMARK   15  A    between atoms: C_22  and  C_49
REMARK   16  A    between atoms: C_25  and  C_27
REMARK   17  A    between atoms: C_28  and  C_29
REMARK   18  A    between atoms: C_33  and  C_35
REMARK   19  A    between atoms: C_35  and  C_37
REMARK   20  A    between atoms: C_35  and  N_41
REMARK   21  A    between atoms: C_37  and  C_38
REMARK   22  A    between atoms: N_41  and  C_42
REMARK   23  A    between atoms: C_42  and  C_43
REMARK   24  A    between atoms: C_43  and  N_45
REMARK   25  A    between atoms: C_43  and  C_46
REMARK   26  A    between atoms: C_49  and  O_51
REMARK   27  A    between atoms: C_49  and  C_77
REMARK   28  A    between atoms: O_51  and  C_52
REMARK   29  A    between atoms: C_54  and  C_55
REMARK   30  A    between atoms: C_55  and  O_56
REMARK   31  A    between atoms: C_57  and  O_58
REMARK   32  A    between atoms: C_59  and  O_60
REMARK   33  A    between atoms: C_61  and  O_62
REMARK   34  A    between atoms: O_62  and  C_63
REMARK   35  A    between atoms: C_65  and  C_66
REMARK   36  A    between atoms: C_66  and  O_67
REMARK   37  A    between atoms: C_68  and  O_69
REMARK   38  A    between atoms: C_70  and  O_71
REMARK   39  A    between atoms: O_71  and  C_72
REMARK   40  A    between atoms: C_75  and  O_76
REMARK   41  A    between atoms: N_84  and  C_85
REMARK   42  A    between atoms: C_85  and  C_86
REMARK   43  A    between atoms: C_86  and  C_87
REMARK   44  A    between atoms: C_89  and  C_92
REMARK   45  A    between atoms: C_94  and  C_97
REMARK   46  A    between atoms: N_99  and  C_100
REMARK   47  A    between atoms: C_100  and  C_101
REMARK   48  A    between atoms: C_101  and  C_102
REMARK   49  A    between atoms: C_102  and  S_103
REMARK   50  A    between atoms: S_103  and  C_104
REMARK   51  A    between atoms: S_103  and  C_105
REMARK                            x       y       z     vdW  Elec       q    Type
REMARK                         _______ _______ _______ _____ _____    ______ ____
ROOT
ATOM      1  C   UNL     1       6.097   0.646  24.325  0.00  0.00    +0.194 C 
ENDROOT
BRANCH   1   4
ATOM      2  N   UNL     1       5.867  -1.853  24.034  0.00  0.00    -0.309 N 
ATOM      3  H   UNL     1       5.221  -1.816  24.810  0.00  0.00    +0.149 HD
ATOM      4  C   UNL     1       6.327  -0.662  23.516  0.00  0.00    +0.237 C 
ATOM      5  O   UNL     1       6.813  -0.625  22.382  0.00  0.00    -0.274 OA
BRANCH   2   6
ATOM      6  C   UNL     1       6.180  -3.197  23.483  0.00  0.00    +0.099 C 
ATOM      7  C   UNL     1       5.431  -3.427  22.162  0.00  0.00    +0.030 C 
BRANCH   6   8
ATOM      8  C   UNL     1       6.003  -4.397  24.473  0.00  0.00    +0.146 C 
BRANCH   8   9
ATOM      9  O   UNL     1       7.220  -4.651  25.186  0.00  0.00    -0.389 OA
ATOM     10  H   UNL     1       7.199  -4.022  25.947  0.00  0.00    +0.210 HD
ENDBRANCH   8   9
BRANCH   8  11
ATOM     11  C   UNL     1       4.836  -4.184  25.473  0.00  0.00    +0.102 C 
ATOM     12  C   UNL     1       5.181  -3.997  26.953  0.00  0.00    +0.020 C 
BRANCH  11  15
ATOM     13  N   UNL     1       2.511  -4.938  25.633  0.00  0.00    -0.302 N 
ATOM     14  H   UNL     1       2.371  -4.101  26.200  0.00  0.00    +0.150 HD
ATOM     15  C   UNL     1       3.809  -5.295  25.353  0.00  0.00    +0.219 C 
ATOM     16  O   UNL     1       4.131  -6.426  24.997  0.00  0.00    -0.275 OA
BRANCH  13  17
ATOM     17  C   UNL     1       1.444  -5.936  25.620  0.00  0.00    +0.187 C 
BRANCH  17  18
ATOM     18  C   UNL     1       1.834  -7.039  26.623  0.00  0.00    +0.236 C 
ATOM     19  N   UNL     1       2.533  -6.554  27.720  0.00  0.00    -0.313 N 
ATOM     20  H   UNL     1       2.790  -5.574  27.739  0.00  0.00    +0.149 HD
ATOM     21  O   UNL     1       1.684  -8.242  26.439  0.00  0.00    -0.274 OA
BRANCH  19  22
ATOM     22  C   UNL     1       3.029  -7.440  28.757  0.00  0.00    +0.111 C 
BRANCH  22  23
ATOM     23  C   UNL     1       2.746  -6.906  30.158  0.00  0.00    +0.081 C 
BRANCH  23  24
ATOM     24  C   UNL     1       3.120  -5.460  30.261  0.00  0.00    +0.081 A 
ATOM     25  S   UNL     1       4.767  -4.996  30.431  0.00  0.00    -0.080 S 
ATOM     26  C   UNL     1       4.291  -3.351  30.464  0.00  0.00    +0.077 A 
ATOM     27  C   UNL     1       2.921  -3.254  30.336  0.00  0.00    +0.103 A 
ATOM     28  N   UNL     1       2.253  -4.469  30.240  0.00  0.00    -0.242 NA
BRANCH  27  29
ATOM     29  C   UNL     1       2.203  -1.932  30.282  0.00  0.00    +0.128 A 
ATOM     30  S   UNL     1       0.497  -1.834  30.087  0.00  0.00    -0.073 S 
ATOM     31  C   UNL     1       0.601  -0.131  30.074  0.00  0.00    +0.080 A 
ATOM     32  C   UNL     1       1.919   0.262  30.214  0.00  0.00    +0.133 A 
ATOM     33  N   UNL     1       2.834  -0.773  30.358  0.00  0.00    -0.233 NA
BRANCH  32  34
ATOM     34  C   UNL     1       2.309   1.670  30.190  0.00  0.00    +0.263 C 
ATOM     35  N   UNL     1       3.621   1.869  29.797  0.00  0.00    -0.310 N 
ATOM     36  H   UNL     1       4.190   1.052  29.631  0.00  0.00    +0.149 HD
ATOM     37  O   UNL     1       1.552   2.591  30.480  0.00  0.00    -0.269 OA
BRANCH  35  38
ATOM     38  C   UNL     1       4.212   3.192  29.729  0.00  0.00    +0.109 C 
BRANCH  38  39
ATOM     39  C   UNL     1       5.679   3.149  29.297  0.00  0.00    +0.073 C 
BRANCH  39  40
ATOM     40  C   UNL     1       6.319   1.765  29.366  0.00  0.00    +0.279 C 
BRANCH  40  41
ATOM     41  S   UNL     1       6.353   0.911  27.755  0.00  0.00    -0.016 S 
ATOM     42  C   UNL     1       5.638  -0.650  28.323  0.00  0.00    +0.340 C 
ATOM     43  C   UNL     1       8.076   0.369  27.802  0.00  0.00    +0.340 C 
ENDBRANCH  40  41
ENDBRANCH  39  40
ENDBRANCH  38  39
ENDBRANCH  35  38
ENDBRANCH  32  34
ENDBRANCH  27  29
ENDBRANCH  23  24
ENDBRANCH  22  23
ENDBRANCH  19  22
ENDBRANCH  17  18
BRANCH  17  45
ATOM     44  C   UNL     1       1.400  -5.449  23.062  0.00  0.00    +0.040 C 
ATOM     45  C   UNL     1       1.095  -6.417  24.198  0.00  0.00    +0.141 C 
BRANCH  45  46
ATOM     46  O   UNL     1       1.725  -7.678  23.944  0.00  0.00    -0.390 OA
ATOM     47  H   UNL     1       1.298  -8.053  23.155  0.00  0.00    +0.210 HD
ENDBRANCH  45  46
ENDBRANCH  17  45
ENDBRANCH  13  17
ENDBRANCH  11  15
ENDBRANCH   8  11
ENDBRANCH   6   8
ENDBRANCH   2   6
ENDBRANCH   1   4
BRANCH   1  48
ATOM     48  N   UNL     1       7.423   1.239  24.573  0.00  0.00    -0.296 N 
ATOM     49  H   UNL     1       7.752   1.458  25.509  0.00  0.00    +0.150 HD
ATOM     50  C   UNL     1       8.307   1.411  23.519  0.00  0.00    +0.263 C 
ATOM     51  O   UNL     1       7.994   1.168  22.358  0.00  0.00    -0.268 OA
BRANCH  50  52
ATOM     52  C   UNL     1       9.682   1.910  23.846  0.00  0.00    +0.134 A 
ATOM     53  N   UNL     1       9.805   3.260  23.867  0.00  0.00    -0.225 NA
ATOM     54  C   UNL     1      11.052   3.742  23.956  0.00  0.00    +0.149 A 
ATOM     55  N   UNL     1      12.148   2.963  24.048  0.00  0.00    -0.216 NA
ATOM     56  C   UNL     1      11.984   1.633  24.044  0.00  0.00    +0.123 A 
ATOM     57  N   UNL     1      13.156   0.888  23.965  0.00  0.00    -0.343 N 
ATOM     58  H   UNL     1      13.951   1.515  24.043  0.00  0.00    +0.144 HD
ATOM     59  H   UNL     1      13.201   0.105  24.604  0.00  0.00    +0.144 HD
ATOM     60  C   UNL     1      10.741   1.028  23.990  0.00  0.00    +0.020 A 
ATOM     61  C   UNL     1      10.600  -0.461  24.040  0.00  0.00    +0.050 C 
BRANCH  54  62
ATOM     62  C   UNL     1      11.280   5.265  23.817  0.00  0.00    +0.131 C 
BRANCH  62  63
ATOM     63  N   UNL     1      10.762   5.967  25.033  0.00  0.00    -0.304 NA
ATOM     64  H   UNL     1      11.482   6.605  25.377  0.00  0.00    +0.123 HD
BRANCH  63  65
ATOM     65  C   UNL     1       9.482   6.672  24.862  0.00  0.00    +0.109 C 
BRANCH  65  66
ATOM     66  C   UNL     1       8.754   6.845  26.220  0.00  0.00    +0.151 C 
BRANCH  66  67
ATOM     67  C   UNL     1       7.791   5.673  26.459  0.00  0.00    +0.229 C 
ATOM     68  O   UNL     1       6.663   5.810  26.921  0.00  0.00    -0.274 OA
ATOM     69  N   UNL     1       8.258   4.449  26.074  0.00  0.00    -0.328 N 
ATOM     70  H   UNL     1       7.724   3.629  26.322  0.00  0.00    +0.145 HD
ATOM     71  H   UNL     1       9.248   4.366  25.863  0.00  0.00    +0.145 HD
ENDBRANCH  66  67
BRANCH  66  72
ATOM     72  N   UNL     1       9.717   6.942  27.353  0.00  0.00    -0.319 NA
ATOM     73  H   UNL     1       9.165   7.194  28.179  0.00  0.00    +0.119 HD
ATOM     74  H   UNL     1      10.090   6.010  27.534  0.00  0.00    +0.119 HD
ENDBRANCH  66  72
ENDBRANCH  65  66
ENDBRANCH  63  65
ENDBRANCH  62  63
BRANCH  62  75
ATOM     75  C   UNL     1      12.759   5.615  23.557  0.00  0.00    +0.122 C 
BRANCH  75  76
ATOM     76  C   UNL     1      13.248   5.377  22.140  0.00  0.00    +0.212 C 
ATOM     77  O   UNL     1      14.266   5.895  21.680  0.00  0.00    -0.276 OA
ATOM     78  N   UNL     1      12.455   4.617  21.336  0.00  0.00    -0.329 N 
ATOM     79  H   UNL     1      12.769   4.466  20.386  0.00  0.00    +0.145 HD
ATOM     80  H   UNL     1      11.681   4.057  21.664  0.00  0.00    +0.145 HD
ENDBRANCH  75  76
ENDBRANCH  62  75
ENDBRANCH  54  62
ENDBRANCH  50  52
ENDBRANCH   1  48
BRANCH   1  81
ATOM     81  C   UNL     1       5.053   1.709  23.828  0.00  0.00    +0.198 C 
BRANCH  81  82
ATOM     82  C   UNL     1       5.771   2.870  23.149  0.00  0.00    +0.067 A 
ATOM     83  N   UNL     1       6.451   3.847  23.831  0.00  0.00    -0.346 N 
ATOM     84  H   UNL     1       6.590   3.896  24.832  0.00  0.00    +0.167 HD
ATOM     85  C   UNL     1       6.974   4.719  22.916  0.00  0.00    +0.196 A 
ATOM     86  N   UNL     1       6.683   4.359  21.689  0.00  0.00    -0.244 NA
ATOM     87  C   UNL     1       5.976   3.193  21.817  0.00  0.00    +0.136 A 
ENDBRANCH  81  82
BRANCH  81  88
ATOM     88  O   UNL     1       4.285   2.401  24.823  0.00  0.00    -0.337 OA
BRANCH  88  89
ATOM     89  C   UNL     1       2.987   2.840  24.441  0.00  0.00    +0.283 C 
ATOM     90  C   UNL     1       2.698   4.327  24.836  0.00  0.00    +0.208 C 
ATOM     91  C   UNL     1       2.848   4.368  26.371  0.00  0.00    +0.179 C 
ATOM     92  C   UNL     1       1.760   3.491  27.019  0.00  0.00    +0.177 C 
ATOM     93  C   UNL     1       1.921   2.048  26.485  0.00  0.00    +0.178 C 
ATOM     94  O   UNL     1       1.998   2.012  25.048  0.00  0.00    -0.340 OA
BRANCH  92  95
ATOM     95  O   UNL     1       0.447   3.970  26.700  0.00  0.00    -0.386 OA
ATOM     96  H   UNL     1      -0.156   3.202  26.772  0.00  0.00    +0.210 HD
ENDBRANCH  92  95
BRANCH  91  97
ATOM     97  O   UNL     1       2.984   5.686  26.905  0.00  0.00    -0.386 OA
ATOM     98  H   UNL     1       2.263   5.909  27.509  0.00  0.00    +0.210 HD
ENDBRANCH  91  97
BRANCH  90  99
ATOM     99  O   UNL     1       1.364   4.635  24.325  0.00  0.00    -0.338 OA
BRANCH  99 100
ATOM    100  C   UNL     1       1.237   5.799  23.502  0.00  0.00    +0.283 C 
ATOM    101  C   UNL     1       0.998   5.420  22.021  0.00  0.00    +0.213 C 
ATOM    102  C   UNL     1       2.299   4.862  21.444  0.00  0.00    +0.242 C 
ATOM    103  C   UNL     1       3.438   5.882  21.652  0.00  0.00    +0.189 C 
ATOM    104  C   UNL     1       3.574   6.116  23.167  0.00  0.00    +0.179 C 
ATOM    105  O   UNL     1       2.348   6.671  23.679  0.00  0.00    -0.340 OA
BRANCH 103 106
ATOM    106  O   UNL     1       3.122   7.105  20.955  0.00  0.00    -0.385 OA
ATOM    107  H   UNL     1       3.566   7.100  20.086  0.00  0.00    +0.210 HD
ENDBRANCH 103 106
BRANCH 101 108
ATOM    108  O   UNL     1       0.529   6.574  21.294  0.00  0.00    -0.383 OA
ATOM    109  H   UNL     1       0.735   6.431  20.348  0.00  0.00    +0.210 HD
ENDBRANCH 101 108
BRANCH 104 110
ATOM    110  C   UNL     1       4.666   7.108  23.561  0.00  0.00    +0.190 C 
BRANCH 110 111
ATOM    111  O   UNL     1       5.308   6.628  24.748  0.00  0.00    -0.392 OA
ATOM    112  H   UNL     1       4.601   6.553  25.420  0.00  0.00    +0.210 HD
ENDBRANCH 110 111
ENDBRANCH 104 110
BRANCH 102 113
ATOM    113  O   UNL     1       2.100   4.536  20.056  0.00  0.00    -0.442 OA
BRANCH 113 114
ATOM    114  C   UNL     1       1.571   3.307  19.849  0.00  0.00    +0.398 C 
ATOM    115  O   UNL     1       0.728   3.028  19.011  0.00  0.00    -0.227 OA
ATOM    116  N   UNL     1       2.116   2.407  20.690  0.00  0.00    -0.295 N 
ATOM    117  H   UNL     1       1.824   1.443  20.630  0.00  0.00    +0.148 HD
ATOM    118  H   UNL     1       2.852   2.678  21.325  0.00  0.00    +0.148 HD
ENDBRANCH 113 114
ENDBRANCH 102 113
ENDBRANCH  99 100
ENDBRANCH  90  99
BRANCH  93 119
ATOM    119  C   UNL     1       0.731   1.156  26.887  0.00  0.00    +0.190 C 
BRANCH 119 120
ATOM    120  O   UNL     1       1.096  -0.206  27.033  0.00  0.00    -0.392 OA
ATOM    121  H   UNL     1       1.296  -0.358  27.970  0.00  0.00    +0.210 HD
ENDBRANCH 119 120
ENDBRANCH  93 119
ENDBRANCH  88  89
ENDBRANCH  81  88
ENDBRANCH   1  81
TORSDOF 45
ENDMDL
