MODEL 1
REMARK VINA RESULT:      -7.3      0.000      0.000
REMARK  Name = 
REMARK  11 active torsions:
REMARK  status: ('A' for Active; 'I' for Inactive)
REMARK    1  A    between atoms: C_5  and  C_6
REMARK    2  A    between atoms: C_6  and  O_7
REMARK    3  A    between atoms: O_7  and  C_8
REMARK    4  A    between atoms: C_8  and  C_9
REMARK    5  A    between atoms: CA_11  and  C_30
REMARK    6  A    between atoms: CA_15  and  N_17
REMARK    7  A    between atoms: C_18  and  C_20
REMARK    8  A    between atoms: C_20  and  C_24
REMARK    9  A    between atoms: N_21  and  O_22
REMARK   10  A    between atoms: O_22  and  C_23
REMARK   11  A    between atoms: C_30  and  O_31
REMARK                            x       y       z     vdW  Elec       q    Type
REMARK                         _______ _______ _______ _____ _____    ______ ____
ROOT
ATOM      1  C   UNL     1       7.506  -1.283  22.937  0.00  0.00    +0.169 C 
ATOM      2  CA  UNL     1       8.411  -2.597  22.904  0.00  0.00    +0.191 C 
ATOM      3  C   UNL     1       9.490  -1.542  22.490  0.00  0.00    +0.244 C 
ATOM      4  O   UNL     1      10.653  -1.600  22.174  0.00  0.00    -0.273 OA
ATOM      5  N   UNL     1       8.740  -0.551  22.987  0.00  0.00    -0.249 N 
ATOM      6  CA  UNL     1       8.941   0.717  23.395  0.00  0.00    +0.125 C 
ATOM      7  C   UNL     1       8.087   1.318  24.268  0.00  0.00    +0.006 C 
ATOM      8  C   UNL     1       6.803   0.722  24.784  0.00  0.00    +0.107 C 
ATOM      9  S   UNL     1       6.217  -0.837  24.065  0.00  0.00    -0.131 S 
ENDROOT
BRANCH   2  10
ATOM     10  N   UNL     1       8.951  -3.530  23.981  0.00  0.00    -0.296 N 
ATOM     11  H   UNL     1       9.942  -3.463  24.199  0.00  0.00    +0.150 HD
ATOM     12  C   UNL     1       8.365  -4.414  24.891  0.00  0.00    +0.268 C 
ATOM     13  O   UNL     1       9.081  -4.921  25.774  0.00  0.00    -0.268 OA
BRANCH  12  14
ATOM     14  C   UNL     1       6.931  -4.940  24.809  0.00  0.00    +0.190 C 
ATOM     15  N   UNL     1       6.343  -5.498  23.793  0.00  0.00    -0.078 NA
BRANCH  14  16
ATOM     16  C   UNL     1       6.148  -5.197  26.033  0.00  0.00    +0.107 A 
ATOM     17  N   UNL     1       5.897  -6.479  26.538  0.00  0.00    -0.223 NA
ATOM     18  C   UNL     1       5.499  -6.399  27.787  0.00  0.00    +0.156 A 
ATOM     19  N   UNL     1       5.245  -7.461  28.568  0.00  0.00    -0.338 N 
ATOM     20  H   UNL     1       5.605  -8.350  28.238  0.00  0.00    +0.144 HD
ATOM     21  H   UNL     1       5.308  -7.336  29.573  0.00  0.00    +0.144 HD
ATOM     22  S   UNL     1       5.377  -4.815  28.436  0.00  0.00    -0.060 S 
ATOM     23  C   UNL     1       5.920  -4.179  26.948  0.00  0.00    +0.078 A 
ENDBRANCH  14  16
BRANCH  15  24
ATOM     24  O   UNL     1       6.978  -5.871  22.608  0.00  0.00    -0.396 OA
ATOM     25  C   UNL     1       6.306  -5.731  21.380  0.00  0.00    +0.313 C 
ENDBRANCH  15  24
ENDBRANCH  12  14
ENDBRANCH   2  10
BRANCH   6  26
ATOM     26  C   UNL     1      10.141   1.497  22.917  0.00  0.00    +0.351 C 
ATOM     27  OXT UNL     1      11.131   1.654  23.613  0.00  0.00    -0.244 OA
BRANCH  26  28
ATOM     28  O   UNL     1      10.041   2.114  21.730  0.00  0.00    -0.476 OA
ATOM     29  H   UNL     1       9.142   2.273  21.372  0.00  0.00    +0.295 HD
ENDBRANCH  26  28
ENDBRANCH   6  26
BRANCH   7  30
ATOM     30  C   UNL     1       8.404   2.637  24.973  0.00  0.00    +0.266 C 
BRANCH  30  31
ATOM     31  O   UNL     1       7.565   3.708  24.499  0.00  0.00    -0.460 OA
BRANCH  31  32
ATOM     32  C   UNL     1       7.947   4.359  23.370  0.00  0.00    +0.304 C 
ATOM     33  O   UNL     1       7.600   4.073  22.232  0.00  0.00    -0.251 OA
ATOM     34  C   UNL     1       8.922   5.460  23.692  0.00  0.00    +0.136 C 
ENDBRANCH  31  32
ENDBRANCH  30  31
ENDBRANCH   7  30
TORSDOF 9
ENDMDL
MODEL 2
REMARK VINA RESULT:      -7.0      3.030      7.376
REMARK  Name = 
REMARK  11 active torsions:
REMARK  status: ('A' for Active; 'I' for Inactive)
REMARK    1  A    between atoms: C_5  and  C_6
REMARK    2  A    between atoms: C_6  and  O_7
REMARK    3  A    between atoms: O_7  and  C_8
REMARK    4  A    between atoms: C_8  and  C_9
REMARK    5  A    between atoms: CA_11  and  C_30
REMARK    6  A    between atoms: CA_15  and  N_17
REMARK    7  A    between atoms: C_18  and  C_20
REMARK    8  A    between atoms: C_20  and  C_24
REMARK    9  A    between atoms: N_21  and  O_22
REMARK   10  A    between atoms: O_22  and  C_23
REMARK   11  A    between atoms: C_30  and  O_31
REMARK                            x       y       z     vdW  Elec       q    Type
REMARK                         _______ _______ _______ _____ _____    ______ ____
ROOT
ATOM      1  C   UNL     1       7.912  -5.077  23.501  0.00  0.00    +0.169 C 
ATOM      2  CA  UNL     1       7.706  -4.043  22.303  0.00  0.00    +0.191 C 
ATOM      3  C   UNL     1       6.306  -4.742  22.270  0.00  0.00    +0.244 C 
ATOM      4  O   UNL     1       5.327  -4.643  21.571  0.00  0.00    -0.273 OA
ATOM      5  N   UNL     1       6.480  -5.193  23.518  0.00  0.00    -0.249 N 
ATOM      6  CA  UNL     1       5.693  -5.645  24.513  0.00  0.00    +0.125 C 
ATOM      7  C   UNL     1       6.103  -5.601  25.809  0.00  0.00    +0.006 C 
ATOM      8  C   UNL     1       7.468  -5.169  26.279  0.00  0.00    +0.107 C 
ATOM      9  S   UNL     1       8.756  -4.858  25.040  0.00  0.00    -0.131 S 
ENDROOT
BRANCH   2  10
ATOM     10  N   UNL     1       7.557  -2.528  22.235  0.00  0.00    -0.296 N 
ATOM     11  H   UNL     1       7.586  -2.100  21.313  0.00  0.00    +0.150 HD
ATOM     12  C   UNL     1       7.237  -1.535  23.165  0.00  0.00    +0.268 C 
ATOM     13  O   UNL     1       7.028  -0.379  22.753  0.00  0.00    -0.268 OA
BRANCH  12  14
ATOM     14  C   UNL     1       7.269  -1.708  24.684  0.00  0.00    +0.190 C 
ATOM     15  N   UNL     1       8.276  -1.534  25.486  0.00  0.00    -0.078 NA
BRANCH  14  16
ATOM     16  C   UNL     1       6.019  -1.751  25.467  0.00  0.00    +0.107 A 
ATOM     17  N   UNL     1       4.812  -2.265  24.975  0.00  0.00    -0.223 NA
ATOM     18  C   UNL     1       3.987  -2.500  25.969  0.00  0.00    +0.156 A 
ATOM     19  N   UNL     1       2.774  -3.059  25.826  0.00  0.00    -0.338 N 
ATOM     20  H   UNL     1       2.602  -3.524  24.943  0.00  0.00    +0.144 HD
ATOM     21  H   UNL     1       2.374  -3.533  26.629  0.00  0.00    +0.144 HD
ATOM     22  S   UNL     1       4.569  -2.115  27.536  0.00  0.00    -0.060 S 
ATOM     23  C   UNL     1       6.050  -1.615  26.848  0.00  0.00    +0.078 A 
ENDBRANCH  14  16
BRANCH  15  24
ATOM     24  O   UNL     1       9.508  -0.991  25.116  0.00  0.00    -0.396 OA
ATOM     25  C   UNL     1       9.661   0.405  25.037  0.00  0.00    +0.313 C 
ENDBRANCH  15  24
ENDBRANCH  12  14
ENDBRANCH   2  10
BRANCH   6  26
ATOM     26  C   UNL     1       4.315  -6.186  24.216  0.00  0.00    +0.351 C 
ATOM     27  OXT UNL     1       3.331  -5.466  24.174  0.00  0.00    -0.244 OA
BRANCH  26  28
ATOM     28  O   UNL     1       4.186  -7.517  24.110  0.00  0.00    -0.476 OA
ATOM     29  H   UNL     1       4.766  -7.983  23.471  0.00  0.00    +0.295 HD
ENDBRANCH  26  28
ENDBRANCH   6  26
BRANCH   7  30
ATOM     30  C   UNL     1       5.163  -5.839  26.992  0.00  0.00    +0.266 C 
BRANCH  30  31
ATOM     31  O   UNL     1       5.553  -6.998  27.754  0.00  0.00    -0.460 OA
BRANCH  31  32
ATOM     32  C   UNL     1       6.017  -6.799  29.015  0.00  0.00    +0.304 C 
ATOM     33  O   UNL     1       6.818  -7.517  29.599  0.00  0.00    -0.251 OA
ATOM     34  C   UNL     1       5.364  -5.597  29.643  0.00  0.00    +0.136 C 
ENDBRANCH  31  32
ENDBRANCH  30  31
ENDBRANCH   7  30
TORSDOF 9
ENDMDL
MODEL 3
REMARK VINA RESULT:      -7.0      3.157      6.685
REMARK  Name = 
REMARK  11 active torsions:
REMARK  status: ('A' for Active; 'I' for Inactive)
REMARK    1  A    between atoms: C_5  and  C_6
REMARK    2  A    between atoms: C_6  and  O_7
REMARK    3  A    between atoms: O_7  and  C_8
REMARK    4  A    between atoms: C_8  and  C_9
REMARK    5  A    between atoms: CA_11  and  C_30
REMARK    6  A    between atoms: CA_15  and  N_17
REMARK    7  A    between atoms: C_18  and  C_20
REMARK    8  A    between atoms: C_20  and  C_24
REMARK    9  A    between atoms: N_21  and  O_22
REMARK   10  A    between atoms: O_22  and  C_23
REMARK   11  A    between atoms: C_30  and  O_31
REMARK                            x       y       z     vdW  Elec       q    Type
REMARK                         _______ _______ _______ _____ _____    ______ ____
ROOT
ATOM      1  C   UNL     1       9.332  -1.196  25.760  0.00  0.00    +0.169 C 
ATOM      2  CA  UNL     1       9.571  -0.488  24.350  0.00  0.00    +0.191 C 
ATOM      3  C   UNL     1       9.956  -1.954  23.960  0.00  0.00    +0.244 C 
ATOM      4  O   UNL     1      10.365  -2.483  22.956  0.00  0.00    -0.273 OA
ATOM      5  N   UNL     1       9.302  -2.430  25.027  0.00  0.00    -0.249 N 
ATOM      6  CA  UNL     1       8.781  -3.613  25.407  0.00  0.00    +0.125 C 
ATOM      7  C   UNL     1       7.788  -3.678  26.334  0.00  0.00    +0.006 C 
ATOM      8  C   UNL     1       7.238  -2.508  27.109  0.00  0.00    +0.107 C 
ATOM      9  S   UNL     1       8.068  -0.902  26.963  0.00  0.00    -0.131 S 
ENDROOT
BRANCH   2  10
ATOM     10  N   UNL     1       8.642   0.124  23.308  0.00  0.00    -0.296 N 
ATOM     11  H   UNL     1       9.039   0.822  22.685  0.00  0.00    +0.150 HD
ATOM     12  C   UNL     1       7.339  -0.148  22.881  0.00  0.00    +0.268 C 
ATOM     13  O   UNL     1       6.909   0.438  21.871  0.00  0.00    -0.268 OA
BRANCH  12  14
ATOM     14  C   UNL     1       6.323  -1.003  23.642  0.00  0.00    +0.190 C 
ATOM     15  N   UNL     1       5.482  -0.618  24.554  0.00  0.00    -0.078 NA
BRANCH  14  16
ATOM     16  C   UNL     1       5.937  -2.337  23.147  0.00  0.00    +0.107 A 
ATOM     17  N   UNL     1       6.681  -3.064  22.209  0.00  0.00    -0.223 NA
ATOM     18  C   UNL     1       6.311  -4.324  22.221  0.00  0.00    +0.156 A 
ATOM     19  N   UNL     1       6.886  -5.286  21.481  0.00  0.00    -0.338 N 
ATOM     20  H   UNL     1       7.789  -5.057  21.082  0.00  0.00    +0.144 HD
ATOM     21  H   UNL     1       6.807  -6.244  21.806  0.00  0.00    +0.144 HD
ATOM     22  S   UNL     1       5.055  -4.727  23.317  0.00  0.00    -0.060 S 
ATOM     23  C   UNL     1       5.010  -3.103  23.842  0.00  0.00    +0.078 A 
ENDBRANCH  14  16
BRANCH  15  24
ATOM     24  O   UNL     1       5.235   0.710  24.906  0.00  0.00    -0.396 OA
ATOM     25  C   UNL     1       4.800   1.020  26.207  0.00  0.00    +0.313 C 
ENDBRANCH  15  24
ENDBRANCH  12  14
ENDBRANCH   2  10
BRANCH   6  26
ATOM     26  C   UNL     1       9.268  -4.900  24.788  0.00  0.00    +0.351 C 
ATOM     27  OXT UNL     1       8.703  -5.417  23.837  0.00  0.00    -0.244 OA
BRANCH  26  28
ATOM     28  O   UNL     1      10.289  -5.526  25.391  0.00  0.00    -0.476 OA
ATOM     29  H   UNL     1      10.082  -6.307  25.948  0.00  0.00    +0.295 HD
ENDBRANCH  26  28
ENDBRANCH   6  26
BRANCH   7  30
ATOM     30  C   UNL     1       6.977  -4.946  26.602  0.00  0.00    +0.266 C 
BRANCH  30  31
ATOM     31  O   UNL     1       7.271  -5.500  27.899  0.00  0.00    -0.460 OA
BRANCH  31  32
ATOM     32  C   UNL     1       6.260  -6.111  28.570  0.00  0.00    +0.304 C 
ATOM     33  O   UNL     1       6.187  -7.309  28.808  0.00  0.00    -0.251 OA
ATOM     34  C   UNL     1       5.188  -5.121  28.938  0.00  0.00    +0.136 C 
ENDBRANCH  31  32
ENDBRANCH  30  31
ENDBRANCH   7  30
TORSDOF 9
ENDMDL
MODEL 4
REMARK VINA RESULT:      -6.9      1.646      2.829
REMARK  Name = 
REMARK  11 active torsions:
REMARK  status: ('A' for Active; 'I' for Inactive)
REMARK    1  A    between atoms: C_5  and  C_6
REMARK    2  A    between atoms: C_6  and  O_7
REMARK    3  A    between atoms: O_7  and  C_8
REMARK    4  A    between atoms: C_8  and  C_9
REMARK    5  A    between atoms: CA_11  and  C_30
REMARK    6  A    between atoms: CA_15  and  N_17
REMARK    7  A    between atoms: C_18  and  C_20
REMARK    8  A    between atoms: C_20  and  C_24
REMARK    9  A    between atoms: N_21  and  O_22
REMARK   10  A    between atoms: O_22  and  C_23
REMARK   11  A    between atoms: C_30  and  O_31
REMARK                            x       y       z     vdW  Elec       q    Type
REMARK                         _______ _______ _______ _____ _____    ______ ____
ROOT
ATOM      1  C   UNL     1       7.527  -1.533  23.384  0.00  0.00    +0.169 C 
ATOM      2  CA  UNL     1       8.546  -2.760  23.413  0.00  0.00    +0.191 C 
ATOM      3  C   UNL     1       9.482  -1.677  22.781  0.00  0.00    +0.244 C 
ATOM      4  O   UNL     1      10.614  -1.676  22.365  0.00  0.00    -0.273 OA
ATOM      5  N   UNL     1       8.687  -0.699  23.233  0.00  0.00    -0.249 N 
ATOM      6  CA  UNL     1       8.802   0.621  23.475  0.00  0.00    +0.125 C 
ATOM      7  C   UNL     1       7.973   1.249  24.352  0.00  0.00    +0.006 C 
ATOM      8  C   UNL     1       6.799   0.615  25.052  0.00  0.00    +0.107 C 
ATOM      9  S   UNL     1       6.302  -1.062  24.572  0.00  0.00    -0.131 S 
ENDROOT
BRANCH   2  10
ATOM     10  N   UNL     1       9.260  -3.509  24.531  0.00  0.00    -0.296 N 
ATOM     11  H   UNL     1      10.217  -3.234  24.737  0.00  0.00    +0.150 HD
ATOM     12  C   UNL     1       8.862  -4.443  25.491  0.00  0.00    +0.268 C 
ATOM     13  O   UNL     1       9.664  -4.750  26.393  0.00  0.00    -0.268 OA
BRANCH  12  14
ATOM     14  C   UNL     1       7.563  -5.250  25.449  0.00  0.00    +0.190 C 
ATOM     15  N   UNL     1       6.948  -5.825  26.439  0.00  0.00    -0.078 NA
BRANCH  14  16
ATOM     16  C   UNL     1       6.651  -5.156  24.293  0.00  0.00    +0.107 A 
ATOM     17  N   UNL     1       6.992  -5.571  22.999  0.00  0.00    -0.223 NA
ATOM     18  C   UNL     1       5.908  -5.702  22.269  0.00  0.00    +0.156 A 
ATOM     19  N   UNL     1       5.900  -6.151  21.004  0.00  0.00    -0.338 N 
ATOM     20  H   UNL     1       6.742  -6.623  20.696  0.00  0.00    +0.144 HD
ATOM     21  H   UNL     1       5.042  -6.564  20.653  0.00  0.00    +0.144 HD
ATOM     22  S   UNL     1       4.428  -5.328  23.051  0.00  0.00    -0.060 S 
ATOM     23  C   UNL     1       5.287  -4.985  24.486  0.00  0.00    +0.078 A 
ENDBRANCH  14  16
BRANCH  15  24
ATOM     24  O   UNL     1       7.288  -5.678  27.785  0.00  0.00    -0.396 OA
ATOM     25  C   UNL     1       6.378  -6.068  28.783  0.00  0.00    +0.313 C 
ENDBRANCH  15  24
ENDBRANCH  12  14
ENDBRANCH   2  10
BRANCH   6  26
ATOM     26  C   UNL     1       9.878   1.434  22.799  0.00  0.00    +0.351 C 
ATOM     27  OXT UNL     1      10.912   1.743  23.370  0.00  0.00    -0.244 OA
BRANCH  26  28
ATOM     28  O   UNL     1       9.613   1.909  21.573  0.00  0.00    -0.476 OA
ATOM     29  H   UNL     1       9.644   2.880  21.443  0.00  0.00    +0.295 HD
ENDBRANCH  26  28
ENDBRANCH   6  26
BRANCH   7  30
ATOM     30  C   UNL     1       8.224   2.666  24.871  0.00  0.00    +0.266 C 
BRANCH  30  31
ATOM     31  O   UNL     1       7.271   3.604  24.333  0.00  0.00    -0.460 OA
BRANCH  31  32
ATOM     32  C   UNL     1       7.597   4.248  23.182  0.00  0.00    +0.304 C 
ATOM     33  O   UNL     1       7.335   3.859  22.052  0.00  0.00    -0.251 OA
ATOM     34  C   UNL     1       8.394   5.491  23.472  0.00  0.00    +0.136 C 
ENDBRANCH  31  32
ENDBRANCH  30  31
ENDBRANCH   7  30
TORSDOF 9
ENDMDL
MODEL 5
REMARK VINA RESULT:      -6.9      2.626      3.458
REMARK  Name = 
REMARK  11 active torsions:
REMARK  status: ('A' for Active; 'I' for Inactive)
REMARK    1  A    between atoms: C_5  and  C_6
REMARK    2  A    between atoms: C_6  and  O_7
REMARK    3  A    between atoms: O_7  and  C_8
REMARK    4  A    between atoms: C_8  and  C_9
REMARK    5  A    between atoms: CA_11  and  C_30
REMARK    6  A    between atoms: CA_15  and  N_17
REMARK    7  A    between atoms: C_18  and  C_20
REMARK    8  A    between atoms: C_20  and  C_24
REMARK    9  A    between atoms: N_21  and  O_22
REMARK   10  A    between atoms: O_22  and  C_23
REMARK   11  A    between atoms: C_30  and  O_31
REMARK                            x       y       z     vdW  Elec       q    Type
REMARK                         _______ _______ _______ _____ _____    ______ ____
ROOT
ATOM      1  C   UNL     1       8.580  -0.499  23.073  0.00  0.00    +0.169 C 
ATOM      2  CA  UNL     1       7.862  -1.923  23.137  0.00  0.00    +0.191 C 
ATOM      3  C   UNL     1       6.914  -1.125  24.093  0.00  0.00    +0.244 C 
ATOM      4  O   UNL     1       5.949  -1.409  24.758  0.00  0.00    -0.273 OA
ATOM      5  N   UNL     1       7.350   0.036  23.587  0.00  0.00    -0.249 N 
ATOM      6  CA  UNL     1       6.909   1.307  23.535  0.00  0.00    +0.125 C 
ATOM      7  C   UNL     1       7.342   2.163  22.571  0.00  0.00    +0.006 C 
ATOM      8  C   UNL     1       8.405   1.859  21.547  0.00  0.00    +0.107 C 
ATOM      9  S   UNL     1       9.341   0.313  21.697  0.00  0.00    -0.131 S 
ENDROOT
BRANCH   2  10
ATOM     10  N   UNL     1       7.058  -2.743  22.135  0.00  0.00    -0.296 N 
ATOM     11  H   UNL     1       7.145  -2.492  21.154  0.00  0.00    +0.150 HD
ATOM     12  C   UNL     1       6.290  -3.908  22.219  0.00  0.00    +0.268 C 
ATOM     13  O   UNL     1       5.887  -4.432  21.164  0.00  0.00    -0.268 OA
BRANCH  12  14
ATOM     14  C   UNL     1       5.766  -4.525  23.517  0.00  0.00    +0.190 C 
ATOM     15  N   UNL     1       4.569  -4.969  23.762  0.00  0.00    -0.078 NA
BRANCH  14  16
ATOM     16  C   UNL     1       6.696  -5.023  24.547  0.00  0.00    +0.107 A 
ATOM     17  N   UNL     1       8.056  -5.265  24.315  0.00  0.00    -0.223 NA
ATOM     18  C   UNL     1       8.698  -5.355  25.457  0.00  0.00    +0.156 A 
ATOM     19  N   UNL     1      10.027  -5.516  25.565  0.00  0.00    -0.338 N 
ATOM     20  H   UNL     1      10.566  -5.323  24.729  0.00  0.00    +0.144 HD
ATOM     21  H   UNL     1      10.472  -5.211  26.424  0.00  0.00    +0.144 HD
ATOM     22  S   UNL     1       7.742  -5.181  26.871  0.00  0.00    -0.060 S 
ATOM     23  C   UNL     1       6.363  -4.942  25.892  0.00  0.00    +0.078 A 
ENDBRANCH  14  16
BRANCH  15  24
ATOM     24  O   UNL     1       3.558  -5.109  22.810  0.00  0.00    -0.396 OA
ATOM     25  C   UNL     1       2.363  -5.767  23.152  0.00  0.00    +0.313 C 
ENDBRANCH  15  24
ENDBRANCH  12  14
ENDBRANCH   2  10
BRANCH   6  26
ATOM     26  C   UNL     1       5.895   1.808  24.534  0.00  0.00    +0.351 C 
ATOM     27  OXT UNL     1       6.224   2.376  25.563  0.00  0.00    -0.244 OA
BRANCH  26  28
ATOM     28  O   UNL     1       4.607   1.508  24.308  0.00  0.00    -0.476 OA
ATOM     29  H   UNL     1       4.153   0.926  24.954  0.00  0.00    +0.295 HD
ENDBRANCH  26  28
ENDBRANCH   6  26
BRANCH   7  30
ATOM     30  C   UNL     1       6.682   3.515  22.295  0.00  0.00    +0.266 C 
BRANCH  30  31
ATOM     31  O   UNL     1       7.647   4.584  22.287  0.00  0.00    -0.460 OA
BRANCH  31  32
ATOM     32  C   UNL     1       7.745   5.356  23.401  0.00  0.00    +0.304 C 
ATOM     33  O   UNL     1       7.037   5.263  24.395  0.00  0.00    -0.251 OA
ATOM     34  C   UNL     1       8.811   6.406  23.233  0.00  0.00    +0.136 C 
ENDBRANCH  31  32
ENDBRANCH  30  31
ENDBRANCH   7  30
TORSDOF 9
ENDMDL
MODEL 6
REMARK VINA RESULT:      -6.8      3.084      8.339
REMARK  Name = 
REMARK  11 active torsions:
REMARK  status: ('A' for Active; 'I' for Inactive)
REMARK    1  A    between atoms: C_5  and  C_6
REMARK    2  A    between atoms: C_6  and  O_7
REMARK    3  A    between atoms: O_7  and  C_8
REMARK    4  A    between atoms: C_8  and  C_9
REMARK    5  A    between atoms: CA_11  and  C_30
REMARK    6  A    between atoms: CA_15  and  N_17
REMARK    7  A    between atoms: C_18  and  C_20
REMARK    8  A    between atoms: C_20  and  C_24
REMARK    9  A    between atoms: N_21  and  O_22
REMARK   10  A    between atoms: O_22  and  C_23
REMARK   11  A    between atoms: C_30  and  O_31
REMARK                            x       y       z     vdW  Elec       q    Type
REMARK                         _______ _______ _______ _____ _____    ______ ____
ROOT
ATOM      1  C   UNL     1       9.652  -0.387  25.118  0.00  0.00    +0.169 C 
ATOM      2  CA  UNL     1      10.016   0.153  23.661  0.00  0.00    +0.191 C 
ATOM      3  C   UNL     1      10.211  -1.379  23.412  0.00  0.00    +0.244 C 
ATOM      4  O   UNL     1      10.568  -2.045  22.472  0.00  0.00    -0.273 OA
ATOM      5  N   UNL     1       9.474  -1.668  24.492  0.00  0.00    -0.249 N 
ATOM      6  CA  UNL     1       8.791  -2.733  24.954  0.00  0.00    +0.125 C 
ATOM      7  C   UNL     1       7.776  -2.583  25.847  0.00  0.00    +0.006 C 
ATOM      8  C   UNL     1       7.370  -1.287  26.499  0.00  0.00    +0.107 C 
ATOM      9  S   UNL     1       8.410   0.177  26.246  0.00  0.00    -0.131 S 
ENDROOT
BRANCH   2  10
ATOM     10  N   UNL     1       9.203   0.786  22.539  0.00  0.00    -0.296 N 
ATOM     11  H   UNL     1       9.161   0.285  21.656  0.00  0.00    +0.150 HD
ATOM     12  C   UNL     1       8.337   1.881  22.458  0.00  0.00    +0.268 C 
ATOM     13  O   UNL     1       7.682   2.045  21.412  0.00  0.00    -0.268 OA
BRANCH  12  14
ATOM     14  C   UNL     1       8.231   2.999  23.496  0.00  0.00    +0.190 C 
ATOM     15  N   UNL     1       7.309   3.167  24.396  0.00  0.00    -0.078 NA
BRANCH  14  16
ATOM     16  C   UNL     1       9.399   3.838  23.826  0.00  0.00    +0.107 A 
ATOM     17  N   UNL     1      10.702   3.559  23.396  0.00  0.00    -0.223 NA
ATOM     18  C   UNL     1      11.456   4.626  23.527  0.00  0.00    +0.156 A 
ATOM     19  N   UNL     1      12.739   4.696  23.137  0.00  0.00    -0.338 N 
ATOM     20  H   UNL     1      13.051   3.967  22.506  0.00  0.00    +0.144 HD
ATOM     21  H   UNL     1      13.122   5.613  22.931  0.00  0.00    +0.144 HD
ATOM     22  S   UNL     1      10.687   6.013  24.182  0.00  0.00    -0.060 S 
ATOM     23  C   UNL     1       9.224   5.138  24.279  0.00  0.00    +0.078 A 
ENDBRANCH  14  16
BRANCH  15  24
ATOM     24  O   UNL     1       6.301   2.246  24.690  0.00  0.00    -0.396 OA
ATOM     25  C   UNL     1       5.035   2.381  24.093  0.00  0.00    +0.313 C 
ENDBRANCH  15  24
ENDBRANCH  12  14
ENDBRANCH   2  10
BRANCH   6  26
ATOM     26  C   UNL     1       9.115  -4.123  24.465  0.00  0.00    +0.351 C 
ATOM     27  OXT UNL     1       8.460  -4.673  23.594  0.00  0.00    -0.244 OA
BRANCH  26  28
ATOM     28  O   UNL     1      10.089  -4.788  25.102  0.00  0.00    -0.476 OA
ATOM     29  H   UNL     1       9.827  -5.516  25.705  0.00  0.00    +0.295 HD
ENDBRANCH  26  28
ENDBRANCH   6  26
BRANCH   7  30
ATOM     30  C   UNL     1       6.796  -3.705  26.194  0.00  0.00    +0.266 C 
BRANCH  30  31
ATOM     31  O   UNL     1       7.158  -4.365  27.422  0.00  0.00    -0.460 OA
BRANCH  31  32
ATOM     32  C   UNL     1       6.667  -5.613  27.639  0.00  0.00    +0.304 C 
ATOM     33  O   UNL     1       6.987  -6.353  28.559  0.00  0.00    -0.251 OA
ATOM     34  C   UNL     1       5.707  -6.007  26.548  0.00  0.00    +0.136 C 
ENDBRANCH  31  32
ENDBRANCH  30  31
ENDBRANCH   7  30
TORSDOF 9
ENDMDL
MODEL 7
REMARK VINA RESULT:      -6.8      2.556      3.598
REMARK  Name = 
REMARK  11 active torsions:
REMARK  status: ('A' for Active; 'I' for Inactive)
REMARK    1  A    between atoms: C_5  and  C_6
REMARK    2  A    between atoms: C_6  and  O_7
REMARK    3  A    between atoms: O_7  and  C_8
REMARK    4  A    between atoms: C_8  and  C_9
REMARK    5  A    between atoms: CA_11  and  C_30
REMARK    6  A    between atoms: CA_15  and  N_17
REMARK    7  A    between atoms: C_18  and  C_20
REMARK    8  A    between atoms: C_20  and  C_24
REMARK    9  A    between atoms: N_21  and  O_22
REMARK   10  A    between atoms: O_22  and  C_23
REMARK   11  A    between atoms: C_30  and  O_31
REMARK                            x       y       z     vdW  Elec       q    Type
REMARK                         _______ _______ _______ _____ _____    ______ ____
ROOT
ATOM      1  C   UNL     1       8.184  -0.692  24.762  0.00  0.00    +0.169 C 
ATOM      2  CA  UNL     1       6.734  -1.228  24.366  0.00  0.00    +0.191 C 
ATOM      3  C   UNL     1       6.428   0.307  24.408  0.00  0.00    +0.244 C 
ATOM      4  O   UNL     1       5.437   0.976  24.255  0.00  0.00    -0.273 OA
ATOM      5  N   UNL     1       7.732   0.589  24.295  0.00  0.00    -0.249 N 
ATOM      6  CA  UNL     1       8.474   1.649  23.922  0.00  0.00    +0.125 C 
ATOM      7  C   UNL     1       9.750   1.493  23.478  0.00  0.00    +0.006 C 
ATOM      8  C   UNL     1      10.512   0.193  23.449  0.00  0.00    +0.107 C 
ATOM      9  S   UNL     1       9.774  -1.265  24.237  0.00  0.00    -0.131 S 
ENDROOT
BRANCH   2  10
ATOM     10  N   UNL     1       6.153  -1.863  23.109  0.00  0.00    -0.296 N 
ATOM     11  H   UNL     1       6.134  -1.293  22.267  0.00  0.00    +0.150 HD
ATOM     12  C   UNL     1       5.741  -3.154  22.768  0.00  0.00    +0.268 C 
ATOM     13  O   UNL     1       5.461  -3.395  21.579  0.00  0.00    -0.268 OA
BRANCH  12  14
ATOM     14  C   UNL     1       5.453  -4.278  23.765  0.00  0.00    +0.190 C 
ATOM     15  N   UNL     1       4.415  -5.058  23.809  0.00  0.00    -0.078 NA
BRANCH  14  16
ATOM     16  C   UNL     1       6.531  -4.847  24.595  0.00  0.00    +0.107 A 
ATOM     17  N   UNL     1       7.866  -4.937  24.180  0.00  0.00    -0.223 NA
ATOM     18  C   UNL     1       8.646  -5.145  25.216  0.00  0.00    +0.156 A 
ATOM     19  N   UNL     1       9.986  -5.210  25.151  0.00  0.00    -0.338 N 
ATOM     20  H   UNL     1      10.406  -4.849  24.303  0.00  0.00    +0.144 HD
ATOM     21  H   UNL     1      10.511  -5.002  25.994  0.00  0.00    +0.144 HD
ATOM     22  S   UNL     1       7.858  -5.267  26.735  0.00  0.00    -0.060 S 
ATOM     23  C   UNL     1       6.359  -4.998  25.964  0.00  0.00    +0.078 A 
ENDBRANCH  14  16
BRANCH  15  24
ATOM     24  O   UNL     1       3.416  -5.116  22.835  0.00  0.00    -0.396 OA
ATOM     25  C   UNL     1       2.345  -6.016  22.985  0.00  0.00    +0.313 C 
ENDBRANCH  15  24
ENDBRANCH  12  14
ENDBRANCH   2  10
BRANCH   6  26
ATOM     26  C   UNL     1       7.895   3.042  23.959  0.00  0.00    +0.351 C 
ATOM     27  OXT UNL     1       8.045   3.781  24.920  0.00  0.00    -0.244 OA
BRANCH  26  28
ATOM     28  O   UNL     1       7.107   3.409  22.939  0.00  0.00    -0.476 OA
ATOM     29  H   UNL     1       6.998   4.369  22.767  0.00  0.00    +0.295 HD
ENDBRANCH  26  28
ENDBRANCH   6  26
BRANCH   7  30
ATOM     30  C   UNL     1      10.539   2.608  22.790  0.00  0.00    +0.266 C 
BRANCH  30  31
ATOM     31  O   UNL     1      11.319   3.366  23.735  0.00  0.00    -0.460 OA
BRANCH  31  32
ATOM     32  C   UNL     1      11.740   4.602  23.360  0.00  0.00    +0.304 C 
ATOM     33  O   UNL     1      12.816   4.858  22.835  0.00  0.00    -0.251 OA
ATOM     34  C   UNL     1      10.727   5.650  23.735  0.00  0.00    +0.136 C 
ENDBRANCH  31  32
ENDBRANCH  30  31
ENDBRANCH   7  30
TORSDOF 9
ENDMDL
MODEL 8
REMARK VINA RESULT:      -6.7      3.469      8.992
REMARK  Name = 
REMARK  11 active torsions:
REMARK  status: ('A' for Active; 'I' for Inactive)
REMARK    1  A    between atoms: C_5  and  C_6
REMARK    2  A    between atoms: C_6  and  O_7
REMARK    3  A    between atoms: O_7  and  C_8
REMARK    4  A    between atoms: C_8  and  C_9
REMARK    5  A    between atoms: CA_11  and  C_30
REMARK    6  A    between atoms: CA_15  and  N_17
REMARK    7  A    between atoms: C_18  and  C_20
REMARK    8  A    between atoms: C_20  and  C_24
REMARK    9  A    between atoms: N_21  and  O_22
REMARK   10  A    between atoms: O_22  and  C_23
REMARK   11  A    between atoms: C_30  and  O_31
REMARK                            x       y       z     vdW  Elec       q    Type
REMARK                         _______ _______ _______ _____ _____    ______ ____
ROOT
ATOM      1  C   UNL     1       7.907   0.784  24.746  0.00  0.00    +0.169 C 
ATOM      2  CA  UNL     1       8.525   2.144  24.183  0.00  0.00    +0.191 C 
ATOM      3  C   UNL     1       9.617   1.146  23.673  0.00  0.00    +0.244 C 
ATOM      4  O   UNL     1      10.660   1.265  23.079  0.00  0.00    -0.273 OA
ATOM      5  N   UNL     1       8.770   0.118  23.811  0.00  0.00    -0.249 N 
ATOM      6  CA  UNL     1       8.668  -1.135  23.329  0.00  0.00    +0.125 C 
ATOM      7  C   UNL     1       7.469  -1.777  23.290  0.00  0.00    +0.006 C 
ATOM      8  C   UNL     1       6.176  -1.248  23.854  0.00  0.00    +0.107 C 
ATOM      9  S   UNL     1       6.215   0.275  24.839  0.00  0.00    -0.131 S 
ENDROOT
BRANCH   2  10
ATOM     10  N   UNL     1       8.113   3.109  23.078  0.00  0.00    -0.296 N 
ATOM     11  H   UNL     1       7.799   2.703  22.200  0.00  0.00    +0.150 HD
ATOM     12  C   UNL     1       7.920   4.491  23.011  0.00  0.00    +0.268 C 
ATOM     13  O   UNL     1       7.410   4.972  21.982  0.00  0.00    -0.268 OA
BRANCH  12  14
ATOM     14  C   UNL     1       8.423   5.502  24.043  0.00  0.00    +0.190 C 
ATOM     15  N   UNL     1       7.735   6.123  24.953  0.00  0.00    -0.078 NA
BRANCH  14  16
ATOM     16  C   UNL     1       9.861   5.615  24.351  0.00  0.00    +0.107 A 
ATOM     17  N   UNL     1      10.871   5.035  23.573  0.00  0.00    -0.223 NA
ATOM     18  C   UNL     1      12.031   5.577  23.864  0.00  0.00    +0.156 A 
ATOM     19  N   UNL     1      13.181   5.281  23.239  0.00  0.00    -0.338 N 
ATOM     20  H   UNL     1      13.092   4.792  22.356  0.00  0.00    +0.144 HD
ATOM     21  H   UNL     1      13.922   5.974  23.255  0.00  0.00    +0.144 HD
ATOM     22  S   UNL     1      12.009   6.786  25.082  0.00  0.00    -0.060 S 
ATOM     23  C   UNL     1      10.318   6.596  25.221  0.00  0.00    +0.078 A 
ENDBRANCH  14  16
BRANCH  15  24
ATOM     24  O   UNL     1       6.401   5.857  25.266  0.00  0.00    -0.396 OA
ATOM     25  C   UNL     1       5.382   6.662  24.726  0.00  0.00    +0.313 C 
ENDBRANCH  15  24
ENDBRANCH  12  14
ENDBRANCH   2  10
BRANCH   6  26
ATOM     26  C   UNL     1       9.881  -1.852  22.790  0.00  0.00    +0.351 C 
ATOM     27  OXT UNL     1      10.528  -2.633  23.470  0.00  0.00    -0.244 OA
BRANCH  26  28
ATOM     28  O   UNL     1      10.300  -1.517  21.561  0.00  0.00    -0.476 OA
ATOM     29  H   UNL     1      11.121  -0.986  21.487  0.00  0.00    +0.295 HD
ENDBRANCH  26  28
ENDBRANCH   6  26
BRANCH   7  30
ATOM     30  C   UNL     1       7.241  -3.075  22.514  0.00  0.00    +0.266 C 
BRANCH  30  31
ATOM     31  O   UNL     1       6.157  -3.843  23.072  0.00  0.00    -0.460 OA
BRANCH  31  32
ATOM     32  C   UNL     1       5.749  -4.948  22.394  0.00  0.00    +0.304 C 
ATOM     33  O   UNL     1       4.601  -5.367  22.343  0.00  0.00    -0.251 OA
ATOM     34  C   UNL     1       6.919  -5.643  21.752  0.00  0.00    +0.136 C 
ENDBRANCH  31  32
ENDBRANCH  30  31
ENDBRANCH   7  30
TORSDOF 9
ENDMDL
MODEL 9
REMARK VINA RESULT:      -6.7      2.678      3.711
REMARK  Name = 
REMARK  11 active torsions:
REMARK  status: ('A' for Active; 'I' for Inactive)
REMARK    1  A    between atoms: C_5  and  C_6
REMARK    2  A    between atoms: C_6  and  O_7
REMARK    3  A    between atoms: O_7  and  C_8
REMARK    4  A    between atoms: C_8  and  C_9
REMARK    5  A    between atoms: CA_11  and  C_30
REMARK    6  A    between atoms: CA_15  and  N_17
REMARK    7  A    between atoms: C_18  and  C_20
REMARK    8  A    between atoms: C_20  and  C_24
REMARK    9  A    between atoms: N_21  and  O_22
REMARK   10  A    between atoms: O_22  and  C_23
REMARK   11  A    between atoms: C_30  and  O_31
REMARK                            x       y       z     vdW  Elec       q    Type
REMARK                         _______ _______ _______ _____ _____    ______ ____
ROOT
ATOM      1  C   UNL     1       8.967  -2.621  24.803  0.00  0.00    +0.169 C 
ATOM      2  CA  UNL     1       8.357  -2.798  26.267  0.00  0.00    +0.191 C 
ATOM      3  C   UNL     1       8.944  -1.354  26.416  0.00  0.00    +0.244 C 
ATOM      4  O   UNL     1       9.012  -0.558  27.319  0.00  0.00    -0.273 OA
ATOM      5  N   UNL     1       8.983  -1.213  25.085  0.00  0.00    -0.249 N 
ATOM      6  CA  UNL     1       9.046  -0.189  24.212  0.00  0.00    +0.125 C 
ATOM      7  C   UNL     1       8.616  -0.331  22.929  0.00  0.00    +0.006 C 
ATOM      8  C   UNL     1       8.142  -1.618  22.305  0.00  0.00    +0.107 C 
ATOM      9  S   UNL     1       8.322  -3.159  23.246  0.00  0.00    -0.131 S 
ENDROOT
BRANCH   2  10
ATOM     10  N   UNL     1       6.937  -2.866  26.814  0.00  0.00    -0.296 N 
ATOM     11  H   UNL     1       6.566  -2.025  27.249  0.00  0.00    +0.150 HD
ATOM     12  C   UNL     1       5.908  -3.808  26.744  0.00  0.00    +0.268 C 
ATOM     13  O   UNL     1       4.780  -3.490  27.165  0.00  0.00    -0.268 OA
BRANCH  12  14
ATOM     14  C   UNL     1       6.079  -5.270  26.327  0.00  0.00    +0.190 C 
ATOM     15  N   UNL     1       6.607  -6.239  27.014  0.00  0.00    -0.078 NA
BRANCH  14  16
ATOM     16  C   UNL     1       5.313  -5.829  25.197  0.00  0.00    +0.107 A 
ATOM     17  N   UNL     1       4.518  -6.978  25.290  0.00  0.00    -0.223 NA
ATOM     18  C   UNL     1       3.696  -7.040  24.268  0.00  0.00    +0.156 A 
ATOM     19  N   UNL     1       2.760  -7.990  24.108  0.00  0.00    -0.338 N 
ATOM     20  H   UNL     1       2.538  -8.536  24.932  0.00  0.00    +0.144 HD
ATOM     21  H   UNL     1       1.957  -7.771  23.528  0.00  0.00    +0.144 HD
ATOM     22  S   UNL     1       3.819  -5.764  23.128  0.00  0.00    -0.060 S 
ATOM     23  C   UNL     1       5.049  -5.054  24.076  0.00  0.00    +0.078 A 
ENDBRANCH  14  16
BRANCH  15  24
ATOM     24  O   UNL     1       6.984  -6.154  28.356  0.00  0.00    -0.396 OA
ATOM     25  C   UNL     1       6.053  -6.462  29.364  0.00  0.00    +0.313 C 
ENDBRANCH  15  24
ENDBRANCH  12  14
ENDBRANCH   2  10
BRANCH   6  26
ATOM     26  C   UNL     1       9.568   1.159  24.646  0.00  0.00    +0.351 C 
ATOM     27  OXT UNL     1      10.725   1.498  24.457  0.00  0.00    -0.244 OA
BRANCH  26  28
ATOM     28  O   UNL     1       8.741   1.941  25.356  0.00  0.00    -0.476 OA
ATOM     29  H   UNL     1       9.142   2.612  25.949  0.00  0.00    +0.295 HD
ENDBRANCH  26  28
ENDBRANCH   6  26
BRANCH   7  30
ATOM     30  C   UNL     1       8.407   0.850  21.981  0.00  0.00    +0.266 C 
BRANCH  30  31
ATOM     31  O   UNL     1       7.065   1.368  22.068  0.00  0.00    -0.460 OA
BRANCH  31  32
ATOM     32  C   UNL     1       6.909   2.657  22.466  0.00  0.00    +0.304 C 
ATOM     33  O   UNL     1       7.816   3.434  22.731  0.00  0.00    -0.251 OA
ATOM     34  C   UNL     1       5.450   3.001  22.605  0.00  0.00    +0.136 C 
ENDBRANCH  31  32
ENDBRANCH  30  31
ENDBRANCH   7  30
TORSDOF 9
ENDMDL
