MODEL 1
REMARK VINA RESULT:      -6.8      0.000      0.000
REMARK  Name = 
REMARK  2 active torsions:
REMARK  status: ('A' for Active; 'I' for Inactive)
REMARK    1  A    between atoms: C_4  and  N_5
REMARK    2  A    between atoms: C_8  and  C_14
REMARK                            x       y       z     vdW  Elec       q    Type
REMARK                         _______ _______ _______ _____ _____    ______ ____
ROOT
ATOM      1  N   UNL     1      10.269   0.071  22.096  0.00  0.00    -0.327 N 
ATOM      2  H   UNL     1      11.075  -0.415  21.728  0.00  0.00    +0.145 HD
ATOM      3  H   UNL     1       9.739   0.651  21.462  0.00  0.00    +0.145 HD
ATOM      4  C   UNL     1       9.444  -0.800  22.774  0.00  0.00    +0.216 A 
ATOM      5  N   UNL     1       9.982  -1.920  23.238  0.00  0.00    -0.193 NA
ATOM      6  C   UNL     1       9.198  -2.748  23.922  0.00  0.00    +0.187 A 
ATOM      7  C   UNL     1       7.845  -2.501  24.161  0.00  0.00    +0.148 A 
ATOM      8  N   UNL     1       7.064  -3.341  24.905  0.00  0.00    -0.237 NA
ATOM      9  C   UNL     1       7.654  -4.456  25.411  0.00  0.00    +0.111 A 
ATOM     10  C   UNL     1       9.001  -4.722  25.113  0.00  0.00    +0.145 A 
ATOM     11  N   UNL     1       9.690  -5.860  25.530  0.00  0.00    -0.341 N 
ATOM     12  H   UNL     1      10.625  -5.806  25.127  0.00  0.00    +0.144 HD
ATOM     13  H   UNL     1       9.208  -6.710  25.254  0.00  0.00    +0.144 HD
ATOM     14  C   UNL     1       7.389  -1.316  23.591  0.00  0.00    +0.149 A 
ATOM     15  N   UNL     1       9.756  -3.866  24.389  0.00  0.00    -0.209 NA
ATOM     16  N   UNL     1       8.163  -0.468  22.895  0.00  0.00    -0.198 NA
ENDROOT
BRANCH   9  17
ATOM     17  C   UNL     1       6.776  -5.292  26.268  0.00  0.00    +0.004 A 
ATOM     18  C   UNL     1       6.945  -5.390  27.662  0.00  0.00    +0.010 A 
ATOM     19  C   UNL     1       6.084  -6.157  28.457  0.00  0.00    +0.001 A 
ATOM     20  C   UNL     1       5.017  -6.834  27.877  0.00  0.00    +0.000 A 
ATOM     21  C   UNL     1       4.815  -6.751  26.503  0.00  0.00    +0.001 A 
ATOM     22  C   UNL     1       5.685  -5.991  25.712  0.00  0.00    +0.010 A 
ENDBRANCH   9  17
BRANCH  14  23
ATOM     23  N   UNL     1       6.028  -0.971  23.653  0.00  0.00    -0.341 N 
ATOM     24  H   UNL     1       5.901  -0.057  24.077  0.00  0.00    +0.144 HD
ATOM     25  H   UNL     1       5.618  -1.066  22.729  0.00  0.00    +0.144 HD
ENDBRANCH  14  23
TORSDOF 2
ENDMDL
MODEL 2
REMARK VINA RESULT:      -6.7      3.618      7.910
REMARK  Name = 
REMARK  2 active torsions:
REMARK  status: ('A' for Active; 'I' for Inactive)
REMARK    1  A    between atoms: C_4  and  N_5
REMARK    2  A    between atoms: C_8  and  C_14
REMARK                            x       y       z     vdW  Elec       q    Type
REMARK                         _______ _______ _______ _____ _____    ______ ____
ROOT
ATOM      1  N   UNL     1       7.050  -3.882  25.073  0.00  0.00    -0.327 N 
ATOM      2  H   UNL     1       7.095  -4.331  24.169  0.00  0.00    +0.145 HD
ATOM      3  H   UNL     1       7.357  -4.411  25.877  0.00  0.00    +0.145 HD
ATOM      4  C   UNL     1       7.660  -2.647  25.034  0.00  0.00    +0.216 A 
ATOM      5  N   UNL     1       7.770  -2.055  23.852  0.00  0.00    -0.193 NA
ATOM      6  C   UNL     1       8.327  -0.847  23.814  0.00  0.00    +0.187 A 
ATOM      7  C   UNL     1       8.809  -0.188  24.946  0.00  0.00    +0.148 A 
ATOM      8  N   UNL     1       9.337   1.072  24.895  0.00  0.00    -0.237 NA
ATOM      9  C   UNL     1       9.391   1.676  23.678  0.00  0.00    +0.111 A 
ATOM     10  C   UNL     1       8.958   0.977  22.539  0.00  0.00    +0.145 A 
ATOM     11  N   UNL     1       9.020   1.476  21.238  0.00  0.00    -0.341 N 
ATOM     12  H   UNL     1       8.687   0.738  20.620  0.00  0.00    +0.144 HD
ATOM     13  H   UNL     1       9.960   1.774  20.998  0.00  0.00    +0.144 HD
ATOM     14  C   UNL     1       8.672  -0.928  26.117  0.00  0.00    +0.149 A 
ATOM     15  N   UNL     1       8.423  -0.261  22.619  0.00  0.00    -0.209 NA
ATOM     16  N   UNL     1       8.115  -2.148  26.178  0.00  0.00    -0.198 NA
ENDROOT
BRANCH   9  17
ATOM     17  C   UNL     1       9.909   3.067  23.696  0.00  0.00    +0.004 A 
ATOM     18  C   UNL     1       9.124   4.166  24.096  0.00  0.00    +0.010 A 
ATOM     19  C   UNL     1       9.642   5.466  24.138  0.00  0.00    +0.001 A 
ATOM     20  C   UNL     1      10.969   5.699  23.797  0.00  0.00    +0.000 A 
ATOM     21  C   UNL     1      11.776   4.636  23.406  0.00  0.00    +0.001 A 
ATOM     22  C   UNL     1      11.250   3.339  23.356  0.00  0.00    +0.010 A 
ENDBRANCH   9  17
BRANCH  14  23
ATOM     23  N   UNL     1       9.198  -0.448  27.330  0.00  0.00    -0.341 N 
ATOM     24  H   UNL     1       8.725   0.401  27.624  0.00  0.00    +0.144 HD
ATOM     25  H   UNL     1       9.187  -1.196  28.016  0.00  0.00    +0.144 HD
ENDBRANCH  14  23
TORSDOF 2
ENDMDL
MODEL 3
REMARK VINA RESULT:      -6.7      1.894      6.709
REMARK  Name = 
REMARK  2 active torsions:
REMARK  status: ('A' for Active; 'I' for Inactive)
REMARK    1  A    between atoms: C_4  and  N_5
REMARK    2  A    between atoms: C_8  and  C_14
REMARK                            x       y       z     vdW  Elec       q    Type
REMARK                         _______ _______ _______ _____ _____    ______ ____
ROOT
ATOM      1  N   UNL     1       6.439  -6.340  28.249  0.00  0.00    -0.327 N 
ATOM      2  H   UNL     1       5.433  -6.240  28.233  0.00  0.00    +0.145 HD
ATOM      3  H   UNL     1       6.820  -7.269  28.145  0.00  0.00    +0.145 HD
ATOM      4  C   UNL     1       7.028  -5.462  27.365  0.00  0.00    +0.216 A 
ATOM      5  N   UNL     1       6.338  -4.384  27.019  0.00  0.00    -0.193 NA
ATOM      6  C   UNL     1       6.917  -3.516  26.193  0.00  0.00    +0.187 A 
ATOM      7  C   UNL     1       8.198  -3.694  25.669  0.00  0.00    +0.148 A 
ATOM      8  N   UNL     1       8.795  -2.770  24.857  0.00  0.00    -0.237 NA
ATOM      9  C   UNL     1       8.084  -1.650  24.558  0.00  0.00    +0.111 A 
ATOM     10  C   UNL     1       6.774  -1.513  25.045  0.00  0.00    +0.145 A 
ATOM     11  N   UNL     1       5.935  -0.437  24.756  0.00  0.00    -0.341 N 
ATOM     12  H   UNL     1       5.038  -0.631  25.199  0.00  0.00    +0.144 HD
ATOM     13  H   UNL     1       5.839  -0.297  23.755  0.00  0.00    +0.144 HD
ATOM     14  C   UNL     1       8.803  -4.880  26.075  0.00  0.00    +0.149 A 
ATOM     15  N   UNL     1       6.213  -2.433  25.860  0.00  0.00    -0.209 NA
ATOM     16  N   UNL     1       8.236  -5.769  26.906  0.00  0.00    -0.198 NA
ENDROOT
BRANCH   9  17
ATOM     17  C   UNL     1       8.810  -0.653  23.732  0.00  0.00    +0.004 A 
ATOM     18  C   UNL     1       8.719  -0.618  22.328  0.00  0.00    +0.010 A 
ATOM     19  C   UNL     1       9.385   0.353  21.569  0.00  0.00    +0.001 A 
ATOM     20  C   UNL     1      10.149   1.328  22.200  0.00  0.00    +0.000 A 
ATOM     21  C   UNL     1      10.253   1.329  23.587  0.00  0.00    +0.001 A 
ATOM     22  C   UNL     1       9.594   0.350  24.341  0.00  0.00    +0.010 A 
ENDBRANCH   9  17
BRANCH  14  23
ATOM     23  N   UNL     1      10.054  -5.257  25.556  0.00  0.00    -0.341 N 
ATOM     24  H   UNL     1      10.779  -5.193  26.266  0.00  0.00    +0.144 HD
ATOM     25  H   UNL     1       9.973  -6.170  25.120  0.00  0.00    +0.144 HD
ENDBRANCH  14  23
TORSDOF 2
ENDMDL
MODEL 4
REMARK VINA RESULT:      -6.6      2.219      6.430
REMARK  Name = 
REMARK  2 active torsions:
REMARK  status: ('A' for Active; 'I' for Inactive)
REMARK    1  A    between atoms: C_4  and  N_5
REMARK    2  A    between atoms: C_8  and  C_14
REMARK                            x       y       z     vdW  Elec       q    Type
REMARK                         _______ _______ _______ _____ _____    ______ ____
ROOT
ATOM      1  N   UNL     1       3.632  -7.325  26.366  0.00  0.00    -0.327 N 
ATOM      2  H   UNL     1       3.024  -7.454  25.569  0.00  0.00    +0.145 HD
ATOM      3  H   UNL     1       3.980  -8.152  26.830  0.00  0.00    +0.145 HD
ATOM      4  C   UNL     1       4.661  -6.461  26.059  0.00  0.00    +0.216 A 
ATOM      5  N   UNL     1       4.474  -5.618  25.053  0.00  0.00    -0.193 NA
ATOM      6  C   UNL     1       5.451  -4.759  24.775  0.00  0.00    +0.187 A 
ATOM      7  C   UNL     1       6.657  -4.715  25.477  0.00  0.00    +0.148 A 
ATOM      8  N   UNL     1       7.632  -3.795  25.208  0.00  0.00    -0.237 NA
ATOM      9  C   UNL     1       7.394  -2.910  24.204  0.00  0.00    +0.111 A 
ATOM     10  C   UNL     1       6.202  -3.004  23.467  0.00  0.00    +0.145 A 
ATOM     11  N   UNL     1       5.878  -2.187  22.383  0.00  0.00    -0.341 N 
ATOM     12  H   UNL     1       4.985  -2.516  22.019  0.00  0.00    +0.144 HD
ATOM     13  H   UNL     1       6.605  -2.204  21.675  0.00  0.00    +0.144 HD
ATOM     14  C   UNL     1       6.748  -5.674  26.482  0.00  0.00    +0.149 A 
ATOM     15  N   UNL     1       5.245  -3.911  23.765  0.00  0.00    -0.209 NA
ATOM     16  N   UNL     1       5.775  -6.550  26.778  0.00  0.00    -0.198 NA
ENDROOT
BRANCH   9  17
ATOM     17  C   UNL     1       8.456  -1.893  24.005  0.00  0.00    +0.004 A 
ATOM     18  C   UNL     1       8.756  -0.907  24.965  0.00  0.00    +0.010 A 
ATOM     19  C   UNL     1       9.786   0.022  24.772  0.00  0.00    +0.001 A 
ATOM     20  C   UNL     1      10.557  -0.023  23.616  0.00  0.00    +0.000 A 
ATOM     21  C   UNL     1      10.295  -0.989  22.651  0.00  0.00    +0.001 A 
ATOM     22  C   UNL     1       9.258  -1.909  22.844  0.00  0.00    +0.010 A 
ENDBRANCH   9  17
BRANCH  14  23
ATOM     23  N   UNL     1       7.937  -5.828  27.216  0.00  0.00    -0.341 N 
ATOM     24  H   UNL     1       8.295  -4.930  27.526  0.00  0.00    +0.144 HD
ATOM     25  H   UNL     1       7.783  -6.500  27.962  0.00  0.00    +0.144 HD
ENDBRANCH  14  23
TORSDOF 2
ENDMDL
MODEL 5
REMARK VINA RESULT:      -6.5      2.727      6.764
REMARK  Name = 
REMARK  2 active torsions:
REMARK  status: ('A' for Active; 'I' for Inactive)
REMARK    1  A    between atoms: C_4  and  N_5
REMARK    2  A    between atoms: C_8  and  C_14
REMARK                            x       y       z     vdW  Elec       q    Type
REMARK                         _______ _______ _______ _____ _____    ______ ____
ROOT
ATOM      1  N   UNL     1       9.553  -5.680  25.606  0.00  0.00    -0.327 N 
ATOM      2  H   UNL     1      10.292  -6.016  25.004  0.00  0.00    +0.145 HD
ATOM      3  H   UNL     1       9.640  -5.849  26.597  0.00  0.00    +0.145 HD
ATOM      4  C   UNL     1       9.287  -4.351  25.354  0.00  0.00    +0.216 A 
ATOM      5  N   UNL     1       9.631  -3.871  24.166  0.00  0.00    -0.193 NA
ATOM      6  C   UNL     1       9.345  -2.598  23.906  0.00  0.00    +0.187 A 
ATOM      7  C   UNL     1       8.720  -1.750  24.821  0.00  0.00    +0.148 A 
ATOM      8  N   UNL     1       8.393  -0.456  24.520  0.00  0.00    -0.237 NA
ATOM      9  C   UNL     1       8.712  -0.006  23.278  0.00  0.00    +0.111 A 
ATOM     10  C   UNL     1       9.394  -0.852  22.389  0.00  0.00    +0.145 A 
ATOM     11  N   UNL     1       9.819  -0.478  21.114  0.00  0.00    -0.341 N 
ATOM     12  H   UNL     1      10.324  -1.272  20.723  0.00  0.00    +0.144 HD
ATOM     13  H   UNL     1      10.394   0.358  21.143  0.00  0.00    +0.144 HD
ATOM     14  C   UNL     1       8.447  -2.358  26.042  0.00  0.00    +0.149 A 
ATOM     15  N   UNL     1       9.690  -2.133  22.704  0.00  0.00    -0.209 NA
ATOM     16  N   UNL     1       8.727  -3.640  26.326  0.00  0.00    -0.198 NA
ENDROOT
BRANCH   9  17
ATOM     17  C   UNL     1       8.270   1.381  22.986  0.00  0.00    +0.004 A 
ATOM     18  C   UNL     1       7.114   1.669  22.235  0.00  0.00    +0.010 A 
ATOM     19  C   UNL     1       6.696   2.985  22.000  0.00  0.00    +0.001 A 
ATOM     20  C   UNL     1       7.416   4.050  22.528  0.00  0.00    +0.000 A 
ATOM     21  C   UNL     1       8.557   3.802  23.283  0.00  0.00    +0.001 A 
ATOM     22  C   UNL     1       8.977   2.485  23.506  0.00  0.00    +0.010 A 
ENDBRANCH   9  17
BRANCH  14  23
ATOM     23  N   UNL     1       7.910  -1.612  27.107  0.00  0.00    -0.341 N 
ATOM     24  H   UNL     1       7.214  -0.950  26.776  0.00  0.00    +0.144 HD
ATOM     25  H   UNL     1       7.578  -2.248  27.825  0.00  0.00    +0.144 HD
ENDBRANCH  14  23
TORSDOF 2
ENDMDL
MODEL 6
REMARK VINA RESULT:      -6.5      2.993      4.709
REMARK  Name = 
REMARK  2 active torsions:
REMARK  status: ('A' for Active; 'I' for Inactive)
REMARK    1  A    between atoms: C_4  and  N_5
REMARK    2  A    between atoms: C_8  and  C_14
REMARK                            x       y       z     vdW  Elec       q    Type
REMARK                         _______ _______ _______ _____ _____    ______ ____
ROOT
ATOM      1  N   UNL     1       7.310   4.868  21.870  0.00  0.00    -0.327 N 
ATOM      2  H   UNL     1       7.822   4.979  21.006  0.00  0.00    +0.145 HD
ATOM      3  H   UNL     1       6.395   5.290  21.932  0.00  0.00    +0.145 HD
ATOM      4  C   UNL     1       7.269   3.542  22.244  0.00  0.00    +0.216 A 
ATOM      5  N   UNL     1       8.210   2.740  21.764  0.00  0.00    -0.193 NA
ATOM      6  C   UNL     1       8.194   1.466  22.149  0.00  0.00    +0.187 A 
ATOM      7  C   UNL     1       7.235   0.939  23.016  0.00  0.00    +0.148 A 
ATOM      8  N   UNL     1       7.261  -0.361  23.437  0.00  0.00    -0.237 NA
ATOM      9  C   UNL     1       8.265  -1.149  22.969  0.00  0.00    +0.111 A 
ATOM     10  C   UNL     1       9.187  -0.620  22.051  0.00  0.00    +0.145 A 
ATOM     11  N   UNL     1      10.221  -1.350  21.464  0.00  0.00    -0.341 N 
ATOM     12  H   UNL     1      10.691  -0.727  20.809  0.00  0.00    +0.144 HD
ATOM     13  H   UNL     1       9.872  -2.186  21.005  0.00  0.00    +0.144 HD
ATOM     14  C   UNL     1       6.281   1.869  23.419  0.00  0.00    +0.149 A 
ATOM     15  N   UNL     1       9.151   0.674  21.664  0.00  0.00    -0.209 NA
ATOM     16  N   UNL     1       6.278   3.157  23.041  0.00  0.00    -0.198 NA
ENDROOT
BRANCH   9  17
ATOM     17  C   UNL     1       8.281  -2.529  23.516  0.00  0.00    +0.004 A 
ATOM     18  C   UNL     1       7.529  -3.579  22.954  0.00  0.00    +0.010 A 
ATOM     19  C   UNL     1       7.585  -4.881  23.464  0.00  0.00    +0.001 A 
ATOM     20  C   UNL     1       8.412  -5.173  24.543  0.00  0.00    +0.000 A 
ATOM     21  C   UNL     1       9.176  -4.162  25.117  0.00  0.00    +0.001 A 
ATOM     22  C   UNL     1       9.109  -2.858  24.609  0.00  0.00    +0.010 A 
ENDBRANCH   9  17
BRANCH  14  23
ATOM     23  N   UNL     1       5.190   1.474  24.212  0.00  0.00    -0.341 N 
ATOM     24  H   UNL     1       5.019   0.476  24.129  0.00  0.00    +0.144 HD
ATOM     25  H   UNL     1       5.335   1.799  25.163  0.00  0.00    +0.144 HD
ENDBRANCH  14  23
TORSDOF 2
ENDMDL
MODEL 7
REMARK VINA RESULT:      -6.4      2.238      6.435
REMARK  Name = 
REMARK  2 active torsions:
REMARK  status: ('A' for Active; 'I' for Inactive)
REMARK    1  A    between atoms: C_4  and  N_5
REMARK    2  A    between atoms: C_8  and  C_14
REMARK                            x       y       z     vdW  Elec       q    Type
REMARK                         _______ _______ _______ _____ _____    ______ ____
ROOT
ATOM      1  N   UNL     1       7.199  -6.329  27.743  0.00  0.00    -0.327 N 
ATOM      2  H   UNL     1       7.374  -5.982  28.676  0.00  0.00    +0.145 HD
ATOM      3  H   UNL     1       6.399  -6.931  27.608  0.00  0.00    +0.145 HD
ATOM      4  C   UNL     1       7.198  -5.295  26.832  0.00  0.00    +0.216 A 
ATOM      5  N   UNL     1       7.844  -4.185  27.163  0.00  0.00    -0.193 NA
ATOM      6  C   UNL     1       7.875  -3.197  26.273  0.00  0.00    +0.187 A 
ATOM      7  C   UNL     1       7.254  -3.270  25.025  0.00  0.00    +0.148 A 
ATOM      8  N   UNL     1       7.334  -2.262  24.103  0.00  0.00    -0.237 NA
ATOM      9  C   UNL     1       8.044  -1.156  24.450  0.00  0.00    +0.111 A 
ATOM     10  C   UNL     1       8.613  -1.073  25.731  0.00  0.00    +0.145 A 
ATOM     11  N   UNL     1       9.313   0.034  26.212  0.00  0.00    -0.341 N 
ATOM     12  H   UNL     1       9.563  -0.169  27.179  0.00  0.00    +0.144 HD
ATOM     13  H   UNL     1       8.764   0.884  26.134  0.00  0.00    +0.144 HD
ATOM     14  C   UNL     1       6.577  -4.467  24.812  0.00  0.00    +0.149 A 
ATOM     15  N   UNL     1       8.535  -2.091  26.617  0.00  0.00    -0.209 NA
ATOM     16  N   UNL     1       6.532  -5.476  25.697  0.00  0.00    -0.198 NA
ENDROOT
BRANCH   9  17
ATOM     17  C   UNL     1       8.155  -0.128  23.384  0.00  0.00    +0.004 A 
ATOM     18  C   UNL     1       7.102   0.750  23.063  0.00  0.00    +0.010 A 
ATOM     19  C   UNL     1       7.239   1.736  22.078  0.00  0.00    +0.001 A 
ATOM     20  C   UNL     1       8.443   1.880  21.398  0.00  0.00    +0.000 A 
ATOM     21  C   UNL     1       9.507   1.036  21.697  0.00  0.00    +0.001 A 
ATOM     22  C   UNL     1       9.362   0.045  22.676  0.00  0.00    +0.010 A 
ENDBRANCH   9  17
BRANCH  14  23
ATOM     23  N   UNL     1       5.815  -4.659  23.645  0.00  0.00    -0.341 N 
ATOM     24  H   UNL     1       5.989  -3.921  22.969  0.00  0.00    +0.144 HD
ATOM     25  H   UNL     1       5.975  -5.598  23.294  0.00  0.00    +0.144 HD
ENDBRANCH  14  23
TORSDOF 2
ENDMDL
MODEL 8
REMARK VINA RESULT:      -6.4      1.862      2.596
REMARK  Name = 
REMARK  2 active torsions:
REMARK  status: ('A' for Active; 'I' for Inactive)
REMARK    1  A    between atoms: C_4  and  N_5
REMARK    2  A    between atoms: C_8  and  C_14
REMARK                            x       y       z     vdW  Elec       q    Type
REMARK                         _______ _______ _______ _____ _____    ______ ____
ROOT
ATOM      1  N   UNL     1      10.184   2.220  21.517  0.00  0.00    -0.327 N 
ATOM      2  H   UNL     1       9.927   2.039  20.556  0.00  0.00    +0.145 HD
ATOM      3  H   UNL     1      10.061   3.159  21.867  0.00  0.00    +0.145 HD
ATOM      4  C   UNL     1       9.600   1.298  22.359  0.00  0.00    +0.216 A 
ATOM      5  N   UNL     1       9.232   0.136  21.836  0.00  0.00    -0.193 NA
ATOM      6  C   UNL     1       8.700  -0.770  22.652  0.00  0.00    +0.187 A 
ATOM      7  C   UNL     1       8.500  -0.550  24.015  0.00  0.00    +0.148 A 
ATOM      8  N   UNL     1       7.993  -1.509  24.848  0.00  0.00    -0.237 NA
ATOM      9  C   UNL     1       7.671  -2.708  24.295  0.00  0.00    +0.111 A 
ATOM     10  C   UNL     1       7.823  -2.894  22.911  0.00  0.00    +0.145 A 
ATOM     11  N   UNL     1       7.473  -4.061  22.230  0.00  0.00    -0.341 N 
ATOM     12  H   UNL     1       7.645  -3.890  21.240  0.00  0.00    +0.144 HD
ATOM     13  H   UNL     1       6.507  -4.319  22.407  0.00  0.00    +0.144 HD
ATOM     14  C   UNL     1       8.889   0.718  24.435  0.00  0.00    +0.149 A 
ATOM     15  N   UNL     1       8.343  -1.936  22.112  0.00  0.00    -0.209 NA
ATOM     16  N   UNL     1       9.426   1.648  23.629  0.00  0.00    -0.198 NA
ENDROOT
BRANCH   9  17
ATOM     17  C   UNL     1       7.193  -3.731  25.259  0.00  0.00    +0.004 A 
ATOM     18  C   UNL     1       8.061  -4.427  26.123  0.00  0.00    +0.010 A 
ATOM     19  C   UNL     1       7.584  -5.363  27.049  0.00  0.00    +0.001 A 
ATOM     20  C   UNL     1       6.221  -5.615  27.148  0.00  0.00    +0.000 A 
ATOM     21  C   UNL     1       5.334  -4.939  26.316  0.00  0.00    +0.001 A 
ATOM     22  C   UNL     1       5.816  -4.011  25.385  0.00  0.00    +0.010 A 
ENDBRANCH   9  17
BRANCH  14  23
ATOM     23  N   UNL     1       8.661   1.134  25.759  0.00  0.00    -0.341 N 
ATOM     24  H   UNL     1       8.620   2.147  25.823  0.00  0.00    +0.144 HD
ATOM     25  H   UNL     1       7.841   0.656  26.121  0.00  0.00    +0.144 HD
ENDBRANCH  14  23
TORSDOF 2
ENDMDL
MODEL 9
REMARK VINA RESULT:      -6.3      3.992      7.945
REMARK  Name = 
REMARK  2 active torsions:
REMARK  status: ('A' for Active; 'I' for Inactive)
REMARK    1  A    between atoms: C_4  and  N_5
REMARK    2  A    between atoms: C_8  and  C_14
REMARK                            x       y       z     vdW  Elec       q    Type
REMARK                         _______ _______ _______ _____ _____    ______ ____
ROOT
ATOM      1  N   UNL     1       9.651  -3.705  24.581  0.00  0.00    -0.327 N 
ATOM      2  H   UNL     1       9.112  -3.919  25.408  0.00  0.00    +0.145 HD
ATOM      3  H   UNL     1       9.592  -4.345  23.803  0.00  0.00    +0.145 HD
ATOM      4  C   UNL     1       9.422  -2.409  24.172  0.00  0.00    +0.216 A 
ATOM      5  N   UNL     1       8.975  -1.550  25.078  0.00  0.00    -0.193 NA
ATOM      6  C   UNL     1       8.785  -0.290  24.697  0.00  0.00    +0.187 A 
ATOM      7  C   UNL     1       9.019   0.162  23.397  0.00  0.00    +0.148 A 
ATOM      8  N   UNL     1       8.862   1.471  23.033  0.00  0.00    -0.237 NA
ATOM      9  C   UNL     1       8.451   2.339  23.994  0.00  0.00    +0.111 A 
ATOM     10  C   UNL     1       8.162   1.860  25.282  0.00  0.00    +0.145 A 
ATOM     11  N   UNL     1       7.681   2.649  26.327  0.00  0.00    -0.341 N 
ATOM     12  H   UNL     1       7.518   2.028  27.118  0.00  0.00    +0.144 HD
ATOM     13  H   UNL     1       6.839   3.149  26.060  0.00  0.00    +0.144 HD
ATOM     14  C   UNL     1       9.447  -0.840  22.531  0.00  0.00    +0.149 A 
ATOM     15  N   UNL     1       8.343   0.564  25.621  0.00  0.00    -0.209 NA
ATOM     16  N   UNL     1       9.643  -2.118  22.895  0.00  0.00    -0.198 NA
ENDROOT
BRANCH   9  17
ATOM     17  C   UNL     1       8.366   3.756  23.558  0.00  0.00    +0.004 A 
ATOM     18  C   UNL     1       9.311   4.727  23.940  0.00  0.00    +0.010 A 
ATOM     19  C   UNL     1       9.232   6.051  23.490  0.00  0.00    +0.001 A 
ATOM     20  C   UNL     1       8.211   6.434  22.628  0.00  0.00    +0.000 A 
ATOM     21  C   UNL     1       7.265   5.498  22.223  0.00  0.00    +0.001 A 
ATOM     22  C   UNL     1       7.343   4.178  22.684  0.00  0.00    +0.010 A 
ENDBRANCH   9  17
BRANCH  14  23
ATOM     23  N   UNL     1       9.630  -0.572  21.163  0.00  0.00    -0.341 N 
ATOM     24  H   UNL     1       9.603   0.426  20.979  0.00  0.00    +0.144 HD
ATOM     25  H   UNL     1      10.475  -1.036  20.843  0.00  0.00    +0.144 HD
ENDBRANCH  14  23
TORSDOF 2
ENDMDL
