MODEL 1
REMARK VINA RESULT:      -6.7      0.000      0.000
REMARK  Name = 
REMARK  13 active torsions:
REMARK  status: ('A' for Active; 'I' for Inactive)
REMARK    1  A    between atoms: C_4  and  C_47
REMARK    2  A    between atoms: C_11  and  O_25
REMARK    3  A    between atoms: N_17  and  C_18
REMARK    4  A    between atoms: O_25  and  C_26
REMARK    5  A    between atoms: C_28  and  C_39
REMARK    6  A    between atoms: C_31  and  C_32
REMARK    7  A    between atoms: C_33  and  O_34
REMARK    8  A    between atoms: O_34  and  C_35
REMARK    9  A    between atoms: C_41  and  C_44
REMARK   10  A    between atoms: C_44  and  C_45
REMARK   11  A    between atoms: C_44  and  C_46
REMARK   12  A    between atoms: N_49  and  S_50
REMARK   13  A    between atoms: S_50  and  C_53
REMARK                            x       y       z     vdW  Elec       q    Type
REMARK                         _______ _______ _______ _____ _____    ______ ____
ROOT
ATOM      1  C   UNL     1       5.913   4.411  23.622  0.00  0.00    +0.046 C 
ATOM      2  C   UNL     1       4.436   4.374  23.830  0.00  0.00    -0.025 C 
ATOM      3  C   UNL     1       3.532   3.382  23.814  0.00  0.00    -0.031 C 
ATOM      4  C   UNL     1       2.032   3.653  23.904  0.00  0.00    +0.027 C 
ATOM      5  C   UNL     1       1.289   3.119  25.159  0.00  0.00    +0.006 C 
ATOM      6  C   UNL     1       1.333   4.020  26.438  0.00  0.00    +0.019 C 
ATOM      7  C   UNL     1       1.482   3.203  27.797  0.00  0.00    +0.107 C 
ATOM      8  N   UNL     1       2.354   3.831  28.880  0.00  0.00    -0.304 N 
ATOM      9  C   UNL     1       1.845   5.057  29.443  0.00  0.00    +0.132 C 
ATOM     10  C   UNL     1       3.713   3.479  29.316  0.00  0.00    +0.219 C 
ATOM     11  O   UNL     1       3.954   3.223  30.485  0.00  0.00    -0.275 OA
ATOM     12  C   UNL     1       4.841   3.666  28.215  0.00  0.00    +0.091 C 
ATOM     13  C   UNL     1       6.253   2.926  28.024  0.00  0.00    +0.090 C 
ATOM     14  C   UNL     1       5.906   1.560  27.327  0.00  0.00    +0.058 C 
ATOM     15  C   UNL     1       4.407   1.567  27.436  0.00  0.00    +0.175 C 
ATOM     16  C   UNL     1       7.030   3.892  27.046  0.00  0.00    +0.218 C 
ATOM     17  O   UNL     1       7.357   5.024  27.387  0.00  0.00    -0.275 OA
ATOM     18  N   UNL     1       7.106   3.463  25.735  0.00  0.00    -0.301 N 
ATOM     19  H   UNL     1       7.415   2.506  25.576  0.00  0.00    +0.150 HD
ATOM     20  C   UNL     1       4.248   3.022  27.011  0.00  0.00    +0.058 C 
ATOM     21  C   UNL     1       7.169   4.292  24.550  0.00  0.00    +0.119 C 
ATOM     22  C   UNL     1       6.454   5.598  24.400  0.00  0.00    +0.046 C 
ENDROOT
BRANCH  21  23
ATOM     23  C   UNL     1       8.484   4.159  23.825  0.00  0.00    +0.256 C 
ATOM     24  N   UNL     1       8.960   2.818  23.734  0.00  0.00    -0.188 N 
ATOM     25  H   UNL     1       8.357   2.045  23.996  0.00  0.00    +0.176 HD
ATOM     26  O   UNL     1       9.071   5.102  23.377  0.00  0.00    -0.272 OA
BRANCH  24  27
ATOM     27  S   UNL     1      10.448   2.372  23.188  0.00  0.00    +0.048 S 
ATOM     28  O   UNL     1      11.348   3.490  23.391  0.00  0.00    -0.155 OA
ATOM     29  O   UNL     1      10.228   1.835  21.868  0.00  0.00    -0.155 OA
BRANCH  27  30
ATOM     30  C   UNL     1      11.055   1.031  24.259  0.00  0.00    +0.151 C 
ATOM     31  C   UNL     1      10.603  -0.361  23.904  0.00  0.00    +0.030 C 
ATOM     32  C   UNL     1       9.966   0.363  25.059  0.00  0.00    +0.030 C 
ENDBRANCH  27  30
ENDBRANCH  24  27
ENDBRANCH  21  23
BRANCH  15  33
ATOM     33  O   UNL     1       3.747   0.610  26.656  0.00  0.00    -0.488 OA
BRANCH  33  34
ATOM     34  C   UNL     1       4.461  -0.570  26.487  0.00  0.00    +0.132 A 
ATOM     35  C   UNL     1       4.333  -1.507  27.523  0.00  0.00    +0.043 A 
ATOM     36  C   UNL     1       4.966  -2.756  27.368  0.00  0.00    +0.082 A 
ATOM     37  C   UNL     1       4.834  -3.710  28.383  0.00  0.00    +0.017 A 
ATOM     38  C   UNL     1       4.057  -3.435  29.527  0.00  0.00    +0.125 A 
ATOM     39  C   UNL     1       3.435  -2.201  29.668  0.00  0.00    +0.047 A 
ATOM     40  C   UNL     1       5.516  -5.053  28.260  0.00  0.00    +0.050 C 
ATOM     41  N   UNL     1       5.656  -3.063  26.256  0.00  0.00    -0.244 NA
ATOM     42  C   UNL     1       5.766  -2.163  25.253  0.00  0.00    +0.100 A 
ATOM     43  C   UNL     1       3.584  -1.239  28.679  0.00  0.00    +0.017 A 
ATOM     44  C   UNL     1       5.222  -0.898  25.356  0.00  0.00    +0.076 A 
BRANCH  42  45
ATOM     45  C   UNL     1       6.403  -2.642  24.003  0.00  0.00    +0.127 A 
ATOM     46  S   UNL     1       7.323  -1.552  23.023  0.00  0.00    -0.074 S 
ATOM     47  C   UNL     1       7.746  -2.831  21.978  0.00  0.00    +0.070 A 
ATOM     48  C   UNL     1       7.161  -4.008  22.399  0.00  0.00    +0.052 A 
ATOM     49  N   UNL     1       6.396  -3.892  23.559  0.00  0.00    -0.242 NA
BRANCH  48  50
ATOM     50  C   UNL     1       7.296  -5.342  21.713  0.00  0.00    +0.032 C 
ATOM     51  C   UNL     1       6.071  -5.657  20.856  0.00  0.00    +0.014 C 
ATOM     52  C   UNL     1       7.567  -6.469  22.711  0.00  0.00    +0.014 C 
ENDBRANCH  48  50
ENDBRANCH  42  45
BRANCH  38  53
ATOM     53  O   UNL     1       3.960  -4.456  30.441  0.00  0.00    -0.495 OA
ATOM     54  C   UNL     1       2.781  -5.248  30.395  0.00  0.00    +0.277 C 
ENDBRANCH  38  53
ENDBRANCH  33  34
ENDBRANCH  15  33
TORSDOF 8
ENDMDL
MODEL 2
REMARK VINA RESULT:      -6.1      2.829      9.077
REMARK  Name = 
REMARK  13 active torsions:
REMARK  status: ('A' for Active; 'I' for Inactive)
REMARK    1  A    between atoms: C_4  and  C_47
REMARK    2  A    between atoms: C_11  and  O_25
REMARK    3  A    between atoms: N_17  and  C_18
REMARK    4  A    between atoms: O_25  and  C_26
REMARK    5  A    between atoms: C_28  and  C_39
REMARK    6  A    between atoms: C_31  and  C_32
REMARK    7  A    between atoms: C_33  and  O_34
REMARK    8  A    between atoms: O_34  and  C_35
REMARK    9  A    between atoms: C_41  and  C_44
REMARK   10  A    between atoms: C_44  and  C_45
REMARK   11  A    between atoms: C_44  and  C_46
REMARK   12  A    between atoms: N_49  and  S_50
REMARK   13  A    between atoms: S_50  and  C_53
REMARK                            x       y       z     vdW  Elec       q    Type
REMARK                         _______ _______ _______ _____ _____    ______ ____
ROOT
ATOM      1  C   UNL     1       5.814  -5.276  25.417  0.00  0.00    +0.046 C 
ATOM      2  C   UNL     1       5.885  -4.667  24.057  0.00  0.00    -0.025 C 
ATOM      3  C   UNL     1       5.270  -3.620  23.488  0.00  0.00    -0.031 C 
ATOM      4  C   UNL     1       5.414  -3.307  22.000  0.00  0.00    +0.027 C 
ATOM      5  C   UNL     1       6.116  -1.975  21.620  0.00  0.00    +0.006 C 
ATOM      6  C   UNL     1       7.680  -1.995  21.570  0.00  0.00    +0.019 C 
ATOM      7  C   UNL     1       8.359  -0.667  22.132  0.00  0.00    +0.107 C 
ATOM      8  N   UNL     1       9.654  -0.843  22.919  0.00  0.00    -0.304 N 
ATOM      9  C   UNL     1      10.776  -1.329  22.155  0.00  0.00    +0.132 C 
ATOM     10  C   UNL     1       9.893  -0.762  24.368  0.00  0.00    +0.219 C 
ATOM     11  O   UNL     1      10.732  -0.003  24.827  0.00  0.00    -0.275 OA
ATOM     12  C   UNL     1       9.146  -1.862  25.234  0.00  0.00    +0.091 C 
ATOM     13  C   UNL     1       8.652  -1.836  26.761  0.00  0.00    +0.090 C 
ATOM     14  C   UNL     1       7.295  -1.043  26.738  0.00  0.00    +0.058 C 
ATOM     15  C   UNL     1       7.308  -0.516  25.331  0.00  0.00    +0.175 C 
ATOM     16  C   UNL     1       8.422  -3.364  27.085  0.00  0.00    +0.218 C 
ATOM     17  O   UNL     1       9.353  -4.163  27.110  0.00  0.00    -0.275 OA
ATOM     18  N   UNL     1       7.102  -3.767  27.106  0.00  0.00    -0.301 N 
ATOM     19  H   UNL     1       6.454  -3.208  27.657  0.00  0.00    +0.150 HD
ATOM     20  C   UNL     1       7.758  -1.828  24.699  0.00  0.00    +0.058 C 
ATOM     21  C   UNL     1       6.585  -5.076  26.766  0.00  0.00    +0.119 C 
ATOM     22  C   UNL     1       7.149  -5.948  25.688  0.00  0.00    +0.046 C 
ENDROOT
BRANCH  21  23
ATOM     23  C   UNL     1       5.982  -5.783  27.954  0.00  0.00    +0.256 C 
ATOM     24  N   UNL     1       4.570  -5.614  28.070  0.00  0.00    -0.188 N 
ATOM     25  H   UNL     1       4.044  -5.194  27.311  0.00  0.00    +0.176 HD
ATOM     26  O   UNL     1       6.638  -6.419  28.727  0.00  0.00    -0.272 OA
BRANCH  24  27
ATOM     27  S   UNL     1       3.659  -6.085  29.357  0.00  0.00    +0.048 S 
ATOM     28  O   UNL     1       4.018  -5.249  30.485  0.00  0.00    -0.155 OA
ATOM     29  O   UNL     1       3.807  -7.519  29.428  0.00  0.00    -0.155 OA
BRANCH  27  30
ATOM     30  C   UNL     1       1.919  -5.706  28.977  0.00  0.00    +0.151 C 
ATOM     31  C   UNL     1       1.661  -5.011  27.666  0.00  0.00    +0.030 C 
ATOM     32  C   UNL     1       1.620  -4.229  28.952  0.00  0.00    +0.030 C 
ENDBRANCH  27  30
ENDBRANCH  24  27
ENDBRANCH  21  23
BRANCH  15  33
ATOM     33  O   UNL     1       6.093   0.013  24.879  0.00  0.00    -0.488 OA
BRANCH  33  34
ATOM     34  C   UNL     1       6.001   1.395  24.998  0.00  0.00    +0.132 A 
ATOM     35  C   UNL     1       4.987   1.863  25.846  0.00  0.00    +0.043 A 
ATOM     36  C   UNL     1       4.899   3.250  26.073  0.00  0.00    +0.082 A 
ATOM     37  C   UNL     1       3.905   3.732  26.930  0.00  0.00    +0.017 A 
ATOM     38  C   UNL     1       3.026   2.842  27.580  0.00  0.00    +0.125 A 
ATOM     39  C   UNL     1       3.124   1.475  27.353  0.00  0.00    +0.047 A 
ATOM     40  C   UNL     1       3.768   5.216  27.180  0.00  0.00    +0.050 C 
ATOM     41  N   UNL     1       5.769   4.110  25.515  0.00  0.00    -0.244 NA
ATOM     42  C   UNL     1       6.753   3.656  24.708  0.00  0.00    +0.100 A 
ATOM     43  C   UNL     1       4.088   0.990  26.481  0.00  0.00    +0.017 A 
ATOM     44  C   UNL     1       6.869   2.316  24.395  0.00  0.00    +0.076 A 
BRANCH  42  45
ATOM     45  C   UNL     1       7.761   4.652  24.271  0.00  0.00    +0.127 A 
ATOM     46  S   UNL     1       7.316   6.314  24.081  0.00  0.00    -0.074 S 
ATOM     47  C   UNL     1       8.932   6.718  23.722  0.00  0.00    +0.070 A 
ATOM     48  C   UNL     1       9.725   5.588  23.741  0.00  0.00    +0.052 A 
ATOM     49  N   UNL     1       9.048   4.411  24.057  0.00  0.00    -0.242 NA
BRANCH  48  50
ATOM     50  C   UNL     1      11.203   5.555  23.454  0.00  0.00    +0.032 C 
ATOM     51  C   UNL     1      11.723   4.122  23.359  0.00  0.00    +0.014 C 
ATOM     52  C   UNL     1      12.000   6.357  24.483  0.00  0.00    +0.014 C 
ENDBRANCH  48  50
ENDBRANCH  42  45
BRANCH  38  53
ATOM     53  O   UNL     1       2.116   3.419  28.433  0.00  0.00    -0.495 OA
ATOM     54  C   UNL     1       0.804   2.873  28.436  0.00  0.00    +0.277 C 
ENDBRANCH  38  53
ENDBRANCH  33  34
ENDBRANCH  15  33
TORSDOF 8
ENDMDL
MODEL 3
REMARK VINA RESULT:      -6.1      2.240      4.606
REMARK  Name = 
REMARK  13 active torsions:
REMARK  status: ('A' for Active; 'I' for Inactive)
REMARK    1  A    between atoms: C_4  and  C_47
REMARK    2  A    between atoms: C_11  and  O_25
REMARK    3  A    between atoms: N_17  and  C_18
REMARK    4  A    between atoms: O_25  and  C_26
REMARK    5  A    between atoms: C_28  and  C_39
REMARK    6  A    between atoms: C_31  and  C_32
REMARK    7  A    between atoms: C_33  and  O_34
REMARK    8  A    between atoms: O_34  and  C_35
REMARK    9  A    between atoms: C_41  and  C_44
REMARK   10  A    between atoms: C_44  and  C_45
REMARK   11  A    between atoms: C_44  and  C_46
REMARK   12  A    between atoms: N_49  and  S_50
REMARK   13  A    between atoms: S_50  and  C_53
REMARK                            x       y       z     vdW  Elec       q    Type
REMARK                         _______ _______ _______ _____ _____    ______ ____
ROOT
ATOM      1  C   UNL     1       5.177   5.231  25.234  0.00  0.00    +0.046 C 
ATOM      2  C   UNL     1       3.806   4.660  25.369  0.00  0.00    -0.025 C 
ATOM      3  C   UNL     1       3.198   3.593  24.828  0.00  0.00    -0.031 C 
ATOM      4  C   UNL     1       1.707   3.326  25.021  0.00  0.00    +0.027 C 
ATOM      5  C   UNL     1       1.312   2.046  25.807  0.00  0.00    +0.006 C 
ATOM      6  C   UNL     1       1.298   2.157  27.368  0.00  0.00    +0.019 C 
ATOM      7  C   UNL     1       1.843   0.857  28.111  0.00  0.00    +0.107 C 
ATOM      8  N   UNL     1       2.663   1.087  29.377  0.00  0.00    -0.304 N 
ATOM      9  C   UNL     1       1.936   1.655  30.484  0.00  0.00    +0.132 C 
ATOM     10  C   UNL     1       4.115   0.985  29.589  0.00  0.00    +0.219 C 
ATOM     11  O   UNL     1       4.575   0.265  30.462  0.00  0.00    -0.275 OA
ATOM     12  C   UNL     1       4.990   2.019  28.762  0.00  0.00    +0.091 C 
ATOM     13  C   UNL     1       6.504   1.927  28.239  0.00  0.00    +0.090 C 
ATOM     14  C   UNL     1       6.432   1.059  26.931  0.00  0.00    +0.058 C 
ATOM     15  C   UNL     1       5.014   0.567  27.003  0.00  0.00    +0.175 C 
ATOM     16  C   UNL     1       6.858   3.432  27.914  0.00  0.00    +0.218 C 
ATOM     17  O   UNL     1       6.923   4.281  28.796  0.00  0.00    -0.275 OA
ATOM     18  N   UNL     1       6.859   3.758  26.572  0.00  0.00    -0.301 N 
ATOM     19  H   UNL     1       7.382   3.148  25.947  0.00  0.00    +0.150 HD
ATOM     20  C   UNL     1       4.423   1.918  27.390  0.00  0.00    +0.058 C 
ATOM     21  C   UNL     1       6.538   5.042  25.988  0.00  0.00    +0.119 C 
ATOM     22  C   UNL     1       5.493   5.971  26.523  0.00  0.00    +0.046 C 
ENDROOT
BRANCH  21  23
ATOM     23  C   UNL     1       7.728   5.684  25.320  0.00  0.00    +0.256 C 
ATOM     24  N   UNL     1       8.551   4.767  24.603  0.00  0.00    -0.188 N 
ATOM     25  H   UNL     1       8.235   3.816  24.443  0.00  0.00    +0.176 HD
ATOM     26  O   UNL     1       7.956   6.857  25.397  0.00  0.00    -0.272 OA
BRANCH  24  27
ATOM     27  S   UNL     1      10.018   5.120  23.944  0.00  0.00    +0.048 S 
ATOM     28  O   UNL     1      10.865   5.639  25.000  0.00  0.00    -0.155 OA
ATOM     29  O   UNL     1       9.732   5.913  22.773  0.00  0.00    -0.155 OA
BRANCH  27  30
ATOM     30  C   UNL     1      10.779   3.556  23.405  0.00  0.00    +0.151 C 
ATOM     31  C   UNL     1       9.854   2.551  22.771  0.00  0.00    +0.030 C 
ATOM     32  C   UNL     1      10.308   2.359  24.193  0.00  0.00    +0.030 C 
ENDBRANCH  27  30
ENDBRANCH  24  27
ENDBRANCH  21  23
BRANCH  15  33
ATOM     33  O   UNL     1       4.523  -0.019  25.831  0.00  0.00    -0.488 OA
BRANCH  33  34
ATOM     34  C   UNL     1       4.888  -1.351  25.671  0.00  0.00    +0.132 A 
ATOM     35  C   UNL     1       5.910  -1.590  24.741  0.00  0.00    +0.043 A 
ATOM     36  C   UNL     1       6.381  -2.910  24.599  0.00  0.00    +0.082 A 
ATOM     37  C   UNL     1       7.413  -3.163  23.688  0.00  0.00    +0.017 A 
ATOM     38  C   UNL     1       7.990  -2.111  22.948  0.00  0.00    +0.125 A 
ATOM     39  C   UNL     1       7.520  -0.813  23.100  0.00  0.00    +0.047 A 
ATOM     40  C   UNL     1       7.929  -4.570  23.494  0.00  0.00    +0.050 C 
ATOM     41  N   UNL     1       5.890  -3.917  25.342  0.00  0.00    -0.244 NA
ATOM     42  C   UNL     1       4.915  -3.681  26.247  0.00  0.00    +0.100 A 
ATOM     43  C   UNL     1       6.478  -0.557  23.979  0.00  0.00    +0.017 A 
ATOM     44  C   UNL     1       4.363  -2.425  26.404  0.00  0.00    +0.076 A 
BRANCH  42  45
ATOM     45  C   UNL     1       4.550  -4.813  27.133  0.00  0.00    +0.127 A 
ATOM     46  S   UNL     1       5.766  -5.606  28.076  0.00  0.00    -0.074 S 
ATOM     47  C   UNL     1       4.576  -6.582  28.809  0.00  0.00    +0.070 A 
ATOM     48  C   UNL     1       3.329  -6.284  28.299  0.00  0.00    +0.052 A 
ATOM     49  N   UNL     1       3.322  -5.270  27.342  0.00  0.00    -0.242 NA
BRANCH  48  50
ATOM     50  C   UNL     1       2.041  -6.957  28.695  0.00  0.00    +0.032 C 
ATOM     51  C   UNL     1       0.956  -5.935  29.033  0.00  0.00    +0.014 C 
ATOM     52  C   UNL     1       2.244  -7.937  29.851  0.00  0.00    +0.014 C 
ENDBRANCH  48  50
ENDBRANCH  42  45
BRANCH  38  53
ATOM     53  O   UNL     1       9.024  -2.465  22.115  0.00  0.00    -0.495 OA
ATOM     54  C   UNL     1       9.853  -1.413  21.640  0.00  0.00    +0.277 C 
ENDBRANCH  38  53
ENDBRANCH  33  34
ENDBRANCH  15  33
TORSDOF 8
ENDMDL
MODEL 4
REMARK VINA RESULT:      -6.1      2.091      4.341
REMARK  Name = 
REMARK  13 active torsions:
REMARK  status: ('A' for Active; 'I' for Inactive)
REMARK    1  A    between atoms: C_4  and  C_47
REMARK    2  A    between atoms: C_11  and  O_25
REMARK    3  A    between atoms: N_17  and  C_18
REMARK    4  A    between atoms: O_25  and  C_26
REMARK    5  A    between atoms: C_28  and  C_39
REMARK    6  A    between atoms: C_31  and  C_32
REMARK    7  A    between atoms: C_33  and  O_34
REMARK    8  A    between atoms: O_34  and  C_35
REMARK    9  A    between atoms: C_41  and  C_44
REMARK   10  A    between atoms: C_44  and  C_45
REMARK   11  A    between atoms: C_44  and  C_46
REMARK   12  A    between atoms: N_49  and  S_50
REMARK   13  A    between atoms: S_50  and  C_53
REMARK                            x       y       z     vdW  Elec       q    Type
REMARK                         _______ _______ _______ _____ _____    ______ ____
ROOT
ATOM      1  C   UNL     1       6.235   4.419  24.207  0.00  0.00    +0.046 C 
ATOM      2  C   UNL     1       4.745   4.384  24.276  0.00  0.00    -0.025 C 
ATOM      3  C   UNL     1       3.834   3.450  23.963  0.00  0.00    -0.031 C 
ATOM      4  C   UNL     1       2.335   3.743  23.985  0.00  0.00    +0.027 C 
ATOM      5  C   UNL     1       1.476   2.969  25.022  0.00  0.00    +0.006 C 
ATOM      6  C   UNL     1       1.418   3.564  26.469  0.00  0.00    +0.019 C 
ATOM      7  C   UNL     1       1.435   2.462  27.620  0.00  0.00    +0.107 C 
ATOM      8  N   UNL     1       2.214   2.807  28.885  0.00  0.00    -0.304 N 
ATOM      9  C   UNL     1       1.672   3.894  29.662  0.00  0.00    +0.132 C 
ATOM     10  C   UNL     1       3.525   2.324  29.344  0.00  0.00    +0.219 C 
ATOM     11  O   UNL     1       3.657   1.809  30.443  0.00  0.00    -0.275 OA
ATOM     12  C   UNL     1       4.749   2.713  28.412  0.00  0.00    +0.091 C 
ATOM     13  C   UNL     1       6.162   1.988  28.180  0.00  0.00    +0.090 C 
ATOM     14  C   UNL     1       5.862   0.822  27.170  0.00  0.00    +0.058 C 
ATOM     15  C   UNL     1       4.359   0.853  27.151  0.00  0.00    +0.175 C 
ATOM     16  C   UNL     1       7.036   3.121  27.511  0.00  0.00    +0.218 C 
ATOM     17  O   UNL     1       7.345   4.139  28.121  0.00  0.00    -0.275 OA
ATOM     18  N   UNL     1       7.223   2.990  26.149  0.00  0.00    -0.301 N 
ATOM     19  H   UNL     1       7.533   2.083  25.808  0.00  0.00    +0.150 HD
ATOM     20  C   UNL     1       4.257   2.371  27.049  0.00  0.00    +0.058 C 
ATOM     21  C   UNL     1       7.402   4.058  25.188  0.00  0.00    +0.119 C 
ATOM     22  C   UNL     1       6.719   5.387  25.272  0.00  0.00    +0.046 C 
ENDROOT
BRANCH  21  23
ATOM     23  C   UNL     1       8.775   4.046  24.565  0.00  0.00    +0.256 C 
ATOM     24  N   UNL     1       9.078   2.845  23.858  0.00  0.00    -0.188 N 
ATOM     25  H   UNL     1       8.348   2.164  23.675  0.00  0.00    +0.176 HD
ATOM     26  O   UNL     1       9.537   4.964  24.666  0.00  0.00    -0.272 OA
BRANCH  24  27
ATOM     27  S   UNL     1      10.554   2.447  23.248  0.00  0.00    +0.048 S 
ATOM     28  O   UNL     1      11.479   3.507  23.598  0.00  0.00    -0.155 OA
ATOM     29  O   UNL     1      10.319   2.101  21.868  0.00  0.00    -0.155 OA
BRANCH  27  30
ATOM     30  C   UNL     1      11.135   0.958  24.121  0.00  0.00    +0.151 C 
ATOM     31  C   UNL     1      10.507  -0.345  23.703  0.00  0.00    +0.030 C 
ATOM     32  C   UNL     1      10.076   0.319  24.984  0.00  0.00    +0.030 C 
ENDBRANCH  27  30
ENDBRANCH  24  27
ENDBRANCH  21  23
BRANCH  15  33
ATOM     33  O   UNL     1       3.759   0.113  26.125  0.00  0.00    -0.488 OA
BRANCH  33  34
ATOM     34  C   UNL     1       3.819  -1.262  26.312  0.00  0.00    +0.132 A 
ATOM     35  C   UNL     1       4.812  -1.929  25.579  0.00  0.00    +0.043 A 
ATOM     36  C   UNL     1       4.977  -3.311  25.791  0.00  0.00    +0.082 A 
ATOM     37  C   UNL     1       5.975  -3.988  25.082  0.00  0.00    +0.017 A 
ATOM     38  C   UNL     1       6.819  -3.293  24.192  0.00  0.00    +0.125 A 
ATOM     39  C   UNL     1       6.649  -1.928  23.993  0.00  0.00    +0.047 A 
ATOM     40  C   UNL     1       6.167  -5.476  25.268  0.00  0.00    +0.050 C 
ATOM     41  N   UNL     1       4.227  -3.981  26.683  0.00  0.00    -0.244 NA
ATOM     42  C   UNL     1       3.280  -3.334  27.398  0.00  0.00    +0.100 A 
ATOM     43  C   UNL     1       5.643  -1.254  24.671  0.00  0.00    +0.017 A 
ATOM     44  C   UNL     1       3.021  -1.991  27.205  0.00  0.00    +0.076 A 
BRANCH  42  45
ATOM     45  C   UNL     1       2.616  -4.113  28.471  0.00  0.00    +0.127 A 
ATOM     46  S   UNL     1       2.129  -3.332  29.937  0.00  0.00    -0.074 S 
ATOM     47  C   UNL     1       1.417  -4.781  30.485  0.00  0.00    +0.070 A 
ATOM     48  C   UNL     1       1.596  -5.785  29.555  0.00  0.00    +0.052 A 
ATOM     49  N   UNL     1       2.281  -5.395  28.406  0.00  0.00    -0.242 NA
BRANCH  48  50
ATOM     50  C   UNL     1       1.118  -7.206  29.704  0.00  0.00    +0.032 C 
ATOM     51  C   UNL     1       2.126  -8.058  30.472  0.00  0.00    +0.014 C 
ATOM     52  C   UNL     1       0.789  -7.839  28.352  0.00  0.00    +0.014 C 
ENDBRANCH  48  50
ENDBRANCH  42  45
BRANCH  38  53
ATOM     53  O   UNL     1       7.791  -4.046  23.580  0.00  0.00    -0.495 OA
ATOM     54  C   UNL     1       7.489  -4.558  22.289  0.00  0.00    +0.277 C 
ENDBRANCH  38  53
ENDBRANCH  33  34
ENDBRANCH  15  33
TORSDOF 8
ENDMDL
MODEL 5
REMARK VINA RESULT:      -5.8      2.324      4.439
REMARK  Name = 
REMARK  13 active torsions:
REMARK  status: ('A' for Active; 'I' for Inactive)
REMARK    1  A    between atoms: C_4  and  C_47
REMARK    2  A    between atoms: C_11  and  O_25
REMARK    3  A    between atoms: N_17  and  C_18
REMARK    4  A    between atoms: O_25  and  C_26
REMARK    5  A    between atoms: C_28  and  C_39
REMARK    6  A    between atoms: C_31  and  C_32
REMARK    7  A    between atoms: C_33  and  O_34
REMARK    8  A    between atoms: O_34  and  C_35
REMARK    9  A    between atoms: C_41  and  C_44
REMARK   10  A    between atoms: C_44  and  C_45
REMARK   11  A    between atoms: C_44  and  C_46
REMARK   12  A    between atoms: N_49  and  S_50
REMARK   13  A    between atoms: S_50  and  C_53
REMARK                            x       y       z     vdW  Elec       q    Type
REMARK                         _______ _______ _______ _____ _____    ______ ____
ROOT
ATOM      1  C   UNL     1       6.373   5.913  23.794  0.00  0.00    +0.046 C 
ATOM      2  C   UNL     1       4.961   5.536  23.494  0.00  0.00    -0.025 C 
ATOM      3  C   UNL     1       4.390   4.414  23.030  0.00  0.00    -0.031 C 
ATOM      4  C   UNL     1       2.910   4.353  22.659  0.00  0.00    +0.027 C 
ATOM      5  C   UNL     1       2.006   3.413  23.502  0.00  0.00    +0.006 C 
ATOM      6  C   UNL     1       1.447   3.993  24.844  0.00  0.00    +0.019 C 
ATOM      7  C   UNL     1       1.410   2.937  26.036  0.00  0.00    +0.107 C 
ATOM      8  N   UNL     1       1.741   3.466  27.428  0.00  0.00    -0.304 N 
ATOM      9  C   UNL     1       0.792   4.406  27.969  0.00  0.00    +0.132 C 
ATOM     10  C   UNL     1       2.962   3.303  28.230  0.00  0.00    +0.219 C 
ATOM     11  O   UNL     1       2.918   2.843  29.361  0.00  0.00    -0.275 OA
ATOM     12  C   UNL     1       4.268   3.954  27.606  0.00  0.00    +0.091 C 
ATOM     13  C   UNL     1       5.817   3.572  27.783  0.00  0.00    +0.090 C 
ATOM     14  C   UNL     1       6.052   2.358  26.814  0.00  0.00    +0.058 C 
ATOM     15  C   UNL     1       4.637   2.041  26.420  0.00  0.00    +0.175 C 
ATOM     16  C   UNL     1       6.562   4.869  27.275  0.00  0.00    +0.218 C 
ATOM     17  O   UNL     1       6.472   5.937  27.871  0.00  0.00    -0.275 OA
ATOM     18  N   UNL     1       7.117   4.771  26.015  0.00  0.00    -0.301 N 
ATOM     19  H   UNL     1       7.697   3.956  25.824  0.00  0.00    +0.150 HD
ATOM     20  C   UNL     1       4.232   3.493  26.192  0.00  0.00    +0.058 C 
ATOM     21  C   UNL     1       7.298   5.841  25.057  0.00  0.00    +0.119 C 
ATOM     22  C   UNL     1       6.341   6.978  24.877  0.00  0.00    +0.046 C 
ENDROOT
BRANCH  21  23
ATOM     23  C   UNL     1       8.752   6.140  24.796  0.00  0.00    +0.256 C 
ATOM     24  N   UNL     1       9.406   5.164  23.988  0.00  0.00    -0.188 N 
ATOM     25  H   UNL     1       8.865   4.447  23.517  0.00  0.00    +0.176 HD
ATOM     26  O   UNL     1       9.301   7.108  25.238  0.00  0.00    -0.272 OA
BRANCH  24  27
ATOM     27  S   UNL     1      11.026   5.100  23.698  0.00  0.00    +0.048 S 
ATOM     28  O   UNL     1      11.711   5.440  24.929  0.00  0.00    -0.155 OA
ATOM     29  O   UNL     1      11.233   5.877  22.501  0.00  0.00    -0.155 OA
BRANCH  27  30
ATOM     30  C   UNL     1      11.459   3.368  23.339  0.00  0.00    +0.151 C 
ATOM     31  C   UNL     1      10.445   2.578  22.554  0.00  0.00    +0.030 C 
ATOM     32  C   UNL     1      10.572   2.371  24.040  0.00  0.00    +0.030 C 
ENDBRANCH  27  30
ENDBRANCH  24  27
ENDBRANCH  21  23
BRANCH  15  33
ATOM     33  O   UNL     1       4.498   1.173  25.331  0.00  0.00    -0.488 OA
BRANCH  33  34
ATOM     34  C   UNL     1       4.923  -0.125  25.588  0.00  0.00    +0.132 A 
ATOM     35  C   UNL     1       5.947  -0.602  24.757  0.00  0.00    +0.043 A 
ATOM     36  C   UNL     1       6.477  -1.879  25.023  0.00  0.00    +0.082 A 
ATOM     37  C   UNL     1       7.511  -2.363  24.215  0.00  0.00    +0.017 A 
ATOM     38  C   UNL     1       8.034  -1.573  23.171  0.00  0.00    +0.125 A 
ATOM     39  C   UNL     1       7.506  -0.313  22.919  0.00  0.00    +0.047 A 
ATOM     40  C   UNL     1       8.090  -3.738  24.459  0.00  0.00    +0.050 C 
ATOM     41  N   UNL     1       6.039  -2.622  26.055  0.00  0.00    -0.244 NA
ATOM     42  C   UNL     1       5.061  -2.155  26.863  0.00  0.00    +0.100 A 
ATOM     43  C   UNL     1       6.460   0.163  23.697  0.00  0.00    +0.017 A 
ATOM     44  C   UNL     1       4.454  -0.937  26.631  0.00  0.00    +0.076 A 
BRANCH  42  45
ATOM     45  C   UNL     1       4.756  -2.966  28.066  0.00  0.00    +0.127 A 
ATOM     46  S   UNL     1       3.798  -2.298  29.344  0.00  0.00    -0.074 S 
ATOM     47  C   UNL     1       3.835  -3.790  30.167  0.00  0.00    +0.070 A 
ATOM     48  C   UNL     1       4.579  -4.711  29.458  0.00  0.00    +0.052 A 
ATOM     49  N   UNL     1       5.101  -4.232  28.257  0.00  0.00    -0.242 NA
BRANCH  48  50
ATOM     50  C   UNL     1       4.847  -6.131  29.885  0.00  0.00    +0.032 C 
ATOM     51  C   UNL     1       6.197  -6.625  29.369  0.00  0.00    +0.014 C 
ATOM     52  C   UNL     1       3.721  -7.073  29.459  0.00  0.00    +0.014 C 
ENDBRANCH  48  50
ENDBRANCH  42  45
BRANCH  38  53
ATOM     53  O   UNL     1       9.076  -2.127  22.468  0.00  0.00    -0.495 OA
ATOM     54  C   UNL     1      10.360  -1.551  22.664  0.00  0.00    +0.277 C 
ENDBRANCH  38  53
ENDBRANCH  33  34
ENDBRANCH  15  33
TORSDOF 8
ENDMDL
MODEL 6
REMARK VINA RESULT:      -5.8      1.233      2.025
REMARK  Name = 
REMARK  13 active torsions:
REMARK  status: ('A' for Active; 'I' for Inactive)
REMARK    1  A    between atoms: C_4  and  C_47
REMARK    2  A    between atoms: C_11  and  O_25
REMARK    3  A    between atoms: N_17  and  C_18
REMARK    4  A    between atoms: O_25  and  C_26
REMARK    5  A    between atoms: C_28  and  C_39
REMARK    6  A    between atoms: C_31  and  C_32
REMARK    7  A    between atoms: C_33  and  O_34
REMARK    8  A    between atoms: O_34  and  C_35
REMARK    9  A    between atoms: C_41  and  C_44
REMARK   10  A    between atoms: C_44  and  C_45
REMARK   11  A    between atoms: C_44  and  C_46
REMARK   12  A    between atoms: N_49  and  S_50
REMARK   13  A    between atoms: S_50  and  C_53
REMARK                            x       y       z     vdW  Elec       q    Type
REMARK                         _______ _______ _______ _____ _____    ______ ____
ROOT
ATOM      1  C   UNL     1       5.411   4.396  23.477  0.00  0.00    +0.046 C 
ATOM      2  C   UNL     1       3.949   4.271  23.750  0.00  0.00    -0.025 C 
ATOM      3  C   UNL     1       3.116   3.221  23.823  0.00  0.00    -0.031 C 
ATOM      4  C   UNL     1       1.606   3.396  23.964  0.00  0.00    +0.027 C 
ATOM      5  C   UNL     1       0.952   2.880  25.275  0.00  0.00    +0.006 C 
ATOM      6  C   UNL     1       0.984   3.849  26.504  0.00  0.00    +0.019 C 
ATOM      7  C   UNL     1       1.244   3.116  27.895  0.00  0.00    +0.107 C 
ATOM      8  N   UNL     1       2.112   3.857  28.906  0.00  0.00    -0.304 N 
ATOM      9  C   UNL     1       1.543   5.074  29.429  0.00  0.00    +0.132 C 
ATOM     10  C   UNL     1       3.509   3.620  29.300  0.00  0.00    +0.219 C 
ATOM     11  O   UNL     1       3.813   3.443  30.469  0.00  0.00    -0.275 OA
ATOM     12  C   UNL     1       4.577   3.824  28.143  0.00  0.00    +0.091 C 
ATOM     13  C   UNL     1       6.027   3.170  27.929  0.00  0.00    +0.090 C 
ATOM     14  C   UNL     1       5.748   1.750  27.317  0.00  0.00    +0.058 C 
ATOM     15  C   UNL     1       4.258   1.662  27.490  0.00  0.00    +0.175 C 
ATOM     16  C   UNL     1       6.697   4.133  26.871  0.00  0.00    +0.218 C 
ATOM     17  O   UNL     1       6.958   5.301  27.140  0.00  0.00    -0.275 OA
ATOM     18  N   UNL     1       6.749   3.643  25.582  0.00  0.00    -0.301 N 
ATOM     19  H   UNL     1       7.117   2.701  25.457  0.00  0.00    +0.150 HD
ATOM     20  C   UNL     1       3.982   3.080  27.000  0.00  0.00    +0.058 C 
ATOM     21  C   UNL     1       6.708   4.410  24.355  0.00  0.00    +0.119 C 
ATOM     22  C   UNL     1       5.899   5.656  24.170  0.00  0.00    +0.046 C 
ENDROOT
BRANCH  21  23
ATOM     23  C   UNL     1       7.999   4.328  23.581  0.00  0.00    +0.256 C 
ATOM     24  N   UNL     1       8.855   3.265  23.997  0.00  0.00    -0.188 N 
ATOM     25  H   UNL     1       8.513   2.557  24.638  0.00  0.00    +0.176 HD
ATOM     26  O   UNL     1       8.275   5.094  22.703  0.00  0.00    -0.272 OA
BRANCH  24  27
ATOM     27  S   UNL     1      10.406   3.040  23.492  0.00  0.00    +0.048 S 
ATOM     28  O   UNL     1      10.389   2.918  22.048  0.00  0.00    -0.155 OA
ATOM     29  O   UNL     1      10.927   1.975  24.315  0.00  0.00    -0.155 OA
BRANCH  27  30
ATOM     30  C   UNL     1      11.338   4.559  23.863  0.00  0.00    +0.151 C 
ATOM     31  C   UNL     1      11.785   5.371  22.676  0.00  0.00    +0.030 C 
ATOM     32  C   UNL     1      12.775   4.506  23.409  0.00  0.00    +0.030 C 
ENDBRANCH  27  30
ENDBRANCH  24  27
ENDBRANCH  21  23
BRANCH  15  33
ATOM     33  O   UNL     1       3.634   0.624  26.788  0.00  0.00    -0.488 OA
BRANCH  33  34
ATOM     34  C   UNL     1       4.425  -0.509  26.637  0.00  0.00    +0.132 A 
ATOM     35  C   UNL     1       4.228  -1.516  27.593  0.00  0.00    +0.043 A 
ATOM     36  C   UNL     1       4.939  -2.722  27.443  0.00  0.00    +0.082 A 
ATOM     37  C   UNL     1       4.740  -3.744  28.377  0.00  0.00    +0.017 A 
ATOM     38  C   UNL     1       3.822  -3.580  29.434  0.00  0.00    +0.125 A 
ATOM     39  C   UNL     1       3.122  -2.387  29.571  0.00  0.00    +0.047 A 
ATOM     40  C   UNL     1       5.503  -5.043  28.259  0.00  0.00    +0.050 C 
ATOM     41  N   UNL     1       5.770  -2.924  26.406  0.00  0.00    -0.244 NA
ATOM     42  C   UNL     1       5.949  -1.958  25.478  0.00  0.00    +0.100 A 
ATOM     43  C   UNL     1       3.335  -1.357  28.665  0.00  0.00    +0.017 A 
ATOM     44  C   UNL     1       5.330  -0.728  25.588  0.00  0.00    +0.076 A 
BRANCH  42  45
ATOM     45  C   UNL     1       6.752  -2.326  24.287  0.00  0.00    +0.127 A 
ATOM     46  S   UNL     1       6.317  -3.706  23.338  0.00  0.00    -0.074 S 
ATOM     47  C   UNL     1       7.557  -3.346  22.226  0.00  0.00    +0.070 A 
ATOM     48  C   UNL     1       8.252  -2.224  22.628  0.00  0.00    +0.052 A 
ATOM     49  N   UNL     1       7.785  -1.645  23.807  0.00  0.00    -0.242 NA
BRANCH  48  50
ATOM     50  C   UNL     1       9.427  -1.619  21.905  0.00  0.00    +0.032 C 
ATOM     51  C   UNL     1      10.683  -1.623  22.774  0.00  0.00    +0.014 C 
ATOM     52  C   UNL     1       9.118  -0.210  21.399  0.00  0.00    +0.014 C 
ENDBRANCH  48  50
ENDBRANCH  42  45
BRANCH  38  53
ATOM     53  O   UNL     1       3.673  -4.661  30.269  0.00  0.00    -0.495 OA
ATOM     54  C   UNL     1       2.431  -5.349  30.211  0.00  0.00    +0.277 C 
ENDBRANCH  38  53
ENDBRANCH  33  34
ENDBRANCH  15  33
TORSDOF 8
ENDMDL
MODEL 7
REMARK VINA RESULT:      -5.7      3.387      9.360
REMARK  Name = 
REMARK  13 active torsions:
REMARK  status: ('A' for Active; 'I' for Inactive)
REMARK    1  A    between atoms: C_4  and  C_47
REMARK    2  A    between atoms: C_11  and  O_25
REMARK    3  A    between atoms: N_17  and  C_18
REMARK    4  A    between atoms: O_25  and  C_26
REMARK    5  A    between atoms: C_28  and  C_39
REMARK    6  A    between atoms: C_31  and  C_32
REMARK    7  A    between atoms: C_33  and  O_34
REMARK    8  A    between atoms: O_34  and  C_35
REMARK    9  A    between atoms: C_41  and  C_44
REMARK   10  A    between atoms: C_44  and  C_45
REMARK   11  A    between atoms: C_44  and  C_46
REMARK   12  A    between atoms: N_49  and  S_50
REMARK   13  A    between atoms: S_50  and  C_53
REMARK                            x       y       z     vdW  Elec       q    Type
REMARK                         _______ _______ _______ _____ _____    ______ ____
ROOT
ATOM      1  C   UNL     1       4.835  -4.824  24.132  0.00  0.00    +0.046 C 
ATOM      2  C   UNL     1       6.048  -4.154  23.579  0.00  0.00    -0.025 C 
ATOM      3  C   UNL     1       6.226  -3.072  22.806  0.00  0.00    -0.031 C 
ATOM      4  C   UNL     1       7.596  -2.693  22.247  0.00  0.00    +0.027 C 
ATOM      5  C   UNL     1       8.215  -1.355  22.734  0.00  0.00    +0.006 C 
ATOM      6  C   UNL     1       8.994  -1.395  24.091  0.00  0.00    +0.019 C 
ATOM      7  C   UNL     1       8.773  -0.106  25.000  0.00  0.00    +0.107 C 
ATOM      8  N   UNL     1       8.692  -0.336  26.505  0.00  0.00    -0.304 N 
ATOM      9  C   UNL     1       9.909  -0.802  27.121  0.00  0.00    +0.132 C 
ATOM     10  C   UNL     1       7.524  -0.326  27.398  0.00  0.00    +0.219 C 
ATOM     11  O   UNL     1       7.487   0.399  28.380  0.00  0.00    -0.275 OA
ATOM     12  C   UNL     1       6.446  -1.454  27.107  0.00  0.00    +0.091 C 
ATOM     13  C   UNL     1       4.866  -1.491  27.387  0.00  0.00    +0.090 C 
ATOM     14  C   UNL     1       4.222  -0.679  26.206  0.00  0.00    +0.058 C 
ATOM     15  C   UNL     1       5.451  -0.087  25.576  0.00  0.00    +0.175 C 
ATOM     16  C   UNL     1       4.524  -3.030  27.283  0.00  0.00    +0.218 C 
ATOM     17  O   UNL     1       4.966  -3.842  28.089  0.00  0.00    -0.275 OA
ATOM     18  N   UNL     1       3.899  -3.414  26.113  0.00  0.00    -0.301 N 
ATOM     19  H   UNL     1       3.090  -2.871  25.819  0.00  0.00    +0.150 HD
ATOM     20  C   UNL     1       6.265  -1.375  25.632  0.00  0.00    +0.058 C 
ATOM     21  C   UNL     1       4.001  -4.698  25.453  0.00  0.00    +0.119 C 
ATOM     22  C   UNL     1       5.247  -5.527  25.415  0.00  0.00    +0.046 C 
ENDROOT
BRANCH  21  23
ATOM     23  C   UNL     1       2.694  -5.450  25.452  0.00  0.00    +0.256 C 
ATOM     24  N   UNL     1       2.843  -6.866  25.359  0.00  0.00    -0.188 N 
ATOM     25  H   UNL     1       3.760  -7.289  25.458  0.00  0.00    +0.176 HD
ATOM     26  O   UNL     1       1.633  -4.899  25.516  0.00  0.00    -0.272 OA
BRANCH  24  27
ATOM     27  S   UNL     1       1.614  -7.937  25.131  0.00  0.00    +0.048 S 
ATOM     28  O   UNL     1       0.692  -7.798  26.240  0.00  0.00    -0.155 OA
ATOM     29  O   UNL     1       2.253  -9.202  24.860  0.00  0.00    -0.155 OA
BRANCH  27  30
ATOM     30  C   UNL     1       0.699  -7.427  23.641  0.00  0.00    +0.151 C 
ATOM     31  C   UNL     1       0.733  -8.384  22.480  0.00  0.00    +0.030 C 
ATOM     32  C   UNL     1       1.590  -7.147  22.458  0.00  0.00    +0.030 C 
ENDBRANCH  27  30
ENDBRANCH  24  27
ENDBRANCH  21  23
BRANCH  15  33
ATOM     33  O   UNL     1       5.261   0.480  24.310  0.00  0.00    -0.488 OA
BRANCH  33  34
ATOM     34  C   UNL     1       5.839   1.735  24.162  0.00  0.00    +0.132 A 
ATOM     35  C   UNL     1       4.994   2.824  24.423  0.00  0.00    +0.043 A 
ATOM     36  C   UNL     1       5.545   4.119  24.372  0.00  0.00    +0.082 A 
ATOM     37  C   UNL     1       4.721   5.215  24.647  0.00  0.00    +0.017 A 
ATOM     38  C   UNL     1       3.369   5.024  24.997  0.00  0.00    +0.125 A 
ATOM     39  C   UNL     1       2.836   3.742  25.048  0.00  0.00    +0.047 A 
ATOM     40  C   UNL     1       5.274   6.620  24.581  0.00  0.00    +0.050 C 
ATOM     41  N   UNL     1       6.848   4.319  24.105  0.00  0.00    -0.244 NA
ATOM     42  C   UNL     1       7.663   3.268  23.867  0.00  0.00    +0.100 A 
ATOM     43  C   UNL     1       3.639   2.651  24.748  0.00  0.00    +0.017 A 
ATOM     44  C   UNL     1       7.183   1.973  23.844  0.00  0.00    +0.076 A 
BRANCH  42  45
ATOM     45  C   UNL     1       9.110   3.569  23.744  0.00  0.00    +0.127 A 
ATOM     46  S   UNL     1      10.247   2.286  23.507  0.00  0.00    -0.074 S 
ATOM     47  C   UNL     1      11.512   3.420  23.360  0.00  0.00    +0.070 A 
ATOM     48  C   UNL     1      11.027   4.703  23.517  0.00  0.00    +0.052 A 
ATOM     49  N   UNL     1       9.652   4.779  23.734  0.00  0.00    -0.242 NA
BRANCH  48  50
ATOM     50  C   UNL     1      11.855   5.960  23.469  0.00  0.00    +0.032 C 
ATOM     51  C   UNL     1      13.191   5.724  22.767  0.00  0.00    +0.014 C 
ATOM     52  C   UNL     1      12.068   6.553  24.862  0.00  0.00    +0.014 C 
ENDBRANCH  48  50
ENDBRANCH  42  45
BRANCH  38  53
ATOM     53  O   UNL     1       2.661   6.165  25.289  0.00  0.00    -0.495 OA
ATOM     54  C   UNL     1       1.263   6.018  25.497  0.00  0.00    +0.277 C 
ENDBRANCH  38  53
ENDBRANCH  33  34
ENDBRANCH  15  33
TORSDOF 8
ENDMDL
MODEL 8
REMARK VINA RESULT:      -5.4      3.621      9.642
REMARK  Name = 
REMARK  13 active torsions:
REMARK  status: ('A' for Active; 'I' for Inactive)
REMARK    1  A    between atoms: C_4  and  C_47
REMARK    2  A    between atoms: C_11  and  O_25
REMARK    3  A    between atoms: N_17  and  C_18
REMARK    4  A    between atoms: O_25  and  C_26
REMARK    5  A    between atoms: C_28  and  C_39
REMARK    6  A    between atoms: C_31  and  C_32
REMARK    7  A    between atoms: C_33  and  O_34
REMARK    8  A    between atoms: O_34  and  C_35
REMARK    9  A    between atoms: C_41  and  C_44
REMARK   10  A    between atoms: C_44  and  C_45
REMARK   11  A    between atoms: C_44  and  C_46
REMARK   12  A    between atoms: N_49  and  S_50
REMARK   13  A    between atoms: S_50  and  C_53
REMARK                            x       y       z     vdW  Elec       q    Type
REMARK                         _______ _______ _______ _____ _____    ______ ____
ROOT
ATOM      1  C   UNL     1       4.839  -3.844  23.791  0.00  0.00    +0.046 C 
ATOM      2  C   UNL     1       6.192  -3.365  23.383  0.00  0.00    -0.025 C 
ATOM      3  C   UNL     1       6.612  -2.360  22.600  0.00  0.00    -0.031 C 
ATOM      4  C   UNL     1       8.080  -2.190  22.219  0.00  0.00    +0.027 C 
ATOM      5  C   UNL     1       8.803  -0.915  22.734  0.00  0.00    +0.006 C 
ATOM      6  C   UNL     1       9.386  -0.977  24.186  0.00  0.00    +0.019 C 
ATOM      7  C   UNL     1       9.221   0.380  25.004  0.00  0.00    +0.107 C 
ATOM      8  N   UNL     1       8.914   0.247  26.493  0.00  0.00    -0.304 N 
ATOM      9  C   UNL     1       9.968  -0.334  27.287  0.00  0.00    +0.132 C 
ATOM     10  C   UNL     1       7.651   0.456  27.215  0.00  0.00    +0.219 C 
ATOM     11  O   UNL     1       7.583   1.233  28.154  0.00  0.00    -0.275 OA
ATOM     12  C   UNL     1       6.480  -0.542  26.824  0.00  0.00    +0.091 C 
ATOM     13  C   UNL     1       4.886  -0.363  26.886  0.00  0.00    +0.090 C 
ATOM     14  C   UNL     1       4.517   0.456  25.597  0.00  0.00    +0.058 C 
ATOM     15  C   UNL     1       5.885   0.851  25.119  0.00  0.00    +0.175 C 
ATOM     16  C   UNL     1       4.360  -1.849  26.796  0.00  0.00    +0.218 C 
ATOM     17  O   UNL     1       4.581  -2.664  27.686  0.00  0.00    -0.275 OA
ATOM     18  N   UNL     1       3.847  -2.217  25.568  0.00  0.00    -0.301 N 
ATOM     19  H   UNL     1       3.163  -1.593  25.144  0.00  0.00    +0.150 HD
ATOM     20  C   UNL     1       6.506  -0.524  25.336  0.00  0.00    +0.058 C 
ATOM     21  C   UNL     1       3.863  -3.539  24.978  0.00  0.00    +0.119 C 
ATOM     22  C   UNL     1       4.982  -4.519  25.144  0.00  0.00    +0.046 C 
ENDROOT
BRANCH  21  23
ATOM     23  C   UNL     1       2.479  -4.118  24.828  0.00  0.00    +0.256 C 
ATOM     24  N   UNL     1       2.467  -5.488  24.430  0.00  0.00    -0.188 N 
ATOM     25  H   UNL     1       3.328  -6.025  24.427  0.00  0.00    +0.176 HD
ATOM     26  O   UNL     1       1.487  -3.476  25.019  0.00  0.00    -0.272 OA
BRANCH  24  27
ATOM     27  S   UNL     1       1.128  -6.337  23.988  0.00  0.00    +0.048 S 
ATOM     28  O   UNL     1       0.456  -5.594  22.941  0.00  0.00    -0.155 OA
ATOM     29  O   UNL     1       0.448  -6.651  25.221  0.00  0.00    -0.155 OA
BRANCH  27  30
ATOM     30  C   UNL     1       1.684  -7.896  23.228  0.00  0.00    +0.151 C 
ATOM     31  C   UNL     1       1.077  -8.238  21.893  0.00  0.00    +0.030 C 
ATOM     32  C   UNL     1       0.598  -8.938  23.137  0.00  0.00    +0.030 C 
ENDBRANCH  27  30
ENDBRANCH  24  27
ENDBRANCH  21  23
BRANCH  15  33
ATOM     33  O   UNL     1       5.939   1.365  23.818  0.00  0.00    -0.488 OA
BRANCH  33  34
ATOM     34  C   UNL     1       6.091   2.745  23.763  0.00  0.00    +0.132 A 
ATOM     35  C   UNL     1       5.000   3.453  23.237  0.00  0.00    +0.043 A 
ATOM     36  C   UNL     1       5.061   4.860  23.235  0.00  0.00    +0.082 A 
ATOM     37  C   UNL     1       3.974   5.582  22.731  0.00  0.00    +0.017 A 
ATOM     38  C   UNL     1       2.825   4.913  22.261  0.00  0.00    +0.125 A 
ATOM     39  C   UNL     1       2.774   3.524  22.272  0.00  0.00    +0.047 A 
ATOM     40  C   UNL     1       4.013   7.092  22.694  0.00  0.00    +0.050 C 
ATOM     41  N   UNL     1       6.119   5.519  23.739  0.00  0.00    -0.244 NA
ATOM     42  C   UNL     1       7.163   4.836  24.257  0.00  0.00    +0.100 A 
ATOM     43  C   UNL     1       3.860   2.800  22.743  0.00  0.00    +0.017 A 
ATOM     44  C   UNL     1       7.201   3.456  24.243  0.00  0.00    +0.076 A 
BRANCH  42  45
ATOM     45  C   UNL     1       8.207   5.641  24.936  0.00  0.00    +0.127 A 
ATOM     46  S   UNL     1       7.882   6.367  26.473  0.00  0.00    -0.074 S 
ATOM     47  C   UNL     1       9.490   6.926  26.561  0.00  0.00    +0.070 A 
ATOM     48  C   UNL     1      10.188   6.562  25.427  0.00  0.00    +0.052 A 
ATOM     49  N   UNL     1       9.448   5.825  24.503  0.00  0.00    -0.242 NA
BRANCH  48  50
ATOM     50  C   UNL     1      11.629   6.897  25.144  0.00  0.00    +0.032 C 
ATOM     51  C   UNL     1      12.266   5.879  24.201  0.00  0.00    +0.014 C 
ATOM     52  C   UNL     1      12.443   7.032  26.431  0.00  0.00    +0.014 C 
ENDBRANCH  48  50
ENDBRANCH  42  45
BRANCH  38  53
ATOM     53  O   UNL     1       1.800   5.719  21.829  0.00  0.00    -0.495 OA
ATOM     54  C   UNL     1       0.497   5.153  21.826  0.00  0.00    +0.277 C 
ENDBRANCH  38  53
ENDBRANCH  33  34
ENDBRANCH  15  33
TORSDOF 8
ENDMDL
MODEL 9
REMARK VINA RESULT:      -5.3      2.439      3.352
REMARK  Name = 
REMARK  13 active torsions:
REMARK  status: ('A' for Active; 'I' for Inactive)
REMARK    1  A    between atoms: C_4  and  C_47
REMARK    2  A    between atoms: C_11  and  O_25
REMARK    3  A    between atoms: N_17  and  C_18
REMARK    4  A    between atoms: O_25  and  C_26
REMARK    5  A    between atoms: C_28  and  C_39
REMARK    6  A    between atoms: C_31  and  C_32
REMARK    7  A    between atoms: C_33  and  O_34
REMARK    8  A    between atoms: O_34  and  C_35
REMARK    9  A    between atoms: C_41  and  C_44
REMARK   10  A    between atoms: C_44  and  C_45
REMARK   11  A    between atoms: C_44  and  C_46
REMARK   12  A    between atoms: N_49  and  S_50
REMARK   13  A    between atoms: S_50  and  C_53
REMARK                            x       y       z     vdW  Elec       q    Type
REMARK                         _______ _______ _______ _____ _____    ______ ____
ROOT
ATOM      1  C   UNL     1       7.179   4.165  22.967  0.00  0.00    +0.046 C 
ATOM      2  C   UNL     1       5.751   4.136  22.534  0.00  0.00    -0.025 C 
ATOM      3  C   UNL     1       4.801   3.190  22.568  0.00  0.00    -0.031 C 
ATOM      4  C   UNL     1       3.442   3.383  21.899  0.00  0.00    +0.027 C 
ATOM      5  C   UNL     1       2.195   3.420  22.823  0.00  0.00    +0.006 C 
ATOM      6  C   UNL     1       1.850   4.798  23.482  0.00  0.00    +0.019 C 
ATOM      7  C   UNL     1       1.332   4.682  24.984  0.00  0.00    +0.107 C 
ATOM      8  N   UNL     1       1.778   5.777  25.947  0.00  0.00    -0.304 N 
ATOM      9  C   UNL     1       1.261   7.093  25.662  0.00  0.00    +0.132 C 
ATOM     10  C   UNL     1       2.789   5.738  27.014  0.00  0.00    +0.219 C 
ATOM     11  O   UNL     1       2.506   6.044  28.162  0.00  0.00    -0.275 OA
ATOM     12  C   UNL     1       4.276   5.481  26.522  0.00  0.00    +0.091 C 
ATOM     13  C   UNL     1       5.529   4.819  27.275  0.00  0.00    +0.090 C 
ATOM     14  C   UNL     1       5.304   3.268  27.155  0.00  0.00    +0.058 C 
ATOM     15  C   UNL     1       3.902   3.233  26.614  0.00  0.00    +0.175 C 
ATOM     16  C   UNL     1       6.757   5.292  26.402  0.00  0.00    +0.218 C 
ATOM     17  O   UNL     1       7.074   6.475  26.327  0.00  0.00    -0.275 OA
ATOM     18  N   UNL     1       7.288   4.330  25.565  0.00  0.00    -0.301 N 
ATOM     19  H   UNL     1       7.500   3.423  25.976  0.00  0.00    +0.150 HD
ATOM     20  C   UNL     1       4.128   4.335  25.585  0.00  0.00    +0.058 C 
ATOM     21  C   UNL     1       7.932   4.547  24.287  0.00  0.00    +0.119 C 
ATOM     22  C   UNL     1       7.524   5.604  23.309  0.00  0.00    +0.046 C 
ENDROOT
BRANCH  21  23
ATOM     23  C   UNL     1       9.395   4.183  24.311  0.00  0.00    +0.256 C 
ATOM     24  N   UNL     1      10.268   5.286  24.075  0.00  0.00    -0.188 N 
ATOM     25  H   UNL     1       9.902   6.233  24.067  0.00  0.00    +0.176 HD
ATOM     26  O   UNL     1       9.779   3.065  24.503  0.00  0.00    -0.272 OA
BRANCH  24  27
ATOM     27  S   UNL     1      11.893   5.179  23.838  0.00  0.00    +0.048 S 
ATOM     28  O   UNL     1      12.235   3.774  23.735  0.00  0.00    -0.155 OA
ATOM     29  O   UNL     1      12.486   6.008  24.859  0.00  0.00    -0.155 OA
BRANCH  27  30
ATOM     30  C   UNL     1      12.269   5.913  22.214  0.00  0.00    +0.151 C 
ATOM     31  C   UNL     1      13.187   5.120  21.322  0.00  0.00    +0.030 C 
ATOM     32  C   UNL     1      13.712   6.321  22.061  0.00  0.00    +0.030 C 
ENDBRANCH  27  30
ENDBRANCH  24  27
ENDBRANCH  21  23
BRANCH  15  33
ATOM     33  O   UNL     1       3.481   1.992  26.122  0.00  0.00    -0.488 OA
BRANCH  33  34
ATOM     34  C   UNL     1       4.436   0.989  26.233  0.00  0.00    +0.132 A 
ATOM     35  C   UNL     1       3.999  -0.197  26.842  0.00  0.00    +0.043 A 
ATOM     36  C   UNL     1       4.897  -1.280  26.906  0.00  0.00    +0.082 A 
ATOM     37  C   UNL     1       4.472  -2.476  27.494  0.00  0.00    +0.017 A 
ATOM     38  C   UNL     1       3.158  -2.604  27.987  0.00  0.00    +0.125 A 
ATOM     39  C   UNL     1       2.279  -1.530  27.916  0.00  0.00    +0.047 A 
ATOM     40  C   UNL     1       5.416  -3.651  27.599  0.00  0.00    +0.050 C 
ATOM     41  N   UNL     1       6.133  -1.201  26.383  0.00  0.00    -0.244 NA
ATOM     42  C   UNL     1       6.547  -0.062  25.784  0.00  0.00    +0.100 A 
ATOM     43  C   UNL     1       2.701  -0.331  27.361  0.00  0.00    +0.017 A 
ATOM     44  C   UNL     1       5.744   1.060  25.733  0.00  0.00    +0.076 A 
BRANCH  42  45
ATOM     45  C   UNL     1       7.858  -0.118  25.093  0.00  0.00    +0.127 A 
ATOM     46  S   UNL     1       9.271  -0.631  25.951  0.00  0.00    -0.074 S 
ATOM     47  C   UNL     1      10.191  -0.529  24.519  0.00  0.00    +0.070 A 
ATOM     48  C   UNL     1       9.403  -0.095  23.472  0.00  0.00    +0.052 A 
ATOM     49  N   UNL     1       8.070   0.136  23.808  0.00  0.00    -0.242 NA
BRANCH  48  50
ATOM     50  C   UNL     1       9.875   0.132  22.060  0.00  0.00    +0.032 C 
ATOM     51  C   UNL     1       9.432   1.496  21.533  0.00  0.00    +0.014 C 
ATOM     52  C   UNL     1       9.423  -0.988  21.123  0.00  0.00    +0.014 C 
ENDBRANCH  48  50
ENDBRANCH  42  45
BRANCH  38  53
ATOM     53  O   UNL     1       2.832  -3.834  28.505  0.00  0.00    -0.495 OA
ATOM     54  C   UNL     1       2.276  -3.853  29.813  0.00  0.00    +0.277 C 
ENDBRANCH  38  53
ENDBRANCH  33  34
ENDBRANCH  15  33
TORSDOF 8
ENDMDL
