MODEL 1
REMARK VINA RESULT:      -6.5      0.000      0.000
REMARK  Name = 
REMARK  9 active torsions:
REMARK  status: ('A' for Active; 'I' for Inactive)
REMARK    1  A    between atoms: C_1  and  C_2
REMARK    2  A    between atoms: C_2  and  C_3
REMARK    3  A    between atoms: C_2  and  N_4
REMARK    4  A    between atoms: N_4  and  C_14
REMARK    5  A    between atoms: C_5  and  C_7
REMARK    6  A    between atoms: C_10  and  C_11
REMARK    7  A    between atoms: C_15  and  C_25
REMARK    8  A    between atoms: C_17  and  C_19
REMARK    9  A    between atoms: C_25  and  O_26
REMARK                            x       y       z     vdW  Elec       q    Type
REMARK                         _______ _______ _______ _____ _____    ______ ____
ROOT
ATOM      1  C   UNL     1       6.399  -2.891  26.269  0.00  0.00    +0.059 A 
ATOM      2  C   UNL     1       6.765  -1.783  25.429  0.00  0.00    +0.040 A 
ATOM      3  C   UNL     1       8.093  -1.813  25.040  0.00  0.00    +0.022 A 
ATOM      4  S   UNL     1       8.898  -3.138  25.772  0.00  0.00    -0.080 S 
ATOM      5  C   UNL     1       7.475  -3.732  26.508  0.00  0.00    +0.118 A 
ENDROOT
BRANCH   3   6
ATOM      6  C   UNL     1       8.852  -0.878  24.188  0.00  0.00    -0.011 A 
ATOM      7  C   UNL     1       8.544  -0.750  22.827  0.00  0.00    +0.009 A 
ATOM      8  C   UNL     1       9.195   0.200  22.030  0.00  0.00    +0.001 A 
ATOM      9  C   UNL     1      10.170   1.029  22.580  0.00  0.00    +0.000 A 
ATOM     10  C   UNL     1      10.517   0.891  23.920  0.00  0.00    +0.001 A 
ATOM     11  C   UNL     1       9.872  -0.062  24.713  0.00  0.00    +0.009 A 
ENDBRANCH   3   6
BRANCH   1  12
ATOM     12  N   UNL     1       5.094  -3.144  26.759  0.00  0.00    -0.264 N 
ATOM     13  C   UNL     1       4.107  -3.734  25.927  0.00  0.00    +0.251 C 
ATOM     14  O   UNL     1       2.900  -3.695  26.185  0.00  0.00    -0.270 OA
BRANCH  13  15
ATOM     15  C   UNL     1       4.510  -4.408  24.649  0.00  0.00    +0.037 A 
ATOM     16  C   UNL     1       4.612  -3.639  23.484  0.00  0.00    +0.013 A 
ATOM     17  C   UNL     1       5.250  -4.161  22.353  0.00  0.00    +0.004 A 
ATOM     18  C   UNL     1       5.806  -5.446  22.382  0.00  0.00    -0.050 A 
ATOM     19  C   UNL     1       6.664  -5.927  21.248  0.00  0.00    +0.044 C 
ATOM     20  C   UNL     1       5.566  -6.260  23.490  0.00  0.00    +0.004 A 
ATOM     21  C   UNL     1       4.872  -5.760  24.593  0.00  0.00    +0.013 A 
ENDBRANCH  13  15
BRANCH  12  23
ATOM     22  C   UNL     1       3.891  -1.220  27.840  0.00  0.00    +0.028 C 
ATOM     23  C   UNL     1       4.718  -2.495  28.045  0.00  0.00    +0.076 C 
ATOM     24  C   UNL     1       4.035  -3.422  29.051  0.00  0.00    +0.028 C 
ENDBRANCH  12  23
ENDBRANCH   1  12
BRANCH   5  25
ATOM     25  C   UNL     1       7.489  -5.032  27.156  0.00  0.00    +0.345 C 
ATOM     26  O   UNL     1       6.889  -5.335  28.179  0.00  0.00    -0.244 OA
BRANCH  25  27
ATOM     27  O   UNL     1       8.235  -5.952  26.487  0.00  0.00    -0.477 OA
ATOM     28  H   UNL     1       8.213  -6.823  26.928  0.00  0.00    +0.295 HD
ENDBRANCH  25  27
ENDBRANCH   5  25
TORSDOF 6
ENDMDL
MODEL 2
REMARK VINA RESULT:      -6.5      3.673      6.451
REMARK  Name = 
REMARK  9 active torsions:
REMARK  status: ('A' for Active; 'I' for Inactive)
REMARK    1  A    between atoms: C_1  and  C_2
REMARK    2  A    between atoms: C_2  and  C_3
REMARK    3  A    between atoms: C_2  and  N_4
REMARK    4  A    between atoms: N_4  and  C_14
REMARK    5  A    between atoms: C_5  and  C_7
REMARK    6  A    between atoms: C_10  and  C_11
REMARK    7  A    between atoms: C_15  and  C_25
REMARK    8  A    between atoms: C_17  and  C_19
REMARK    9  A    between atoms: C_25  and  O_26
REMARK                            x       y       z     vdW  Elec       q    Type
REMARK                         _______ _______ _______ _____ _____    ______ ____
ROOT
ATOM      1  C   UNL     1       7.256  -0.828  24.198  0.00  0.00    +0.059 A 
ATOM      2  C   UNL     1       6.429   0.166  23.570  0.00  0.00    +0.040 A 
ATOM      3  C   UNL     1       5.950   1.114  24.458  0.00  0.00    +0.022 A 
ATOM      4  S   UNL     1       6.441   0.734  26.056  0.00  0.00    -0.080 S 
ATOM      5  C   UNL     1       7.372  -0.611  25.562  0.00  0.00    +0.118 A 
ENDROOT
BRANCH   3   6
ATOM      6  C   UNL     1       5.085   2.285  24.219  0.00  0.00    -0.011 A 
ATOM      7  C   UNL     1       5.145   2.974  23.000  0.00  0.00    +0.009 A 
ATOM      8  C   UNL     1       4.265   4.028  22.727  0.00  0.00    +0.001 A 
ATOM      9  C   UNL     1       3.318   4.415  23.673  0.00  0.00    +0.000 A 
ATOM     10  C   UNL     1       3.268   3.769  24.904  0.00  0.00    +0.001 A 
ATOM     11  C   UNL     1       4.152   2.721  25.178  0.00  0.00    +0.009 A 
ENDBRANCH   3   6
BRANCH   1  12
ATOM     12  N   UNL     1       7.926  -1.876  23.519  0.00  0.00    -0.264 N 
ATOM     13  C   UNL     1       9.063  -1.610  22.712  0.00  0.00    +0.251 C 
ATOM     14  O   UNL     1       9.490  -2.406  21.871  0.00  0.00    -0.270 OA
BRANCH  13  15
ATOM     15  C   UNL     1       9.776  -0.295  22.832  0.00  0.00    +0.037 A 
ATOM     16  C   UNL     1       9.596   0.664  21.829  0.00  0.00    +0.013 A 
ATOM     17  C   UNL     1      10.005   1.985  22.041  0.00  0.00    +0.004 A 
ATOM     18  C   UNL     1      10.581   2.363  23.260  0.00  0.00    -0.050 A 
ATOM     19  C   UNL     1      10.833   3.811  23.565  0.00  0.00    +0.044 C 
ATOM     20  C   UNL     1      10.896   1.373  24.193  0.00  0.00    +0.004 A 
ATOM     21  C   UNL     1      10.545   0.043  23.952  0.00  0.00    +0.013 A 
ENDBRANCH  13  15
BRANCH  12  23
ATOM     22  C   UNL     1       6.498  -3.378  22.097  0.00  0.00    +0.028 C 
ATOM     23  C   UNL     1       7.221  -3.185  23.435  0.00  0.00    +0.076 C 
ATOM     24  C   UNL     1       8.093  -4.400  23.754  0.00  0.00    +0.028 C 
ENDBRANCH  12  23
ENDBRANCH   1  12
BRANCH   5  25
ATOM     25  C   UNL     1       8.240  -1.276  26.519  0.00  0.00    +0.345 C 
ATOM     26  O   UNL     1       8.309  -2.482  26.715  0.00  0.00    -0.244 OA
BRANCH  25  27
ATOM     27  O   UNL     1       9.041  -0.413  27.200  0.00  0.00    -0.477 OA
ATOM     28  H   UNL     1       9.745  -0.883  27.687  0.00  0.00    +0.295 HD
ENDBRANCH  25  27
ENDBRANCH   5  25
TORSDOF 6
ENDMDL
MODEL 3
REMARK VINA RESULT:      -6.3      4.966      8.156
REMARK  Name = 
REMARK  9 active torsions:
REMARK  status: ('A' for Active; 'I' for Inactive)
REMARK    1  A    between atoms: C_1  and  C_2
REMARK    2  A    between atoms: C_2  and  C_3
REMARK    3  A    between atoms: C_2  and  N_4
REMARK    4  A    between atoms: N_4  and  C_14
REMARK    5  A    between atoms: C_5  and  C_7
REMARK    6  A    between atoms: C_10  and  C_11
REMARK    7  A    between atoms: C_15  and  C_25
REMARK    8  A    between atoms: C_17  and  C_19
REMARK    9  A    between atoms: C_25  and  O_26
REMARK                            x       y       z     vdW  Elec       q    Type
REMARK                         _______ _______ _______ _____ _____    ______ ____
ROOT
ATOM      1  C   UNL     1       8.157   3.368  24.397  0.00  0.00    +0.059 A 
ATOM      2  C   UNL     1       8.022   2.290  25.339  0.00  0.00    +0.040 A 
ATOM      3  C   UNL     1       6.738   1.778  25.397  0.00  0.00    +0.022 A 
ATOM      4  S   UNL     1       5.694   2.670  24.370  0.00  0.00    -0.080 S 
ATOM      5  C   UNL     1       6.955   3.654  23.769  0.00  0.00    +0.118 A 
ENDROOT
BRANCH   3   6
ATOM      6  C   UNL     1       6.191   0.682  26.219  0.00  0.00    -0.011 A 
ATOM      7  C   UNL     1       5.097   0.907  27.065  0.00  0.00    +0.009 A 
ATOM      8  C   UNL     1       4.512  -0.146  27.778  0.00  0.00    +0.001 A 
ATOM      9  C   UNL     1       5.018  -1.439  27.663  0.00  0.00    +0.000 A 
ATOM     10  C   UNL     1       6.127  -1.676  26.859  0.00  0.00    +0.001 A 
ATOM     11  C   UNL     1       6.715  -0.623  26.152  0.00  0.00    +0.009 A 
ENDBRANCH   3   6
BRANCH   1  12
ATOM     12  N   UNL     1       9.370   4.033  24.090  0.00  0.00    -0.264 N 
ATOM     13  C   UNL     1      10.481   3.317  23.572  0.00  0.00    +0.251 C 
ATOM     14  O   UNL     1      11.631   3.766  23.578  0.00  0.00    -0.270 OA
BRANCH  13  15
ATOM     15  C   UNL     1      10.290   1.934  23.021  0.00  0.00    +0.037 A 
ATOM     16  C   UNL     1      10.660   0.838  23.809  0.00  0.00    +0.013 A 
ATOM     17  C   UNL     1      10.242  -0.450  23.458  0.00  0.00    +0.004 A 
ATOM     18  C   UNL     1       9.438  -0.652  22.329  0.00  0.00    -0.050 A 
ATOM     19  C   UNL     1       8.822  -1.995  22.066  0.00  0.00    +0.044 C 
ATOM     20  C   UNL     1       9.203   0.421  21.468  0.00  0.00    +0.004 A 
ATOM     21  C   UNL     1       9.676   1.694  21.786  0.00  0.00    +0.013 A 
ENDBRANCH  13  15
BRANCH  12  23
ATOM     22  C   UNL     1       9.420   6.479  23.515  0.00  0.00    +0.028 C 
ATOM     23  C   UNL     1       9.533   5.417  24.615  0.00  0.00    +0.076 C 
ATOM     24  C   UNL     1       8.622   5.763  25.793  0.00  0.00    +0.028 C 
ENDBRANCH  12  23
ENDBRANCH   1  12
BRANCH   5  25
ATOM     25  C   UNL     1       6.702   4.543  22.648  0.00  0.00    +0.345 C 
ATOM     26  O   UNL     1       6.055   5.581  22.681  0.00  0.00    -0.244 OA
BRANCH  25  27
ATOM     27  O   UNL     1       7.301   4.132  21.498  0.00  0.00    -0.477 OA
ATOM     28  H   UNL     1       7.822   4.848  21.087  0.00  0.00    +0.295 HD
ENDBRANCH  25  27
ENDBRANCH   5  25
TORSDOF 6
ENDMDL
MODEL 4
REMARK VINA RESULT:      -6.3      1.766      4.161
REMARK  Name = 
REMARK  9 active torsions:
REMARK  status: ('A' for Active; 'I' for Inactive)
REMARK    1  A    between atoms: C_1  and  C_2
REMARK    2  A    between atoms: C_2  and  C_3
REMARK    3  A    between atoms: C_2  and  N_4
REMARK    4  A    between atoms: N_4  and  C_14
REMARK    5  A    between atoms: C_5  and  C_7
REMARK    6  A    between atoms: C_10  and  C_11
REMARK    7  A    between atoms: C_15  and  C_25
REMARK    8  A    between atoms: C_17  and  C_19
REMARK    9  A    between atoms: C_25  and  O_26
REMARK                            x       y       z     vdW  Elec       q    Type
REMARK                         _______ _______ _______ _____ _____    ______ ____
ROOT
ATOM      1  C   UNL     1       6.986  -3.939  23.891  0.00  0.00    +0.059 A 
ATOM      2  C   UNL     1       6.883  -2.700  23.167  0.00  0.00    +0.040 A 
ATOM      3  C   UNL     1       7.973  -1.869  23.358  0.00  0.00    +0.022 A 
ATOM      4  S   UNL     1       9.065  -2.567  24.481  0.00  0.00    -0.080 S 
ATOM      5  C   UNL     1       8.158  -4.007  24.629  0.00  0.00    +0.118 A 
ENDROOT
BRANCH   3   6
ATOM      6  C   UNL     1       8.255  -0.533  22.800  0.00  0.00    -0.011 A 
ATOM      7  C   UNL     1       7.265   0.460  22.802  0.00  0.00    +0.009 A 
ATOM      8  C   UNL     1       7.549   1.757  22.361  0.00  0.00    +0.001 A 
ATOM      9  C   UNL     1       8.824   2.081  21.903  0.00  0.00    +0.000 A 
ATOM     10  C   UNL     1       9.810   1.100  21.856  0.00  0.00    +0.001 A 
ATOM     11  C   UNL     1       9.524  -0.198  22.291  0.00  0.00    +0.009 A 
ENDBRANCH   3   6
BRANCH   1  12
ATOM     12  N   UNL     1       6.045  -4.997  23.830  0.00  0.00    -0.264 N 
ATOM     13  C   UNL     1       5.119  -5.207  24.885  0.00  0.00    +0.251 C 
ATOM     14  O   UNL     1       4.501  -6.265  25.035  0.00  0.00    -0.270 OA
BRANCH  13  15
ATOM     15  C   UNL     1       4.886  -4.129  25.903  0.00  0.00    +0.037 A 
ATOM     16  C   UNL     1       4.110  -3.021  25.547  0.00  0.00    +0.013 A 
ATOM     17  C   UNL     1       3.638  -2.149  26.534  0.00  0.00    +0.004 A 
ATOM     18  C   UNL     1       3.922  -2.386  27.885  0.00  0.00    -0.050 A 
ATOM     19  C   UNL     1       3.252  -1.575  28.955  0.00  0.00    +0.044 C 
ATOM     20  C   UNL     1       4.820  -3.401  28.217  0.00  0.00    +0.004 A 
ATOM     21  C   UNL     1       5.342  -4.231  27.223  0.00  0.00    +0.013 A 
ENDBRANCH  13  15
BRANCH  12  23
ATOM     22  C   UNL     1       5.176  -6.047  21.719  0.00  0.00    +0.028 C 
ATOM     23  C   UNL     1       6.269  -6.042  22.794  0.00  0.00    +0.076 C 
ATOM     24  C   UNL     1       7.655  -6.014  22.149  0.00  0.00    +0.028 C 
ENDBRANCH  12  23
ENDBRANCH   1  12
BRANCH   5  25
ATOM     25  C   UNL     1       8.714  -5.137  25.351  0.00  0.00    +0.345 C 
ATOM     26  O   UNL     1       8.201  -5.708  26.304  0.00  0.00    -0.244 OA
BRANCH  25  27
ATOM     27  O   UNL     1       9.902  -5.562  24.841  0.00  0.00    -0.477 OA
ATOM     28  H   UNL     1      10.342  -6.198  25.437  0.00  0.00    +0.295 HD
ENDBRANCH  25  27
ENDBRANCH   5  25
TORSDOF 6
ENDMDL
MODEL 5
REMARK VINA RESULT:      -6.2      2.113      6.203
REMARK  Name = 
REMARK  9 active torsions:
REMARK  status: ('A' for Active; 'I' for Inactive)
REMARK    1  A    between atoms: C_1  and  C_2
REMARK    2  A    between atoms: C_2  and  C_3
REMARK    3  A    between atoms: C_2  and  N_4
REMARK    4  A    between atoms: N_4  and  C_14
REMARK    5  A    between atoms: C_5  and  C_7
REMARK    6  A    between atoms: C_10  and  C_11
REMARK    7  A    between atoms: C_15  and  C_25
REMARK    8  A    between atoms: C_17  and  C_19
REMARK    9  A    between atoms: C_25  and  O_26
REMARK                            x       y       z     vdW  Elec       q    Type
REMARK                         _______ _______ _______ _____ _____    ______ ____
ROOT
ATOM      1  C   UNL     1       6.499  -4.486  24.864  0.00  0.00    +0.059 A 
ATOM      2  C   UNL     1       5.428  -3.981  25.680  0.00  0.00    +0.040 A 
ATOM      3  C   UNL     1       5.678  -4.098  27.036  0.00  0.00    +0.022 A 
ATOM      4  S   UNL     1       7.171  -4.899  27.300  0.00  0.00    -0.080 S 
ATOM      5  C   UNL     1       7.536  -4.990  25.633  0.00  0.00    +0.118 A 
ENDROOT
BRANCH   3   6
ATOM      6  C   UNL     1       4.849  -3.702  28.190  0.00  0.00    -0.011 A 
ATOM      7  C   UNL     1       4.653  -4.586  29.261  0.00  0.00    +0.009 A 
ATOM      8  C   UNL     1       3.946  -4.187  30.401  0.00  0.00    +0.001 A 
ATOM      9  C   UNL     1       3.416  -2.901  30.485  0.00  0.00    +0.000 A 
ATOM     10  C   UNL     1       3.565  -2.022  29.417  0.00  0.00    +0.001 A 
ATOM     11  C   UNL     1       4.266  -2.423  28.276  0.00  0.00    +0.009 A 
ENDBRANCH   3   6
BRANCH   1  12
ATOM     12  N   UNL     1       6.536  -4.437  23.448  0.00  0.00    -0.264 N 
ATOM     13  C   UNL     1       6.983  -3.270  22.774  0.00  0.00    +0.251 C 
ATOM     14  O   UNL     1       6.752  -3.054  21.581  0.00  0.00    -0.270 OA
BRANCH  13  15
ATOM     15  C   UNL     1       7.737  -2.212  23.526  0.00  0.00    +0.037 A 
ATOM     16  C   UNL     1       9.131  -2.304  23.603  0.00  0.00    +0.013 A 
ATOM     17  C   UNL     1       9.883  -1.208  24.039  0.00  0.00    +0.004 A 
ATOM     18  C   UNL     1       9.252  -0.007  24.386  0.00  0.00    -0.050 A 
ATOM     19  C   UNL     1      10.062   1.226  24.657  0.00  0.00    +0.044 C 
ATOM     20  C   UNL     1       7.858   0.027  24.453  0.00  0.00    +0.004 A 
ATOM     21  C   UNL     1       7.108  -1.090  24.079  0.00  0.00    +0.013 A 
ENDBRANCH  13  15
BRANCH  12  23
ATOM     22  C   UNL     1       6.745  -6.362  21.847  0.00  0.00    +0.028 C 
ATOM     23  C   UNL     1       5.812  -5.510  22.715  0.00  0.00    +0.076 C 
ATOM     24  C   UNL     1       4.934  -6.402  23.593  0.00  0.00    +0.028 C 
ENDBRANCH  12  23
ENDBRANCH   1  12
BRANCH   5  25
ATOM     25  C   UNL     1       8.854  -5.431  25.209  0.00  0.00    +0.345 C 
ATOM     26  O   UNL     1       9.144  -5.883  24.109  0.00  0.00    -0.244 OA
BRANCH  25  27
ATOM     27  O   UNL     1       9.805  -5.265  26.167  0.00  0.00    -0.477 OA
ATOM     28  H   UNL     1       9.446  -4.813  26.955  0.00  0.00    +0.295 HD
ENDBRANCH  25  27
ENDBRANCH   5  25
TORSDOF 6
ENDMDL
MODEL 6
REMARK VINA RESULT:      -6.0      1.280      4.094
REMARK  Name = 
REMARK  9 active torsions:
REMARK  status: ('A' for Active; 'I' for Inactive)
REMARK    1  A    between atoms: C_1  and  C_2
REMARK    2  A    between atoms: C_2  and  C_3
REMARK    3  A    between atoms: C_2  and  N_4
REMARK    4  A    between atoms: N_4  and  C_14
REMARK    5  A    between atoms: C_5  and  C_7
REMARK    6  A    between atoms: C_10  and  C_11
REMARK    7  A    between atoms: C_15  and  C_25
REMARK    8  A    between atoms: C_17  and  C_19
REMARK    9  A    between atoms: C_25  and  O_26
REMARK                            x       y       z     vdW  Elec       q    Type
REMARK                         _______ _______ _______ _____ _____    ______ ____
ROOT
ATOM      1  C   UNL     1       6.758  -3.689  24.964  0.00  0.00    +0.059 A 
ATOM      2  C   UNL     1       7.023  -2.436  24.309  0.00  0.00    +0.040 A 
ATOM      3  C   UNL     1       8.086  -1.747  24.868  0.00  0.00    +0.022 A 
ATOM      4  S   UNL     1       8.690  -2.590  26.233  0.00  0.00    -0.080 S 
ATOM      5  C   UNL     1       7.627  -3.911  26.020  0.00  0.00    +0.118 A 
ENDROOT
BRANCH   3   6
ATOM      6  C   UNL     1       8.673  -0.446  24.494  0.00  0.00    -0.011 A 
ATOM      7  C   UNL     1       9.955  -0.093  24.937  0.00  0.00    +0.009 A 
ATOM      8  C   UNL     1      10.559   1.096  24.514  0.00  0.00    +0.001 A 
ATOM      9  C   UNL     1       9.886   1.956  23.647  0.00  0.00    +0.000 A 
ATOM     10  C   UNL     1       8.597   1.642  23.227  0.00  0.00    +0.001 A 
ATOM     11  C   UNL     1       7.993   0.457  23.656  0.00  0.00    +0.009 A 
ENDBRANCH   3   6
BRANCH   1  12
ATOM     12  N   UNL     1       5.770  -4.623  24.562  0.00  0.00    -0.264 N 
ATOM     13  C   UNL     1       4.582  -4.795  25.320  0.00  0.00    +0.251 C 
ATOM     14  O   UNL     1       3.849  -5.781  25.204  0.00  0.00    -0.270 OA
BRANCH  13  15
ATOM     15  C   UNL     1       4.192  -3.770  26.344  0.00  0.00    +0.037 A 
ATOM     16  C   UNL     1       4.275  -4.107  27.700  0.00  0.00    +0.013 A 
ATOM     17  C   UNL     1       4.197  -3.108  28.677  0.00  0.00    +0.004 A 
ATOM     18  C   UNL     1       4.053  -1.765  28.308  0.00  0.00    -0.050 A 
ATOM     19  C   UNL     1       4.173  -0.678  29.336  0.00  0.00    +0.044 C 
ATOM     20  C   UNL     1       3.817  -1.455  26.967  0.00  0.00    +0.004 A 
ATOM     21  C   UNL     1       3.831  -2.462  26.000  0.00  0.00    +0.013 A 
ENDBRANCH  13  15
BRANCH  12  23
ATOM     22  C   UNL     1       5.203  -5.615  22.324  0.00  0.00    +0.028 C 
ATOM     23  C   UNL     1       6.160  -5.613  23.522  0.00  0.00    +0.076 C 
ATOM     24  C   UNL     1       7.610  -5.504  23.049  0.00  0.00    +0.028 C 
ENDBRANCH  12  23
ENDBRANCH   1  12
BRANCH   5  25
ATOM     25  C   UNL     1       7.803  -5.112  26.818  0.00  0.00    +0.345 C 
ATOM     26  O   UNL     1       7.213  -5.382  27.855  0.00  0.00    -0.244 OA
BRANCH  25  27
ATOM     27  O   UNL     1       8.700  -5.982  26.279  0.00  0.00    -0.477 OA
ATOM     28  H   UNL     1       8.750  -6.811  26.792  0.00  0.00    +0.295 HD
ENDBRANCH  25  27
ENDBRANCH   5  25
TORSDOF 6
ENDMDL
MODEL 7
REMARK VINA RESULT:      -6.0      2.758      6.003
REMARK  Name = 
REMARK  9 active torsions:
REMARK  status: ('A' for Active; 'I' for Inactive)
REMARK    1  A    between atoms: C_1  and  C_2
REMARK    2  A    between atoms: C_2  and  C_3
REMARK    3  A    between atoms: C_2  and  N_4
REMARK    4  A    between atoms: N_4  and  C_14
REMARK    5  A    between atoms: C_5  and  C_7
REMARK    6  A    between atoms: C_10  and  C_11
REMARK    7  A    between atoms: C_15  and  C_25
REMARK    8  A    between atoms: C_17  and  C_19
REMARK    9  A    between atoms: C_25  and  O_26
REMARK                            x       y       z     vdW  Elec       q    Type
REMARK                         _______ _______ _______ _____ _____    ______ ____
ROOT
ATOM      1  C   UNL     1       7.222  -2.089  25.850  0.00  0.00    +0.059 A 
ATOM      2  C   UNL     1       7.102  -3.286  26.638  0.00  0.00    +0.040 A 
ATOM      3  C   UNL     1       5.833  -3.465  27.162  0.00  0.00    +0.022 A 
ATOM      4  S   UNL     1       4.831  -2.133  26.763  0.00  0.00    -0.080 S 
ATOM      5  C   UNL     1       6.032  -1.379  25.810  0.00  0.00    +0.118 A 
ENDROOT
BRANCH   3   6
ATOM      6  C   UNL     1       5.302  -4.550  28.009  0.00  0.00    -0.011 A 
ATOM      7  C   UNL     1       4.358  -4.274  29.007  0.00  0.00    +0.009 A 
ATOM      8  C   UNL     1       3.779  -5.307  29.753  0.00  0.00    +0.001 A 
ATOM      9  C   UNL     1       4.142  -6.632  29.518  0.00  0.00    +0.000 A 
ATOM     10  C   UNL     1       5.106  -6.923  28.559  0.00  0.00    +0.001 A 
ATOM     11  C   UNL     1       5.689  -5.890  27.819  0.00  0.00    +0.009 A 
ENDBRANCH   3   6
BRANCH   1  12
ATOM     12  N   UNL     1       8.386  -1.691  25.147  0.00  0.00    -0.264 N 
ATOM     13  C   UNL     1       8.834  -2.418  24.013  0.00  0.00    +0.251 C 
ATOM     14  O   UNL     1       9.977  -2.315  23.558  0.00  0.00    -0.270 OA
BRANCH  13  15
ATOM     15  C   UNL     1       7.915  -3.393  23.337  0.00  0.00    +0.037 A 
ATOM     16  C   UNL     1       6.986  -2.911  22.408  0.00  0.00    +0.013 A 
ATOM     17  C   UNL     1       6.318  -3.800  21.559  0.00  0.00    +0.004 A 
ATOM     18  C   UNL     1       6.584  -5.174  21.618  0.00  0.00    -0.050 A 
ATOM     19  C   UNL     1       6.026  -6.101  20.579  0.00  0.00    +0.044 C 
ATOM     20  C   UNL     1       7.394  -5.660  22.646  0.00  0.00    +0.004 A 
ATOM     21  C   UNL     1       8.009  -4.776  23.535  0.00  0.00    +0.013 A 
ENDBRANCH  13  15
BRANCH  12  23
ATOM     22  C   UNL     1       9.318   0.642  25.071  0.00  0.00    +0.028 C 
ATOM     23  C   UNL     1       9.272  -0.699  25.814  0.00  0.00    +0.076 C 
ATOM     24  C   UNL     1       8.981  -0.479  27.299  0.00  0.00    +0.028 C 
ENDBRANCH  12  23
ENDBRANCH   1  12
BRANCH   5  25
ATOM     25  C   UNL     1       5.688  -0.223  25.000  0.00  0.00    +0.345 C 
ATOM     26  O   UNL     1       6.160   0.058  23.906  0.00  0.00    -0.244 OA
BRANCH  25  27
ATOM     27  O   UNL     1       4.721   0.552  25.562  0.00  0.00    -0.477 OA
ATOM     28  H   UNL     1       4.080   0.016  26.068  0.00  0.00    +0.295 HD
ENDBRANCH  25  27
ENDBRANCH   5  25
TORSDOF 6
ENDMDL
MODEL 8
REMARK VINA RESULT:      -5.9      3.299      6.881
REMARK  Name = 
REMARK  9 active torsions:
REMARK  status: ('A' for Active; 'I' for Inactive)
REMARK    1  A    between atoms: C_1  and  C_2
REMARK    2  A    between atoms: C_2  and  C_3
REMARK    3  A    between atoms: C_2  and  N_4
REMARK    4  A    between atoms: N_4  and  C_14
REMARK    5  A    between atoms: C_5  and  C_7
REMARK    6  A    between atoms: C_10  and  C_11
REMARK    7  A    between atoms: C_15  and  C_25
REMARK    8  A    between atoms: C_17  and  C_19
REMARK    9  A    between atoms: C_25  and  O_26
REMARK                            x       y       z     vdW  Elec       q    Type
REMARK                         _______ _______ _______ _____ _____    ______ ____
ROOT
ATOM      1  C   UNL     1       8.009  -0.473  23.652  0.00  0.00    +0.059 A 
ATOM      2  C   UNL     1       7.004  -1.433  23.282  0.00  0.00    +0.040 A 
ATOM      3  C   UNL     1       7.085  -2.609  24.006  0.00  0.00    +0.022 A 
ATOM      4  S   UNL     1       8.434  -2.566  25.063  0.00  0.00    -0.080 S 
ATOM      5  C   UNL     1       8.841  -0.959  24.648  0.00  0.00    +0.118 A 
ENDROOT
BRANCH   3   6
ATOM      6  C   UNL     1       6.251  -3.824  23.937  0.00  0.00    -0.011 A 
ATOM      7  C   UNL     1       6.238  -4.738  25.000  0.00  0.00    +0.009 A 
ATOM      8  C   UNL     1       5.382  -5.845  24.985  0.00  0.00    +0.001 A 
ATOM      9  C   UNL     1       4.532  -6.061  23.902  0.00  0.00    +0.000 A 
ATOM     10  C   UNL     1       4.558  -5.187  22.820  0.00  0.00    +0.001 A 
ATOM     11  C   UNL     1       5.418  -4.085  22.833  0.00  0.00    +0.009 A 
ENDBRANCH   3   6
BRANCH   1  12
ATOM     12  N   UNL     1       8.120   0.835  23.118  0.00  0.00    -0.264 N 
ATOM     13  C   UNL     1       7.311   1.892  23.611  0.00  0.00    +0.251 C 
ATOM     14  O   UNL     1       7.140   2.949  22.997  0.00  0.00    -0.270 OA
BRANCH  13  15
ATOM     15  C   UNL     1       6.584   1.735  24.915  0.00  0.00    +0.037 A 
ATOM     16  C   UNL     1       5.317   1.141  24.912  0.00  0.00    +0.013 A 
ATOM     17  C   UNL     1       4.737   0.721  26.114  0.00  0.00    +0.004 A 
ATOM     18  C   UNL     1       5.423   0.875  27.325  0.00  0.00    -0.050 A 
ATOM     19  C   UNL     1       4.897   0.245  28.582  0.00  0.00    +0.044 C 
ATOM     20  C   UNL     1       6.614   1.603  27.337  0.00  0.00    +0.004 A 
ATOM     21  C   UNL     1       7.160   2.079  26.144  0.00  0.00    +0.013 A 
ENDBRANCH  13  15
BRANCH  12  23
ATOM     22  C   UNL     1      10.095   1.895  21.983  0.00  0.00    +0.028 C 
ATOM     23  C   UNL     1       8.871   0.982  21.842  0.00  0.00    +0.076 C 
ATOM     24  C   UNL     1       9.259  -0.337  21.175  0.00  0.00    +0.028 C 
ENDBRANCH  12  23
ENDBRANCH   1  12
BRANCH   5  25
ATOM     25  C   UNL     1       9.860  -0.255  25.408  0.00  0.00    +0.345 C 
ATOM     26  O   UNL     1      10.857   0.286  24.950  0.00  0.00    -0.244 OA
BRANCH  25  27
ATOM     27  O   UNL     1       9.592  -0.210  26.741  0.00  0.00    -0.477 OA
ATOM     28  H   UNL     1       9.237  -1.060  27.066  0.00  0.00    +0.295 HD
ENDBRANCH  25  27
ENDBRANCH   5  25
TORSDOF 6
ENDMDL
MODEL 9
REMARK VINA RESULT:      -5.9      3.033      6.488
REMARK  Name = 
REMARK  9 active torsions:
REMARK  status: ('A' for Active; 'I' for Inactive)
REMARK    1  A    between atoms: C_1  and  C_2
REMARK    2  A    between atoms: C_2  and  C_3
REMARK    3  A    between atoms: C_2  and  N_4
REMARK    4  A    between atoms: N_4  and  C_14
REMARK    5  A    between atoms: C_5  and  C_7
REMARK    6  A    between atoms: C_10  and  C_11
REMARK    7  A    between atoms: C_15  and  C_25
REMARK    8  A    between atoms: C_17  and  C_19
REMARK    9  A    between atoms: C_25  and  O_26
REMARK                            x       y       z     vdW  Elec       q    Type
REMARK                         _______ _______ _______ _____ _____    ______ ____
ROOT
ATOM      1  C   UNL     1       7.892  -1.592  25.418  0.00  0.00    +0.059 A 
ATOM      2  C   UNL     1       7.992  -0.847  26.644  0.00  0.00    +0.040 A 
ATOM      3  C   UNL     1       6.830  -0.164  26.959  0.00  0.00    +0.022 A 
ATOM      4  S   UNL     1       5.664  -0.368  25.719  0.00  0.00    -0.080 S 
ATOM      5  C   UNL     1       6.649  -1.441  24.825  0.00  0.00    +0.118 A 
ENDROOT
BRANCH   3   6
ATOM      6  C   UNL     1       6.522   0.699  28.115  0.00  0.00    -0.011 A 
ATOM      7  C   UNL     1       7.519   1.018  29.048  0.00  0.00    +0.009 A 
ATOM      8  C   UNL     1       7.263   1.909  30.096  0.00  0.00    +0.001 A 
ATOM      9  C   UNL     1       6.004   2.490  30.233  0.00  0.00    +0.000 A 
ATOM     10  C   UNL     1       4.990   2.156  29.340  0.00  0.00    +0.001 A 
ATOM     11  C   UNL     1       5.245   1.261  28.298  0.00  0.00    +0.009 A 
ENDBRANCH   3   6
BRANCH   1  12
ATOM     12  N   UNL     1       8.907  -2.428  24.889  0.00  0.00    -0.264 N 
ATOM     13  C   UNL     1       9.787  -1.954  23.881  0.00  0.00    +0.251 C 
ATOM     14  O   UNL     1      10.468  -2.705  23.177  0.00  0.00    -0.270 OA
BRANCH  13  15
ATOM     15  C   UNL     1       9.886  -0.483  23.604  0.00  0.00    +0.037 A 
ATOM     16  C   UNL     1       9.139   0.057  22.551  0.00  0.00    +0.013 A 
ATOM     17  C   UNL     1       8.982   1.443  22.441  0.00  0.00    +0.004 A 
ATOM     18  C   UNL     1       9.556   2.300  23.389  0.00  0.00    -0.050 A 
ATOM     19  C   UNL     1       9.223   3.763  23.391  0.00  0.00    +0.044 C 
ATOM     20  C   UNL     1      10.424   1.765  24.344  0.00  0.00    +0.004 A 
ATOM     21  C   UNL     1      10.630   0.386  24.412  0.00  0.00    +0.013 A 
ENDBRANCH  13  15
BRANCH  12  23
ATOM     22  C   UNL     1       8.141  -4.153  26.549  0.00  0.00    +0.028 C 
ATOM     23  C   UNL     1       8.815  -3.881  25.198  0.00  0.00    +0.076 C 
ATOM     24  C   UNL     1       8.173  -4.727  24.099  0.00  0.00    +0.028 C 
ENDBRANCH  12  23
ENDBRANCH   1  12
BRANCH   5  25
ATOM     25  C   UNL     1       6.092  -2.148  23.684  0.00  0.00    +0.345 C 
ATOM     26  O   UNL     1       6.464  -2.050  22.523  0.00  0.00    -0.244 OA
BRANCH  25  27
ATOM     27  O   UNL     1       5.089  -3.001  24.026  0.00  0.00    -0.477 OA
ATOM     28  H   UNL     1       4.821  -2.887  24.958  0.00  0.00    +0.295 HD
ENDBRANCH  25  27
ENDBRANCH   5  25
TORSDOF 6
ENDMDL
