MODEL 1
REMARK VINA RESULT:      -6.7      0.000      0.000
REMARK  Name = 
REMARK  8 active torsions:
REMARK  status: ('A' for Active; 'I' for Inactive)
REMARK    1  A    between atoms: O_1  and  C_2
REMARK    2  A    between atoms: C_2  and  C_3
REMARK    3  A    between atoms: C_6  and  N_18
REMARK    4  A    between atoms: C_8  and  O_10
REMARK    5  A    between atoms: C_11  and  O_13
REMARK    6  A    between atoms: O_13  and  P_14
REMARK    7  A    between atoms: P_14  and  O_15
REMARK    8  A    between atoms: P_14  and  O_16
REMARK                            x       y       z     vdW  Elec       q    Type
REMARK                         _______ _______ _______ _____ _____    ______ ____
ROOT
ATOM      1  C   UNL     1       6.729  -4.610  22.952  0.00  0.00    +0.178 C 
ATOM      2  C   UNL     1       7.769  -4.662  24.070  0.00  0.00    +0.194 C 
ATOM      3  C   UNL     1       8.560  -3.368  23.934  0.00  0.00    +0.196 C 
ATOM      4  C   UNL     1       8.143  -2.816  22.564  0.00  0.00    +0.255 C 
ATOM      5  O   UNL     1       6.799  -3.289  22.369  0.00  0.00    -0.346 OA
ENDROOT
BRANCH   4   6
ATOM      6  N   UNL     1       8.206  -1.353  22.490  0.00  0.00    -0.271 N 
ATOM      7  C   UNL     1       9.403  -0.804  22.044  0.00  0.00    +0.331 A 
ATOM      8  O   UNL     1      10.392  -1.478  21.771  0.00  0.00    -0.246 OA
ATOM      9  N   UNL     1       9.434   0.557  21.934  0.00  0.00    -0.275 N 
ATOM     10  H   UNL     1      10.288   0.970  21.592  0.00  0.00    +0.173 HD
ATOM     11  C   UNL     1       8.384   1.402  22.147  0.00  0.00    +0.254 A 
ATOM     12  O   UNL     1       8.440   2.606  21.931  0.00  0.00    -0.268 OA
ATOM     13  C   UNL     1       7.152   0.772  22.642  0.00  0.00    +0.088 A 
ATOM     14  C   UNL     1       7.118  -0.556  22.788  0.00  0.00    +0.098 A 
ENDBRANCH   4   6
BRANCH   3  15
ATOM     15  O   UNL     1       9.957  -3.646  24.115  0.00  0.00    -0.385 OA
ATOM     16  H   UNL     1      10.016  -4.480  24.640  0.00  0.00    +0.210 HD
ENDBRANCH   3  15
BRANCH   1  17
ATOM     17  C   UNL     1       7.024  -5.653  21.862  0.00  0.00    +0.190 C 
BRANCH  17  18
ATOM     18  O   UNL     1       5.857  -6.421  21.567  0.00  0.00    -0.392 OA
ATOM     19  H   UNL     1       5.994  -7.312  21.934  0.00  0.00    +0.210 HD
ENDBRANCH  17  18
ENDBRANCH   1  17
BRANCH   2  20
ATOM     20  O   UNL     1       7.128  -4.721  25.341  0.00  0.00    -0.278 OA
BRANCH  20  21
ATOM     21  P   UNL     1       7.999  -5.135  26.624  0.00  0.00    +0.473 P 
ATOM     22  O   UNL     1       7.247  -5.802  27.721  0.00  0.00    -0.228 OA
BRANCH  21  23
ATOM     23  O   UNL     1       8.837  -3.843  27.041  0.00  0.00    -0.303 OA
ATOM     24  H   UNL     1       9.647  -4.066  27.557  0.00  0.00    +0.222 HD
ENDBRANCH  21  23
BRANCH  21  25
ATOM     25  O   UNL     1       9.113  -6.063  25.955  0.00  0.00    -0.303 OA
ATOM     26  H   UNL     1       8.717  -6.670  25.306  0.00  0.00    +0.222 HD
ENDBRANCH  21  25
ENDBRANCH  20  21
ENDBRANCH   2  20
TORSDOF 8
ENDMDL
MODEL 2
REMARK VINA RESULT:      -6.6      1.759      2.118
REMARK  Name = 
REMARK  8 active torsions:
REMARK  status: ('A' for Active; 'I' for Inactive)
REMARK    1  A    between atoms: O_1  and  C_2
REMARK    2  A    between atoms: C_2  and  C_3
REMARK    3  A    between atoms: C_6  and  N_18
REMARK    4  A    between atoms: C_8  and  O_10
REMARK    5  A    between atoms: C_11  and  O_13
REMARK    6  A    between atoms: O_13  and  P_14
REMARK    7  A    between atoms: P_14  and  O_15
REMARK    8  A    between atoms: P_14  and  O_16
REMARK                            x       y       z     vdW  Elec       q    Type
REMARK                         _______ _______ _______ _____ _____    ______ ____
ROOT
ATOM      1  C   UNL     1       7.070  -2.688  23.329  0.00  0.00    +0.178 C 
ATOM      2  C   UNL     1       8.293  -3.350  23.964  0.00  0.00    +0.194 C 
ATOM      3  C   UNL     1       9.422  -2.344  23.788  0.00  0.00    +0.196 C 
ATOM      4  C   UNL     1       8.861  -1.321  22.788  0.00  0.00    +0.255 C 
ATOM      5  O   UNL     1       7.441  -1.327  23.013  0.00  0.00    -0.346 OA
ENDROOT
BRANCH   4   6
ATOM      6  N   UNL     1       9.420   0.022  22.966  0.00  0.00    -0.271 N 
ATOM      7  C   UNL     1       9.417   0.849  21.848  0.00  0.00    +0.331 A 
ATOM      8  O   UNL     1       9.025   0.486  20.743  0.00  0.00    -0.246 OA
ATOM      9  N   UNL     1       9.896   2.115  22.036  0.00  0.00    -0.275 N 
ATOM     10  H   UNL     1       9.881   2.734  21.241  0.00  0.00    +0.173 HD
ATOM     11  C   UNL     1      10.297   2.650  23.226  0.00  0.00    +0.254 A 
ATOM     12  O   UNL     1      10.619   3.824  23.356  0.00  0.00    -0.268 OA
ATOM     13  C   UNL     1      10.306   1.725  24.368  0.00  0.00    +0.088 A 
ATOM     14  C   UNL     1       9.873   0.473  24.190  0.00  0.00    +0.098 A 
ENDBRANCH   4   6
BRANCH   3  15
ATOM     15  O   UNL     1      10.617  -3.035  23.395  0.00  0.00    -0.385 OA
ATOM     16  H   UNL     1      11.212  -3.047  24.183  0.00  0.00    +0.210 HD
ENDBRANCH   3  15
BRANCH   1  17
ATOM     17  C   UNL     1       6.651  -3.406  22.036  0.00  0.00    +0.190 C 
BRANCH  17  18
ATOM     18  O   UNL     1       5.234  -3.368  21.872  0.00  0.00    -0.392 OA
ATOM     19  H   UNL     1       4.871  -4.174  22.280  0.00  0.00    +0.210 HD
ENDBRANCH  17  18
ENDBRANCH   1  17
BRANCH   2  20
ATOM     20  O   UNL     1       8.061  -3.599  25.346  0.00  0.00    -0.278 OA
BRANCH  20  21
ATOM     21  P   UNL     1       8.496  -5.018  25.957  0.00  0.00    +0.473 P 
ATOM     22  O   UNL     1       7.379  -5.911  26.365  0.00  0.00    -0.228 OA
BRANCH  21  23
ATOM     23  O   UNL     1       9.588  -4.714  27.080  0.00  0.00    -0.303 OA
ATOM     24  H   UNL     1       9.313  -3.991  27.691  0.00  0.00    +0.222 HD
ENDBRANCH  21  23
BRANCH  21  25
ATOM     25  O   UNL     1       9.385  -5.607  24.768  0.00  0.00    -0.303 OA
ATOM     26  H   UNL     1       8.868  -5.672  23.946  0.00  0.00    +0.222 HD
ENDBRANCH  21  25
ENDBRANCH  20  21
ENDBRANCH   2  20
TORSDOF 8
ENDMDL
MODEL 3
REMARK VINA RESULT:      -6.5      2.182      3.666
REMARK  Name = 
REMARK  8 active torsions:
REMARK  status: ('A' for Active; 'I' for Inactive)
REMARK    1  A    between atoms: O_1  and  C_2
REMARK    2  A    between atoms: C_2  and  C_3
REMARK    3  A    between atoms: C_6  and  N_18
REMARK    4  A    between atoms: C_8  and  O_10
REMARK    5  A    between atoms: C_11  and  O_13
REMARK    6  A    between atoms: O_13  and  P_14
REMARK    7  A    between atoms: P_14  and  O_15
REMARK    8  A    between atoms: P_14  and  O_16
REMARK                            x       y       z     vdW  Elec       q    Type
REMARK                         _______ _______ _______ _____ _____    ______ ____
ROOT
ATOM      1  C   UNL     1       8.696  -4.814  24.224  0.00  0.00    +0.178 C 
ATOM      2  C   UNL     1       7.224  -4.532  23.927  0.00  0.00    +0.194 C 
ATOM      3  C   UNL     1       7.143  -3.024  23.730  0.00  0.00    +0.196 C 
ATOM      4  C   UNL     1       8.496  -2.506  24.242  0.00  0.00    +0.255 C 
ATOM      5  O   UNL     1       9.418  -3.583  24.000  0.00  0.00    -0.346 OA
ENDROOT
BRANCH   4   6
ATOM      6  N   UNL     1       8.931  -1.275  23.574  0.00  0.00    -0.271 N 
ATOM      7  C   UNL     1       9.405  -0.258  24.394  0.00  0.00    +0.331 A 
ATOM      8  O   UNL     1       9.420  -0.333  25.619  0.00  0.00    -0.246 OA
ATOM      9  N   UNL     1       9.852   0.866  23.758  0.00  0.00    -0.275 N 
ATOM     10  H   UNL     1      10.218   1.605  24.337  0.00  0.00    +0.173 HD
ATOM     11  C   UNL     1       9.943   1.038  22.408  0.00  0.00    +0.254 A 
ATOM     12  O   UNL     1      10.450   2.027  21.893  0.00  0.00    -0.268 OA
ATOM     13  C   UNL     1       9.404  -0.056  21.589  0.00  0.00    +0.088 A 
ATOM     14  C   UNL     1       8.930  -1.148  22.199  0.00  0.00    +0.098 A 
ENDBRANCH   4   6
BRANCH   3  15
ATOM     15  O   UNL     1       5.973  -2.521  24.390  0.00  0.00    -0.385 OA
ATOM     16  H   UNL     1       5.260  -2.470  23.708  0.00  0.00    +0.210 HD
ENDBRANCH   3  15
BRANCH   1  17
ATOM     17  C   UNL     1       8.899  -5.255  25.683  0.00  0.00    +0.190 C 
BRANCH  17  18
ATOM     18  O   UNL     1      10.282  -5.480  25.956  0.00  0.00    -0.392 OA
ATOM     19  H   UNL     1      10.358  -6.357  26.372  0.00  0.00    +0.210 HD
ENDBRANCH  17  18
ENDBRANCH   1  17
BRANCH   2  20
ATOM     20  O   UNL     1       6.818  -5.209  22.742  0.00  0.00    -0.278 OA
BRANCH  20  21
ATOM     21  P   UNL     1       5.275  -5.622  22.581  0.00  0.00    +0.473 P 
ATOM     22  O   UNL     1       4.298  -4.505  22.685  0.00  0.00    -0.228 OA
BRANCH  21  23
ATOM     23  O   UNL     1       5.029  -6.855  23.562  0.00  0.00    -0.303 OA
ATOM     24  H   UNL     1       5.856  -7.161  24.002  0.00  0.00    +0.222 HD
ENDBRANCH  21  23
BRANCH  21  25
ATOM     25  O   UNL     1       5.292  -6.325  21.147  0.00  0.00    -0.303 OA
ATOM     26  H   UNL     1       4.976  -7.243  21.205  0.00  0.00    +0.222 HD
ENDBRANCH  21  25
ENDBRANCH  20  21
ENDBRANCH   2  20
TORSDOF 8
ENDMDL
MODEL 4
REMARK VINA RESULT:      -6.4      2.982      6.409
REMARK  Name = 
REMARK  8 active torsions:
REMARK  status: ('A' for Active; 'I' for Inactive)
REMARK    1  A    between atoms: O_1  and  C_2
REMARK    2  A    between atoms: C_2  and  C_3
REMARK    3  A    between atoms: C_6  and  N_18
REMARK    4  A    between atoms: C_8  and  O_10
REMARK    5  A    between atoms: C_11  and  O_13
REMARK    6  A    between atoms: O_13  and  P_14
REMARK    7  A    between atoms: P_14  and  O_15
REMARK    8  A    between atoms: P_14  and  O_16
REMARK                            x       y       z     vdW  Elec       q    Type
REMARK                         _______ _______ _______ _____ _____    ______ ____
ROOT
ATOM      1  C   UNL     1       9.462  -0.880  23.527  0.00  0.00    +0.178 C 
ATOM      2  C   UNL     1       8.049  -0.755  22.959  0.00  0.00    +0.194 C 
ATOM      3  C   UNL     1       7.307  -1.981  23.474  0.00  0.00    +0.196 C 
ATOM      4  C   UNL     1       8.418  -2.887  24.027  0.00  0.00    +0.255 C 
ATOM      5  O   UNL     1       9.448  -1.983  24.461  0.00  0.00    -0.346 OA
ENDROOT
BRANCH   4   6
ATOM      6  N   UNL     1       7.966  -3.744  25.128  0.00  0.00    -0.271 N 
ATOM      7  C   UNL     1       8.684  -4.916  25.338  0.00  0.00    +0.331 A 
ATOM      8  O   UNL     1       9.618  -5.270  24.624  0.00  0.00    -0.246 OA
ATOM      9  N   UNL     1       8.285  -5.682  26.396  0.00  0.00    -0.275 N 
ATOM     10  H   UNL     1       8.808  -6.525  26.575  0.00  0.00    +0.173 HD
ATOM     11  C   UNL     1       7.308  -5.362  27.293  0.00  0.00    +0.254 A 
ATOM     12  O   UNL     1       7.063  -6.038  28.284  0.00  0.00    -0.268 OA
ATOM     13  C   UNL     1       6.564  -4.127  27.008  0.00  0.00    +0.088 A 
ATOM     14  C   UNL     1       6.921  -3.384  25.956  0.00  0.00    +0.098 A 
ENDBRANCH   4   6
BRANCH   3  15
ATOM     15  O   UNL     1       6.502  -2.526  22.418  0.00  0.00    -0.385 OA
ATOM     16  H   UNL     1       5.685  -2.887  22.840  0.00  0.00    +0.210 HD
ENDBRANCH   3  15
BRANCH   1  17
ATOM     17  C   UNL     1      10.488  -1.175  22.420  0.00  0.00    +0.190 C 
BRANCH  17  18
ATOM     18  O   UNL     1       9.870  -1.138  21.134  0.00  0.00    -0.392 OA
ATOM     19  H   UNL     1      10.101  -1.964  20.675  0.00  0.00    +0.210 HD
ENDBRANCH  17  18
ENDBRANCH   1  17
BRANCH   2  20
ATOM     20  O   UNL     1       7.428   0.436  23.432  0.00  0.00    -0.278 OA
BRANCH  20  21
ATOM     21  P   UNL     1       7.572   1.778  22.563  0.00  0.00    +0.473 P 
ATOM     22  O   UNL     1       6.318   2.553  22.367  0.00  0.00    -0.228 OA
BRANCH  21  23
ATOM     23  O   UNL     1       8.357   1.376  21.234  0.00  0.00    -0.303 OA
ATOM     24  H   UNL     1       8.270   0.419  21.016  0.00  0.00    +0.222 HD
ENDBRANCH  21  23
BRANCH  21  25
ATOM     25  O   UNL     1       8.688   2.563  23.394  0.00  0.00    -0.303 OA
ATOM     26  H   UNL     1       8.303   3.325  23.860  0.00  0.00    +0.222 HD
ENDBRANCH  21  25
ENDBRANCH  20  21
ENDBRANCH   2  20
TORSDOF 8
ENDMDL
MODEL 5
REMARK VINA RESULT:      -6.2      3.298      6.627
REMARK  Name = 
REMARK  8 active torsions:
REMARK  status: ('A' for Active; 'I' for Inactive)
REMARK    1  A    between atoms: O_1  and  C_2
REMARK    2  A    between atoms: C_2  and  C_3
REMARK    3  A    between atoms: C_6  and  N_18
REMARK    4  A    between atoms: C_8  and  O_10
REMARK    5  A    between atoms: C_11  and  O_13
REMARK    6  A    between atoms: O_13  and  P_14
REMARK    7  A    between atoms: P_14  and  O_15
REMARK    8  A    between atoms: P_14  and  O_16
REMARK                            x       y       z     vdW  Elec       q    Type
REMARK                         _______ _______ _______ _____ _____    ______ ____
ROOT
ATOM      1  C   UNL     1       7.739  -1.146  25.405  0.00  0.00    +0.178 C 
ATOM      2  C   UNL     1       8.702  -1.683  24.347  0.00  0.00    +0.194 C 
ATOM      3  C   UNL     1       8.465  -3.187  24.323  0.00  0.00    +0.196 C 
ATOM      4  C   UNL     1       7.626  -3.454  25.582  0.00  0.00    +0.255 C 
ATOM      5  O   UNL     1       6.880  -2.242  25.792  0.00  0.00    -0.346 OA
ENDROOT
BRANCH   4   6
ATOM      6  N   UNL     1       6.734  -4.609  25.444  0.00  0.00    -0.271 N 
ATOM      7  C   UNL     1       6.565  -5.401  26.574  0.00  0.00    +0.331 A 
ATOM      8  O   UNL     1       7.158  -5.203  27.630  0.00  0.00    -0.246 OA
ATOM      9  N   UNL     1       5.694  -6.447  26.448  0.00  0.00    -0.275 N 
ATOM     10  H   UNL     1       5.544  -7.019  27.264  0.00  0.00    +0.173 HD
ATOM     11  C   UNL     1       4.933  -6.727  25.351  0.00  0.00    +0.254 A 
ATOM     12  O   UNL     1       4.091  -7.616  25.331  0.00  0.00    -0.268 OA
ATOM     13  C   UNL     1       5.172  -5.875  24.178  0.00  0.00    +0.088 A 
ATOM     14  C   UNL     1       6.047  -4.869  24.275  0.00  0.00    +0.098 A 
ENDBRANCH   4   6
BRANCH   3  15
ATOM     15  O   UNL     1       9.727  -3.865  24.238  0.00  0.00    -0.385 OA
ATOM     16  H   UNL     1       9.543  -4.764  23.873  0.00  0.00    +0.210 HD
ENDBRANCH   3  15
BRANCH   1  17
ATOM     17  C   UNL     1       8.494  -0.641  26.645  0.00  0.00    +0.190 C 
BRANCH  17  18
ATOM     18  O   UNL     1       9.694   0.033  26.269  0.00  0.00    -0.392 OA
ATOM     19  H   UNL     1      10.373  -0.189  26.930  0.00  0.00    +0.210 HD
ENDBRANCH  17  18
ENDBRANCH   1  17
BRANCH   2  20
ATOM     20  O   UNL     1       8.408  -1.114  23.075  0.00  0.00    -0.278 OA
BRANCH  20  21
ATOM     21  P   UNL     1       9.604  -0.457  22.229  0.00  0.00    +0.473 P 
ATOM     22  O   UNL     1       9.209   0.640  21.306  0.00  0.00    -0.228 OA
BRANCH  21  23
ATOM     23  O   UNL     1      10.412  -1.664  21.571  0.00  0.00    -0.303 OA
ATOM     24  H   UNL     1      10.425  -1.619  20.586  0.00  0.00    +0.222 HD
ENDBRANCH  21  23
BRANCH  21  25
ATOM     25  O   UNL     1      10.586   0.013  23.398  0.00  0.00    -0.303 OA
ATOM     26  H   UNL     1      10.086   0.259  24.195  0.00  0.00    +0.222 HD
ENDBRANCH  21  25
ENDBRANCH  20  21
ENDBRANCH   2  20
TORSDOF 8
ENDMDL
MODEL 6
REMARK VINA RESULT:      -6.2      1.763      2.022
REMARK  Name = 
REMARK  8 active torsions:
REMARK  status: ('A' for Active; 'I' for Inactive)
REMARK    1  A    between atoms: O_1  and  C_2
REMARK    2  A    between atoms: C_2  and  C_3
REMARK    3  A    between atoms: C_6  and  N_18
REMARK    4  A    between atoms: C_8  and  O_10
REMARK    5  A    between atoms: C_11  and  O_13
REMARK    6  A    between atoms: O_13  and  P_14
REMARK    7  A    between atoms: P_14  and  O_15
REMARK    8  A    between atoms: P_14  and  O_16
REMARK                            x       y       z     vdW  Elec       q    Type
REMARK                         _______ _______ _______ _____ _____    ______ ____
ROOT
ATOM      1  C   UNL     1       6.370  -3.407  23.980  0.00  0.00    +0.178 C 
ATOM      2  C   UNL     1       7.325  -4.107  24.945  0.00  0.00    +0.194 C 
ATOM      3  C   UNL     1       8.627  -3.324  24.851  0.00  0.00    +0.196 C 
ATOM      4  C   UNL     1       8.442  -2.436  23.612  0.00  0.00    +0.255 C 
ATOM      5  O   UNL     1       7.025  -2.196  23.539  0.00  0.00    -0.346 OA
ENDROOT
BRANCH   4   6
ATOM      6  N   UNL     1       9.189  -1.177  23.690  0.00  0.00    -0.271 N 
ATOM      7  C   UNL     1       9.586  -0.614  22.481  0.00  0.00    +0.331 A 
ATOM      8  O   UNL     1       9.385  -1.146  21.393  0.00  0.00    -0.246 OA
ATOM      9  N   UNL     1      10.239   0.582  22.563  0.00  0.00    -0.275 N 
ATOM     10  H   UNL     1      10.515   1.014  21.695  0.00  0.00    +0.173 HD
ATOM     11  C   UNL     1      10.463   1.296  23.704  0.00  0.00    +0.254 A 
ATOM     12  O   UNL     1      10.962   2.414  23.706  0.00  0.00    -0.268 OA
ATOM     13  C   UNL     1      10.048   0.643  24.954  0.00  0.00    +0.088 A 
ATOM     14  C   UNL     1       9.438  -0.545  24.892  0.00  0.00    +0.098 A 
ENDBRANCH   4   6
BRANCH   3  15
ATOM     15  O   UNL     1       9.731  -4.241  24.823  0.00  0.00    -0.385 OA
ATOM     16  H   UNL     1       9.643  -4.818  25.619  0.00  0.00    +0.210 HD
ENDBRANCH   3  15
BRANCH   1  17
ATOM     17  C   UNL     1       6.066  -4.285  22.755  0.00  0.00    +0.190 C 
BRANCH  17  18
ATOM     18  O   UNL     1       4.835  -3.896  22.147  0.00  0.00    -0.392 OA
ATOM     19  H   UNL     1       4.169  -3.827  22.853  0.00  0.00    +0.210 HD
ENDBRANCH  17  18
ENDBRANCH   1  17
BRANCH   2  20
ATOM     20  O   UNL     1       6.812  -4.059  26.273  0.00  0.00    -0.278 OA
BRANCH  20  21
ATOM     21  P   UNL     1       6.717  -5.424  27.113  0.00  0.00    +0.473 P 
ATOM     22  O   UNL     1       5.920  -6.510  26.483  0.00  0.00    -0.228 OA
BRANCH  21  23
ATOM     23  O   UNL     1       6.290  -5.017  28.595  0.00  0.00    -0.303 OA
ATOM     24  H   UNL     1       6.530  -4.087  28.817  0.00  0.00    +0.222 HD
ENDBRANCH  21  23
BRANCH  21  25
ATOM     25  O   UNL     1       8.263  -5.785  27.290  0.00  0.00    -0.303 OA
ATOM     26  H   UNL     1       8.825  -5.161  26.799  0.00  0.00    +0.222 HD
ENDBRANCH  21  25
ENDBRANCH  20  21
ENDBRANCH   2  20
TORSDOF 8
ENDMDL
MODEL 7
REMARK VINA RESULT:      -6.1      2.274      3.161
REMARK  Name = 
REMARK  8 active torsions:
REMARK  status: ('A' for Active; 'I' for Inactive)
REMARK    1  A    between atoms: O_1  and  C_2
REMARK    2  A    between atoms: C_2  and  C_3
REMARK    3  A    between atoms: C_6  and  N_18
REMARK    4  A    between atoms: C_8  and  O_10
REMARK    5  A    between atoms: C_11  and  O_13
REMARK    6  A    between atoms: O_13  and  P_14
REMARK    7  A    between atoms: P_14  and  O_15
REMARK    8  A    between atoms: P_14  and  O_16
REMARK                            x       y       z     vdW  Elec       q    Type
REMARK                         _______ _______ _______ _____ _____    ______ ____
ROOT
ATOM      1  C   UNL     1       5.850  -4.633  22.117  0.00  0.00    +0.178 C 
ATOM      2  C   UNL     1       5.932  -5.086  23.574  0.00  0.00    +0.194 C 
ATOM      3  C   UNL     1       7.011  -4.213  24.200  0.00  0.00    +0.196 C 
ATOM      4  C   UNL     1       7.699  -3.548  22.998  0.00  0.00    +0.255 C 
ATOM      5  O   UNL     1       6.673  -3.452  21.994  0.00  0.00    -0.346 OA
ENDROOT
BRANCH   4   6
ATOM      6  N   UNL     1       8.258  -2.230  23.312  0.00  0.00    -0.271 N 
ATOM      7  C   UNL     1       9.566  -2.207  23.786  0.00  0.00    +0.331 A 
ATOM      8  O   UNL     1      10.224  -3.223  23.993  0.00  0.00    -0.246 OA
ATOM      9  N   UNL     1      10.094  -0.971  24.030  0.00  0.00    -0.275 N 
ATOM     10  H   UNL     1      11.047  -0.936  24.354  0.00  0.00    +0.173 HD
ATOM     11  C   UNL     1       9.484   0.223  23.779  0.00  0.00    +0.254 A 
ATOM     12  O   UNL     1      10.045   1.302  23.920  0.00  0.00    -0.268 OA
ATOM     13  C   UNL     1       8.095   0.141  23.305  0.00  0.00    +0.088 A 
ATOM     14  C   UNL     1       7.553  -1.063  23.095  0.00  0.00    +0.098 A 
ENDBRANCH   4   6
BRANCH   3  15
ATOM     15  O   UNL     1       7.842  -5.019  25.048  0.00  0.00    -0.385 OA
ATOM     16  H   UNL     1       8.398  -4.398  25.577  0.00  0.00    +0.210 HD
ENDBRANCH   3  15
BRANCH   1  17
ATOM     17  C   UNL     1       6.381  -5.715  21.162  0.00  0.00    +0.190 C 
BRANCH  17  18
ATOM     18  O   UNL     1       6.470  -6.976  21.824  0.00  0.00    -0.392 OA
ATOM     19  H   UNL     1       6.141  -6.853  22.732  0.00  0.00    +0.210 HD
ENDBRANCH  17  18
ENDBRANCH   1  17
BRANCH   2  20
ATOM     20  O   UNL     1       4.684  -4.879  24.229  0.00  0.00    -0.278 OA
BRANCH  20  21
ATOM     21  P   UNL     1       3.502  -5.938  23.988  0.00  0.00    +0.473 P 
ATOM     22  O   UNL     1       2.606  -5.647  22.837  0.00  0.00    -0.228 OA
BRANCH  21  23
ATOM     23  O   UNL     1       2.782  -6.142  25.397  0.00  0.00    -0.303 OA
ATOM     24  H   UNL     1       1.799  -6.087  25.332  0.00  0.00    +0.222 HD
ENDBRANCH  21  23
BRANCH  21  25
ATOM     25  O   UNL     1       4.330  -7.294  23.829  0.00  0.00    -0.303 OA
ATOM     26  H   UNL     1       3.785  -7.989  23.421  0.00  0.00    +0.222 HD
ENDBRANCH  21  25
ENDBRANCH  20  21
ENDBRANCH   2  20
TORSDOF 8
ENDMDL
MODEL 8
REMARK VINA RESULT:      -6.0      2.918      6.215
REMARK  Name = 
REMARK  8 active torsions:
REMARK  status: ('A' for Active; 'I' for Inactive)
REMARK    1  A    between atoms: O_1  and  C_2
REMARK    2  A    between atoms: C_2  and  C_3
REMARK    3  A    between atoms: C_6  and  N_18
REMARK    4  A    between atoms: C_8  and  O_10
REMARK    5  A    between atoms: C_11  and  O_13
REMARK    6  A    between atoms: O_13  and  P_14
REMARK    7  A    between atoms: P_14  and  O_15
REMARK    8  A    between atoms: P_14  and  O_16
REMARK                            x       y       z     vdW  Elec       q    Type
REMARK                         _______ _______ _______ _____ _____    ______ ____
ROOT
ATOM      1  C   UNL     1       8.156  -0.462  25.362  0.00  0.00    +0.178 C 
ATOM      2  C   UNL     1       9.089  -0.046  24.225  0.00  0.00    +0.194 C 
ATOM      3  C   UNL     1       9.070  -1.216  23.250  0.00  0.00    +0.196 C 
ATOM      4  C   UNL     1       8.394  -2.348  24.037  0.00  0.00    +0.255 C 
ATOM      5  O   UNL     1       7.502  -1.683  24.948  0.00  0.00    -0.346 OA
ENDROOT
BRANCH   4   6
ATOM      6  N   UNL     1       7.669  -3.291  23.179  0.00  0.00    -0.271 N 
ATOM      7  C   UNL     1       7.962  -4.639  23.351  0.00  0.00    +0.331 A 
ATOM      8  O   UNL     1       8.816  -5.048  24.132  0.00  0.00    -0.246 OA
ATOM      9  N   UNL     1       7.247  -5.512  22.581  0.00  0.00    -0.275 N 
ATOM     10  H   UNL     1       7.432  -6.494  22.708  0.00  0.00    +0.173 HD
ATOM     11  C   UNL     1       6.233  -5.181  21.729  0.00  0.00    +0.254 A 
ATOM     12  O   UNL     1       5.556  -6.015  21.141  0.00  0.00    -0.268 OA
ATOM     13  C   UNL     1       5.984  -3.742  21.565  0.00  0.00    +0.088 A 
ATOM     14  C   UNL     1       6.701  -2.875  22.286  0.00  0.00    +0.098 A 
ENDBRANCH   4   6
BRANCH   3  15
ATOM     15  O   UNL     1      10.404  -1.467  22.785  0.00  0.00    -0.385 OA
ATOM     16  H   UNL     1      10.902  -1.858  23.543  0.00  0.00    +0.210 HD
ENDBRANCH   3  15
BRANCH   1  17
ATOM     17  C   UNL     1       8.937  -0.728  26.659  0.00  0.00    +0.190 C 
BRANCH  17  18
ATOM     18  O   UNL     1       8.380   0.012  27.745  0.00  0.00    -0.392 OA
ATOM     19  H   UNL     1       7.412  -0.070  27.689  0.00  0.00    +0.210 HD
ENDBRANCH  17  18
ENDBRANCH   1  17
BRANCH   2  20
ATOM     20  O   UNL     1       8.605   1.135  23.593  0.00  0.00    -0.278 OA
BRANCH  20  21
ATOM     21  P   UNL     1       9.666   2.174  22.985  0.00  0.00    +0.473 P 
ATOM     22  O   UNL     1      10.900   2.376  23.791  0.00  0.00    -0.228 OA
BRANCH  21  23
ATOM     23  O   UNL     1       8.850   3.496  22.621  0.00  0.00    -0.303 OA
ATOM     24  H   UNL     1       8.014   3.304  22.136  0.00  0.00    +0.222 HD
ENDBRANCH  21  23
BRANCH  21  25
ATOM     25  O   UNL     1       9.937   1.534  21.548  0.00  0.00    -0.303 OA
ATOM     26  H   UNL     1      10.203   2.215  20.907  0.00  0.00    +0.222 HD
ENDBRANCH  21  25
ENDBRANCH  20  21
ENDBRANCH   2  20
TORSDOF 8
ENDMDL
MODEL 9
REMARK VINA RESULT:      -5.8      2.991      6.310
REMARK  Name = 
REMARK  8 active torsions:
REMARK  status: ('A' for Active; 'I' for Inactive)
REMARK    1  A    between atoms: O_1  and  C_2
REMARK    2  A    between atoms: C_2  and  C_3
REMARK    3  A    between atoms: C_6  and  N_18
REMARK    4  A    between atoms: C_8  and  O_10
REMARK    5  A    between atoms: C_11  and  O_13
REMARK    6  A    between atoms: O_13  and  P_14
REMARK    7  A    between atoms: P_14  and  O_15
REMARK    8  A    between atoms: P_14  and  O_16
REMARK                            x       y       z     vdW  Elec       q    Type
REMARK                         _______ _______ _______ _____ _____    ______ ____
ROOT
ATOM      1  C   UNL     1       9.543  -1.500  23.672  0.00  0.00    +0.178 C 
ATOM      2  C   UNL     1       8.248  -0.715  23.466  0.00  0.00    +0.194 C 
ATOM      3  C   UNL     1       7.134  -1.700  23.794  0.00  0.00    +0.196 C 
ATOM      4  C   UNL     1       7.841  -3.062  23.851  0.00  0.00    +0.255 C 
ATOM      5  O   UNL     1       9.183  -2.763  24.274  0.00  0.00    -0.346 OA
ENDROOT
BRANCH   4   6
ATOM      6  N   UNL     1       7.194  -4.008  24.765  0.00  0.00    -0.271 N 
ATOM      7  C   UNL     1       6.188  -4.803  24.227  0.00  0.00    +0.331 A 
ATOM      8  O   UNL     1       5.801  -4.704  23.066  0.00  0.00    -0.246 OA
ATOM      9  N   UNL     1       5.626  -5.714  25.075  0.00  0.00    -0.275 N 
ATOM     10  H   UNL     1       4.910  -6.312  24.696  0.00  0.00    +0.173 HD
ATOM     11  C   UNL     1       6.015  -5.958  26.360  0.00  0.00    +0.254 A 
ATOM     12  O   UNL     1       5.544  -6.860  27.041  0.00  0.00    -0.268 OA
ATOM     13  C   UNL     1       7.063  -5.072  26.886  0.00  0.00    +0.088 A 
ATOM     14  C   UNL     1       7.598  -4.152  26.078  0.00  0.00    +0.098 A 
ENDBRANCH   4   6
BRANCH   3  15
ATOM     15  O   UNL     1       6.081  -1.563  22.829  0.00  0.00    -0.385 OA
ATOM     16  H   UNL     1       6.447  -1.033  22.080  0.00  0.00    +0.210 HD
ENDBRANCH   3  15
BRANCH   1  17
ATOM     17  C   UNL     1      10.255  -1.768  22.336  0.00  0.00    +0.190 C 
BRANCH  17  18
ATOM     18  O   UNL     1       9.902  -0.782  21.366  0.00  0.00    -0.392 OA
ATOM     19  H   UNL     1      10.175  -1.119  20.495  0.00  0.00    +0.210 HD
ENDBRANCH  17  18
ENDBRANCH   1  17
BRANCH   2  20
ATOM     20  O   UNL     1       8.199   0.402  24.347  0.00  0.00    -0.278 OA
BRANCH  20  21
ATOM     21  P   UNL     1       9.417   1.447  24.336  0.00  0.00    +0.473 P 
ATOM     22  O   UNL     1       9.884   1.872  22.989  0.00  0.00    -0.228 OA
BRANCH  21  23
ATOM     23  O   UNL     1      10.536   0.852  25.305  0.00  0.00    -0.303 OA
ATOM     24  H   UNL     1      10.922   0.010  24.967  0.00  0.00    +0.222 HD
ENDBRANCH  21  23
BRANCH  21  25
ATOM     25  O   UNL     1       8.809   2.639  25.208  0.00  0.00    -0.303 OA
ATOM     26  H   UNL     1       9.120   2.591  26.129  0.00  0.00    +0.222 HD
ENDBRANCH  21  25
ENDBRANCH  20  21
ENDBRANCH   2  20
TORSDOF 8
ENDMDL
