MODEL 1
REMARK VINA RESULT:      -5.2      0.000      0.000
REMARK  Name = 
REMARK  7 active torsions:
REMARK  status: ('A' for Active; 'I' for Inactive)
REMARK    1  A    between atoms: C_1  and  O_2
REMARK    2  A    between atoms: O_2  and  C_3
REMARK    3  A    between atoms: C_7  and  C_8
REMARK    4  A    between atoms: C_10  and  O_11
REMARK    5  A    between atoms: O_11  and  P_12
REMARK    6  A    between atoms: P_12  and  O_13
REMARK    7  A    between atoms: P_12  and  O_14
REMARK                            x       y       z     vdW  Elec       q    Type
REMARK                         _______ _______ _______ _____ _____    ______ ____
ROOT
ATOM      1  C   UNL     1       6.195  -5.469  23.748  0.00  0.00    +0.163 A 
ATOM      2  C   UNL     1       6.663  -5.161  25.037  0.00  0.00    +0.184 A 
ATOM      3  C   UNL     1       6.009  -5.710  26.154  0.00  0.00    +0.060 A 
ATOM      4  C   UNL     1       4.939  -6.594  25.996  0.00  0.00    +0.015 A 
ATOM      5  C   UNL     1       4.516  -6.944  24.721  0.00  0.00    +0.004 A 
ATOM      6  C   UNL     1       5.144  -6.391  23.607  0.00  0.00    +0.049 A 
ENDROOT
BRANCH   1   8
ATOM      7  C   UNL     1       6.917  -5.647  21.498  0.00  0.00    +0.277 C 
ATOM      8  O   UNL     1       6.775  -4.840  22.673  0.00  0.00    -0.491 OA
ENDBRANCH   1   8
BRANCH   3   9
ATOM      9  C   UNL     1       6.435  -5.355  27.525  0.00  0.00    +0.262 C 
ATOM     10  O   UNL     1       7.300  -5.988  28.118  0.00  0.00    -0.296 OA
ENDBRANCH   3   9
BRANCH   2  11
ATOM     11  O   UNL     1       7.695  -4.307  25.310  0.00  0.00    -0.400 OA
BRANCH  11  12
ATOM     12  P   UNL     1       9.254  -4.609  25.145  0.00  0.00    +0.528 P 
ATOM     13  O   UNL     1      10.079  -3.615  24.402  0.00  0.00    -0.216 OA
BRANCH  12  14
ATOM     14  O   UNL     1       9.252  -6.035  24.412  0.00  0.00    -0.293 OA
ATOM     15  H   UNL     1       8.353  -6.404  24.364  0.00  0.00    +0.223 HD
ENDBRANCH  12  14
BRANCH  12  16
ATOM     16  O   UNL     1       9.789  -4.996  26.597  0.00  0.00    -0.293 OA
ATOM     17  H   UNL     1      10.664  -4.584  26.726  0.00  0.00    +0.223 HD
ENDBRANCH  12  16
ENDBRANCH  11  12
ENDBRANCH   2  11
TORSDOF 6
ENDMDL
MODEL 2
REMARK VINA RESULT:      -5.1      1.991      3.318
REMARK  Name = 
REMARK  7 active torsions:
REMARK  status: ('A' for Active; 'I' for Inactive)
REMARK    1  A    between atoms: C_1  and  O_2
REMARK    2  A    between atoms: O_2  and  C_3
REMARK    3  A    between atoms: C_7  and  C_8
REMARK    4  A    between atoms: C_10  and  O_11
REMARK    5  A    between atoms: O_11  and  P_12
REMARK    6  A    between atoms: P_12  and  O_13
REMARK    7  A    between atoms: P_12  and  O_14
REMARK                            x       y       z     vdW  Elec       q    Type
REMARK                         _______ _______ _______ _____ _____    ______ ____
ROOT
ATOM      1  C   UNL     1       7.941  -4.069  23.437  0.00  0.00    +0.163 A 
ATOM      2  C   UNL     1       7.190  -4.993  24.185  0.00  0.00    +0.184 A 
ATOM      3  C   UNL     1       5.865  -5.270  23.802  0.00  0.00    +0.060 A 
ATOM      4  C   UNL     1       5.310  -4.681  22.664  0.00  0.00    +0.015 A 
ATOM      5  C   UNL     1       6.072  -3.816  21.892  0.00  0.00    +0.004 A 
ATOM      6  C   UNL     1       7.380  -3.518  22.272  0.00  0.00    +0.049 A 
ENDROOT
BRANCH   1   8
ATOM      7  C   UNL     1       9.410  -2.327  24.085  0.00  0.00    +0.277 C 
ATOM      8  O   UNL     1       9.194  -3.729  23.886  0.00  0.00    -0.491 OA
ENDBRANCH   1   8
BRANCH   3   9
ATOM      9  C   UNL     1       5.027  -6.186  24.604  0.00  0.00    +0.262 C 
ATOM     10  O   UNL     1       4.633  -7.258  24.160  0.00  0.00    -0.296 OA
ENDBRANCH   3   9
BRANCH   2  11
ATOM     11  O   UNL     1       7.629  -5.623  25.316  0.00  0.00    -0.400 OA
BRANCH  11  12
ATOM     12  P   UNL     1       7.913  -4.950  26.735  0.00  0.00    +0.528 P 
ATOM     13  O   UNL     1       7.306  -3.616  27.004  0.00  0.00    -0.216 OA
BRANCH  12  14
ATOM     14  O   UNL     1       9.514  -4.885  26.770  0.00  0.00    -0.293 OA
ATOM     15  H   UNL     1       9.879  -4.724  25.882  0.00  0.00    +0.223 HD
ENDBRANCH  12  14
BRANCH  12  16
ATOM     16  O   UNL     1       7.614  -6.073  27.828  0.00  0.00    -0.293 OA
ATOM     17  H   UNL     1       7.073  -6.772  27.415  0.00  0.00    +0.223 HD
ENDBRANCH  12  16
ENDBRANCH  11  12
ENDBRANCH   2  11
TORSDOF 6
ENDMDL
MODEL 3
REMARK VINA RESULT:      -4.9      1.774      3.486
REMARK  Name = 
REMARK  7 active torsions:
REMARK  status: ('A' for Active; 'I' for Inactive)
REMARK    1  A    between atoms: C_1  and  O_2
REMARK    2  A    between atoms: O_2  and  C_3
REMARK    3  A    between atoms: C_7  and  C_8
REMARK    4  A    between atoms: C_10  and  O_11
REMARK    5  A    between atoms: O_11  and  P_12
REMARK    6  A    between atoms: P_12  and  O_13
REMARK    7  A    between atoms: P_12  and  O_14
REMARK                            x       y       z     vdW  Elec       q    Type
REMARK                         _______ _______ _______ _____ _____    ______ ____
ROOT
ATOM      1  C   UNL     1       5.543  -5.595  25.005  0.00  0.00    +0.163 A 
ATOM      2  C   UNL     1       6.684  -5.014  24.423  0.00  0.00    +0.184 A 
ATOM      3  C   UNL     1       6.527  -4.122  23.348  0.00  0.00    +0.060 A 
ATOM      4  C   UNL     1       5.256  -3.767  22.890  0.00  0.00    +0.015 A 
ATOM      5  C   UNL     1       4.129  -4.294  23.504  0.00  0.00    +0.004 A 
ATOM      6  C   UNL     1       4.272  -5.196  24.558  0.00  0.00    +0.049 A 
ENDROOT
BRANCH   1   8
ATOM      7  C   UNL     1       4.606  -6.724  26.866  0.00  0.00    +0.277 C 
ATOM      8  O   UNL     1       5.718  -6.546  25.980  0.00  0.00    -0.491 OA
ENDBRANCH   1   8
BRANCH   3   9
ATOM      9  C   UNL     1       7.708  -3.544  22.672  0.00  0.00    +0.262 C 
ATOM     10  O   UNL     1       7.831  -2.336  22.502  0.00  0.00    -0.296 OA
ENDBRANCH   3   9
BRANCH   2  11
ATOM     11  O   UNL     1       7.972  -5.291  24.787  0.00  0.00    -0.400 OA
BRANCH  11  12
ATOM     12  P   UNL     1       8.712  -4.814  26.119  0.00  0.00    +0.528 P 
ATOM     13  O   UNL     1       8.716  -3.356  26.427  0.00  0.00    -0.216 OA
BRANCH  12  14
ATOM     14  O   UNL     1      10.199  -5.373  25.905  0.00  0.00    -0.293 OA
ATOM     15  H   UNL     1      10.859  -4.776  26.300  0.00  0.00    +0.223 HD
ENDBRANCH  12  14
BRANCH  12  16
ATOM     16  O   UNL     1       8.180  -5.761  27.287  0.00  0.00    -0.293 OA
ATOM     17  H   UNL     1       7.355  -6.188  26.989  0.00  0.00    +0.223 HD
ENDBRANCH  12  16
ENDBRANCH  11  12
ENDBRANCH   2  11
TORSDOF 6
ENDMDL
MODEL 4
REMARK VINA RESULT:      -4.9      2.528      3.925
REMARK  Name = 
REMARK  7 active torsions:
REMARK  status: ('A' for Active; 'I' for Inactive)
REMARK    1  A    between atoms: C_1  and  O_2
REMARK    2  A    between atoms: O_2  and  C_3
REMARK    3  A    between atoms: C_7  and  C_8
REMARK    4  A    between atoms: C_10  and  O_11
REMARK    5  A    between atoms: O_11  and  P_12
REMARK    6  A    between atoms: P_12  and  O_13
REMARK    7  A    between atoms: P_12  and  O_14
REMARK                            x       y       z     vdW  Elec       q    Type
REMARK                         _______ _______ _______ _____ _____    ______ ____
ROOT
ATOM      1  C   UNL     1       8.098  -3.982  24.160  0.00  0.00    +0.163 A 
ATOM      2  C   UNL     1       6.913  -4.653  24.510  0.00  0.00    +0.184 A 
ATOM      3  C   UNL     1       6.840  -5.321  25.745  0.00  0.00    +0.060 A 
ATOM      4  C   UNL     1       7.908  -5.279  26.646  0.00  0.00    +0.015 A 
ATOM      5  C   UNL     1       9.054  -4.566  26.326  0.00  0.00    +0.004 A 
ATOM      6  C   UNL     1       9.145  -3.917  25.095  0.00  0.00    +0.049 A 
ENDROOT
BRANCH   1   8
ATOM      7  C   UNL     1       8.835  -2.150  22.851  0.00  0.00    +0.277 C 
ATOM      8  O   UNL     1       8.191  -3.428  22.907  0.00  0.00    -0.491 OA
ENDBRANCH   1   8
BRANCH   3   9
ATOM      9  C   UNL     1       5.634  -6.090  26.114  0.00  0.00    +0.262 C 
ATOM     10  O   UNL     1       5.609  -6.825  27.095  0.00  0.00    -0.296 OA
ENDBRANCH   3   9
BRANCH   2  11
ATOM     11  O   UNL     1       5.812  -4.763  23.706  0.00  0.00    -0.400 OA
BRANCH  11  12
ATOM     12  P   UNL     1       5.704  -5.580  22.339  0.00  0.00    +0.528 P 
ATOM     13  O   UNL     1       6.768  -6.581  22.043  0.00  0.00    -0.216 OA
BRANCH  12  14
ATOM     14  O   UNL     1       5.675  -4.412  21.242  0.00  0.00    -0.293 OA
ATOM     15  H   UNL     1       4.854  -4.441  20.720  0.00  0.00    +0.223 HD
ENDBRANCH  12  14
BRANCH  12  16
ATOM     16  O   UNL     1       4.207  -6.127  22.264  0.00  0.00    -0.293 OA
ATOM     17  H   UNL     1       3.629  -5.406  21.953  0.00  0.00    +0.223 HD
ENDBRANCH  12  16
ENDBRANCH  11  12
ENDBRANCH   2  11
TORSDOF 6
ENDMDL
MODEL 5
REMARK VINA RESULT:      -4.8      0.626      3.269
REMARK  Name = 
REMARK  7 active torsions:
REMARK  status: ('A' for Active; 'I' for Inactive)
REMARK    1  A    between atoms: C_1  and  O_2
REMARK    2  A    between atoms: O_2  and  C_3
REMARK    3  A    between atoms: C_7  and  C_8
REMARK    4  A    between atoms: C_10  and  O_11
REMARK    5  A    between atoms: O_11  and  P_12
REMARK    6  A    between atoms: P_12  and  O_13
REMARK    7  A    between atoms: P_12  and  O_14
REMARK                            x       y       z     vdW  Elec       q    Type
REMARK                         _______ _______ _______ _____ _____    ______ ____
ROOT
ATOM      1  C   UNL     1       6.146  -5.872  26.147  0.00  0.00    +0.163 A 
ATOM      2  C   UNL     1       6.584  -5.132  25.035  0.00  0.00    +0.184 A 
ATOM      3  C   UNL     1       5.971  -5.339  23.787  0.00  0.00    +0.060 A 
ATOM      4  C   UNL     1       4.901  -6.227  23.653  0.00  0.00    +0.015 A 
ATOM      5  C   UNL     1       4.428  -6.912  24.763  0.00  0.00    +0.004 A 
ATOM      6  C   UNL     1       5.042  -6.729  26.002  0.00  0.00    +0.049 A 
ENDROOT
BRANCH   1   8
ATOM      7  C   UNL     1       6.014  -5.426  28.470  0.00  0.00    +0.277 C 
ATOM      8  O   UNL     1       6.826  -5.738  27.332  0.00  0.00    -0.491 OA
ENDBRANCH   1   8
BRANCH   3   9
ATOM      9  C   UNL     1       6.451  -4.626  22.585  0.00  0.00    +0.262 C 
ATOM     10  O   UNL     1       7.313  -5.098  21.852  0.00  0.00    -0.296 OA
ENDBRANCH   3   9
BRANCH   2  11
ATOM     11  O   UNL     1       7.623  -4.242  25.049  0.00  0.00    -0.400 OA
BRANCH  11  12
ATOM     12  P   UNL     1       9.180  -4.592  25.029  0.00  0.00    +0.528 P 
ATOM     13  O   UNL     1      10.101  -3.621  24.372  0.00  0.00    -0.216 OA
BRANCH  12  14
ATOM     14  O   UNL     1       9.204  -6.015  24.292  0.00  0.00    -0.293 OA
ATOM     15  H   UNL     1      10.064  -6.175  23.865  0.00  0.00    +0.223 HD
ENDBRANCH  12  14
BRANCH  12  16
ATOM     16  O   UNL     1       9.565  -4.998  26.523  0.00  0.00    -0.293 OA
ATOM     17  H   UNL     1       9.001  -5.746  26.796  0.00  0.00    +0.223 HD
ENDBRANCH  12  16
ENDBRANCH  11  12
ENDBRANCH   2  11
TORSDOF 6
ENDMDL
MODEL 6
REMARK VINA RESULT:      -4.8      5.150      6.609
REMARK  Name = 
REMARK  7 active torsions:
REMARK  status: ('A' for Active; 'I' for Inactive)
REMARK    1  A    between atoms: C_1  and  O_2
REMARK    2  A    between atoms: O_2  and  C_3
REMARK    3  A    between atoms: C_7  and  C_8
REMARK    4  A    between atoms: C_10  and  O_11
REMARK    5  A    between atoms: O_11  and  P_12
REMARK    6  A    between atoms: P_12  and  O_13
REMARK    7  A    between atoms: P_12  and  O_14
REMARK                            x       y       z     vdW  Elec       q    Type
REMARK                         _______ _______ _______ _____ _____    ______ ____
ROOT
ATOM      1  C   UNL     1       9.328  -1.698  23.159  0.00  0.00    +0.163 A 
ATOM      2  C   UNL     1       9.618  -0.586  23.969  0.00  0.00    +0.184 A 
ATOM      3  C   UNL     1       9.875   0.656  23.363  0.00  0.00    +0.060 A 
ATOM      4  C   UNL     1       9.793   0.808  21.977  0.00  0.00    +0.015 A 
ATOM      5  C   UNL     1       9.448  -0.276  21.183  0.00  0.00    +0.004 A 
ATOM      6  C   UNL     1       9.210  -1.517  21.771  0.00  0.00    +0.049 A 
ENDROOT
BRANCH   1   8
ATOM      7  C   UNL     1       8.030  -3.670  23.360  0.00  0.00    +0.277 C 
ATOM      8  O   UNL     1       9.187  -2.926  23.759  0.00  0.00    -0.491 OA
ENDBRANCH   1   8
BRANCH   3   9
ATOM      9  C   UNL     1      10.247   1.830  24.182  0.00  0.00    +0.262 C 
ATOM     10  O   UNL     1      10.440   2.932  23.683  0.00  0.00    -0.296 OA
ENDBRANCH   3   9
BRANCH   2  11
ATOM     11  O   UNL     1       9.729  -0.620  25.332  0.00  0.00    -0.400 OA
BRANCH  11  12
ATOM     12  P   UNL     1       8.536  -0.759  26.384  0.00  0.00    +0.528 P 
ATOM     13  O   UNL     1       7.310   0.055  26.154  0.00  0.00    -0.216 OA
BRANCH  12  14
ATOM     14  O   UNL     1       9.249  -0.368  27.765  0.00  0.00    -0.293 OA
ATOM     15  H   UNL     1      10.053   0.158  27.609  0.00  0.00    +0.223 HD
ENDBRANCH  12  14
BRANCH  12  16
ATOM     16  O   UNL     1       8.295  -2.324  26.580  0.00  0.00    -0.293 OA
ATOM     17  H   UNL     1       8.881  -2.641  27.292  0.00  0.00    +0.223 HD
ENDBRANCH  12  16
ENDBRANCH  11  12
ENDBRANCH   2  11
TORSDOF 6
ENDMDL
MODEL 7
REMARK VINA RESULT:      -4.7      3.093      4.723
REMARK  Name = 
REMARK  7 active torsions:
REMARK  status: ('A' for Active; 'I' for Inactive)
REMARK    1  A    between atoms: C_1  and  O_2
REMARK    2  A    between atoms: O_2  and  C_3
REMARK    3  A    between atoms: C_7  and  C_8
REMARK    4  A    between atoms: C_10  and  O_11
REMARK    5  A    between atoms: O_11  and  P_12
REMARK    6  A    between atoms: P_12  and  O_13
REMARK    7  A    between atoms: P_12  and  O_14
REMARK                            x       y       z     vdW  Elec       q    Type
REMARK                         _______ _______ _______ _____ _____    ______ ____
ROOT
ATOM      1  C   UNL     1       6.849  -2.323  25.386  0.00  0.00    +0.163 A 
ATOM      2  C   UNL     1       8.170  -2.568  24.973  0.00  0.00    +0.184 A 
ATOM      3  C   UNL     1       8.689  -1.859  23.875  0.00  0.00    +0.060 A 
ATOM      4  C   UNL     1       7.928  -0.881  23.229  0.00  0.00    +0.015 A 
ATOM      5  C   UNL     1       6.646  -0.597  23.677  0.00  0.00    +0.004 A 
ATOM      6  C   UNL     1       6.114  -1.307  24.752  0.00  0.00    +0.049 A 
ENDROOT
BRANCH   1   8
ATOM      7  C   UNL     1       5.188  -3.891  26.016  0.00  0.00    +0.277 C 
ATOM      8  O   UNL     1       6.322  -3.100  26.389  0.00  0.00    -0.491 OA
ENDBRANCH   1   8
BRANCH   3   9
ATOM      9  C   UNL     1      10.051  -2.140  23.374  0.00  0.00    +0.262 C 
ATOM     10  O   UNL     1      10.431  -1.747  22.277  0.00  0.00    -0.296 OA
ENDBRANCH   3   9
BRANCH   2  11
ATOM     11  O   UNL     1       9.001  -3.503  25.527  0.00  0.00    -0.400 OA
BRANCH  11  12
ATOM     12  P   UNL     1       9.051  -5.060  25.181  0.00  0.00    +0.528 P 
ATOM     13  O   UNL     1       8.511  -5.496  23.862  0.00  0.00    -0.216 OA
BRANCH  12  14
ATOM     14  O   UNL     1       8.231  -5.709  26.395  0.00  0.00    -0.293 OA
ATOM     15  H   UNL     1       8.502  -6.631  26.550  0.00  0.00    +0.223 HD
ENDBRANCH  12  14
BRANCH  12  16
ATOM     16  O   UNL     1      10.538  -5.540  25.506  0.00  0.00    -0.293 OA
ATOM     17  H   UNL     1      11.153  -5.065  24.918  0.00  0.00    +0.223 HD
ENDBRANCH  12  16
ENDBRANCH  11  12
ENDBRANCH   2  11
TORSDOF 6
ENDMDL
MODEL 8
REMARK VINA RESULT:      -4.6      2.728      5.081
REMARK  Name = 
REMARK  7 active torsions:
REMARK  status: ('A' for Active; 'I' for Inactive)
REMARK    1  A    between atoms: C_1  and  O_2
REMARK    2  A    between atoms: O_2  and  C_3
REMARK    3  A    between atoms: C_7  and  C_8
REMARK    4  A    between atoms: C_10  and  O_11
REMARK    5  A    between atoms: O_11  and  P_12
REMARK    6  A    between atoms: P_12  and  O_13
REMARK    7  A    between atoms: P_12  and  O_14
REMARK                            x       y       z     vdW  Elec       q    Type
REMARK                         _______ _______ _______ _____ _____    ______ ____
ROOT
ATOM      1  C   UNL     1       7.362  -5.087  25.403  0.00  0.00    +0.163 A 
ATOM      2  C   UNL     1       6.387  -4.611  24.509  0.00  0.00    +0.184 A 
ATOM      3  C   UNL     1       6.731  -3.603  23.591  0.00  0.00    +0.060 A 
ATOM      4  C   UNL     1       8.037  -3.112  23.522  0.00  0.00    +0.015 A 
ATOM      5  C   UNL     1       9.014  -3.625  24.363  0.00  0.00    +0.004 A 
ATOM      6  C   UNL     1       8.680  -4.611  25.291  0.00  0.00    +0.049 A 
ENDROOT
BRANCH   1   8
ATOM      7  C   UNL     1       6.670  -5.428  27.643  0.00  0.00    +0.277 C 
ATOM      8  O   UNL     1       6.982  -5.992  26.364  0.00  0.00    -0.491 OA
ENDBRANCH   1   8
BRANCH   3   9
ATOM      9  C   UNL     1       5.714  -3.034  22.682  0.00  0.00    +0.262 C 
ATOM     10  O   UNL     1       5.397  -3.589  21.636  0.00  0.00    -0.296 OA
ENDBRANCH   3   9
BRANCH   2  11
ATOM     11  O   UNL     1       5.081  -5.015  24.490  0.00  0.00    -0.400 OA
BRANCH  11  12
ATOM     12  P   UNL     1       4.483  -6.279  23.720  0.00  0.00    +0.528 P 
ATOM     13  O   UNL     1       4.132  -7.481  24.528  0.00  0.00    -0.216 OA
BRANCH  12  14
ATOM     14  O   UNL     1       5.631  -6.605  22.651  0.00  0.00    -0.293 OA
ATOM     15  H   UNL     1       6.436  -6.087  22.830  0.00  0.00    +0.223 HD
ENDBRANCH  12  14
BRANCH  12  16
ATOM     16  O   UNL     1       3.321  -5.720  22.782  0.00  0.00    -0.293 OA
ATOM     17  H   UNL     1       2.804  -6.475  22.444  0.00  0.00    +0.223 HD
ENDBRANCH  12  16
ENDBRANCH  11  12
ENDBRANCH   2  11
TORSDOF 6
ENDMDL
MODEL 9
REMARK VINA RESULT:      -4.5      2.854      4.318
REMARK  Name = 
REMARK  7 active torsions:
REMARK  status: ('A' for Active; 'I' for Inactive)
REMARK    1  A    between atoms: C_1  and  O_2
REMARK    2  A    between atoms: O_2  and  C_3
REMARK    3  A    between atoms: C_7  and  C_8
REMARK    4  A    between atoms: C_10  and  O_11
REMARK    5  A    between atoms: O_11  and  P_12
REMARK    6  A    between atoms: P_12  and  O_13
REMARK    7  A    between atoms: P_12  and  O_14
REMARK                            x       y       z     vdW  Elec       q    Type
REMARK                         _______ _______ _______ _____ _____    ______ ____
ROOT
ATOM      1  C   UNL     1       8.112  -2.611  23.604  0.00  0.00    +0.163 A 
ATOM      2  C   UNL     1       7.560  -3.822  24.056  0.00  0.00    +0.184 A 
ATOM      3  C   UNL     1       7.561  -4.106  25.432  0.00  0.00    +0.060 A 
ATOM      4  C   UNL     1       8.054  -3.180  26.355  0.00  0.00    +0.015 A 
ATOM      5  C   UNL     1       8.543  -1.958  25.913  0.00  0.00    +0.004 A 
ATOM      6  C   UNL     1       8.565  -1.674  24.548  0.00  0.00    +0.049 A 
ENDROOT
BRANCH   1   8
ATOM      7  C   UNL     1       9.256  -1.519  21.839  0.00  0.00    +0.277 C 
ATOM      8  O   UNL     1       8.201  -2.396  22.250  0.00  0.00    -0.491 OA
ENDBRANCH   1   8
BRANCH   3   9
ATOM      9  C   UNL     1       7.048  -5.398  25.935  0.00  0.00    +0.262 C 
ATOM     10  O   UNL     1       7.456  -5.895  26.979  0.00  0.00    -0.296 OA
ENDBRANCH   3   9
BRANCH   2  11
ATOM     11  O   UNL     1       7.056  -4.801  23.244  0.00  0.00    -0.400 OA
BRANCH  11  12
ATOM     12  P   UNL     1       5.633  -4.803  22.520  0.00  0.00    +0.528 P 
ATOM     13  O   UNL     1       4.433  -4.495  23.348  0.00  0.00    -0.216 OA
BRANCH  12  14
ATOM     14  O   UNL     1       5.561  -6.284  21.909  0.00  0.00    -0.293 OA
ATOM     15  H   UNL     1       4.650  -6.515  21.656  0.00  0.00    +0.223 HD
ENDBRANCH  12  14
BRANCH  12  16
ATOM     16  O   UNL     1       5.803  -3.921  21.202  0.00  0.00    -0.293 OA
ATOM     17  H   UNL     1       5.260  -3.116  21.296  0.00  0.00    +0.223 HD
ENDBRANCH  12  16
ENDBRANCH  11  12
ENDBRANCH   2  11
TORSDOF 6
ENDMDL
