MODEL 1
REMARK VINA RESULT:      -6.7      0.000      0.000
REMARK  Name = 
REMARK  9 active torsions:
REMARK  status: ('A' for Active; 'I' for Inactive)
REMARK    1  A    between atoms: C_1  and  C_2
REMARK    2  A    between atoms: C_2  and  C_3
REMARK    3  A    between atoms: C_4  and  C_5
REMARK    4  A    between atoms: C_5  and  O_6
REMARK    5  A    between atoms: O_6  and  C_7
REMARK    6  A    between atoms: C_12  and  N_13
REMARK    7  A    between atoms: N_13  and  C_14
REMARK    8  A    between atoms: C_14  and  C_16
REMARK    9  A    between atoms: C_17  and  C_18
REMARK                            x       y       z     vdW  Elec       q    Type
REMARK                         _______ _______ _______ _____ _____    ______ ____
ROOT
ATOM      1  C   UNL     1       9.796  -1.321  23.686  0.00  0.00    +0.141 A 
ATOM      2  C   UNL     1       9.412  -2.675  23.702  0.00  0.00    +0.070 A 
ATOM      3  C   UNL     1       8.779  -3.240  24.818  0.00  0.00    +0.035 A 
ATOM      4  C   UNL     1       8.556  -2.428  25.932  0.00  0.00    +0.025 A 
ATOM      5  C   UNL     1       8.991  -1.101  25.954  0.00  0.00    +0.025 A 
ATOM      6  C   UNL     1       9.612  -0.547  24.838  0.00  0.00    +0.083 A 
ATOM      7 CL   UNL     1      10.092   1.111  24.908  0.00  0.00    -0.080 Cl
ENDROOT
BRANCH   3   8
ATOM      8  N   UNL     1       8.316  -4.577  24.700  0.00  0.00    -0.308 N 
ATOM      9  H   UNL     1       9.018  -5.289  24.853  0.00  0.00    +0.153 HD
BRANCH   8  10
ATOM     10  C   UNL     1       7.051  -5.057  24.408  0.00  0.00    +0.087 C 
ATOM     11  S   UNL     1       5.921  -5.663  25.492  0.00  0.00    -0.035 S 
BRANCH  10  12
ATOM     12  C   UNL     1       6.681  -5.121  22.983  0.00  0.00    +0.044 A 
ATOM     13  C   UNL     1       6.716  -6.268  22.110  0.00  0.00    +0.051 A 
ATOM     14  C   UNL     1       6.193  -5.887  20.902  0.00  0.00    +0.196 A 
ATOM     15  O   UNL     1       5.869  -4.578  20.934  0.00  0.00    -0.467 OA
ATOM     16  C   UNL     1       6.152  -4.107  22.183  0.00  0.00    +0.111 A 
ATOM     17  C   UNL     1       5.782  -2.683  22.357  0.00  0.00    +0.087 C 
ENDBRANCH  10  12
ENDBRANCH   8  10
ENDBRANCH   3   8
BRANCH   1  18
ATOM     18  O   UNL     1      10.346  -0.704  22.589  0.00  0.00    -0.486 OA
BRANCH  18  19
ATOM     19  C   UNL     1       9.436  -0.426  21.527  0.00  0.00    +0.256 C 
BRANCH  19  22
ATOM     20  C   UNL     1       7.671   3.032  21.900  0.00  0.00    +0.038 C 
ATOM     21  C   UNL     1       7.953   1.564  22.048  0.00  0.00    -0.076 C 
ATOM     22  C   UNL     1       9.083   1.031  21.534  0.00  0.00    +0.012 C 
ATOM     23  C   UNL     1       6.930   0.745  22.787  0.00  0.00    +0.038 C 
ENDBRANCH  19  22
ENDBRANCH  18  19
ENDBRANCH   1  18
TORSDOF 6
ENDMDL
MODEL 2
REMARK VINA RESULT:      -6.3      1.580      2.314
REMARK  Name = 
REMARK  9 active torsions:
REMARK  status: ('A' for Active; 'I' for Inactive)
REMARK    1  A    between atoms: C_1  and  C_2
REMARK    2  A    between atoms: C_2  and  C_3
REMARK    3  A    between atoms: C_4  and  C_5
REMARK    4  A    between atoms: C_5  and  O_6
REMARK    5  A    between atoms: O_6  and  C_7
REMARK    6  A    between atoms: C_12  and  N_13
REMARK    7  A    between atoms: N_13  and  C_14
REMARK    8  A    between atoms: C_14  and  C_16
REMARK    9  A    between atoms: C_17  and  C_18
REMARK                            x       y       z     vdW  Elec       q    Type
REMARK                         _______ _______ _______ _____ _____    ______ ____
ROOT
ATOM      1  C   UNL     1       9.540   0.162  23.954  0.00  0.00    +0.141 A 
ATOM      2  C   UNL     1       9.264  -1.138  24.414  0.00  0.00    +0.070 A 
ATOM      3  C   UNL     1       9.312  -2.243  23.551  0.00  0.00    +0.035 A 
ATOM      4  C   UNL     1       9.621  -2.018  22.208  0.00  0.00    +0.025 A 
ATOM      5  C   UNL     1       9.832  -0.725  21.725  0.00  0.00    +0.025 A 
ATOM      6  C   UNL     1       9.790   0.364  22.591  0.00  0.00    +0.083 A 
ATOM      7 CL   UNL     1      10.100   1.936  21.945  0.00  0.00    -0.080 Cl
ENDROOT
BRANCH   3   8
ATOM      8  N   UNL     1       9.141  -3.530  24.126  0.00  0.00    -0.308 N 
ATOM      9  H   UNL     1       9.980  -3.944  24.508  0.00  0.00    +0.153 HD
BRANCH   8  10
ATOM     10  C   UNL     1       8.000  -4.305  24.244  0.00  0.00    +0.087 C 
ATOM     11  S   UNL     1       7.365  -4.967  25.650  0.00  0.00    -0.035 S 
BRANCH  10  12
ATOM     12  C   UNL     1       7.310  -4.660  22.992  0.00  0.00    +0.044 A 
ATOM     13  C   UNL     1       7.399  -5.892  22.249  0.00  0.00    +0.051 A 
ATOM     14  C   UNL     1       6.512  -5.816  21.208  0.00  0.00    +0.196 A 
ATOM     15  O   UNL     1       5.901  -4.614  21.213  0.00  0.00    -0.467 OA
ATOM     16  C   UNL     1       6.367  -3.910  22.285  0.00  0.00    +0.111 A 
ATOM     17  C   UNL     1       5.721  -2.585  22.427  0.00  0.00    +0.087 C 
ENDBRANCH  10  12
ENDBRANCH   8  10
ENDBRANCH   3   8
BRANCH   1  18
ATOM     18  O   UNL     1       9.584   1.262  24.776  0.00  0.00    -0.486 OA
BRANCH  18  19
ATOM     19  C   UNL     1       8.317   1.729  25.234  0.00  0.00    +0.256 C 
BRANCH  19  22
ATOM     20  C   UNL     1       6.962   4.418  22.756  0.00  0.00    +0.038 C 
ATOM     21  C   UNL     1       7.158   3.096  23.440  0.00  0.00    -0.076 C 
ATOM     22  C   UNL     1       7.960   2.999  24.522  0.00  0.00    +0.012 C 
ATOM     23  C   UNL     1       6.425   1.916  22.863  0.00  0.00    +0.038 C 
ENDBRANCH  19  22
ENDBRANCH  18  19
ENDBRANCH   1  18
TORSDOF 6
ENDMDL
MODEL 3
REMARK VINA RESULT:      -6.1      2.445      3.421
REMARK  Name = 
REMARK  9 active torsions:
REMARK  status: ('A' for Active; 'I' for Inactive)
REMARK    1  A    between atoms: C_1  and  C_2
REMARK    2  A    between atoms: C_2  and  C_3
REMARK    3  A    between atoms: C_4  and  C_5
REMARK    4  A    between atoms: C_5  and  O_6
REMARK    5  A    between atoms: O_6  and  C_7
REMARK    6  A    between atoms: C_12  and  N_13
REMARK    7  A    between atoms: N_13  and  C_14
REMARK    8  A    between atoms: C_14  and  C_16
REMARK    9  A    between atoms: C_17  and  C_18
REMARK                            x       y       z     vdW  Elec       q    Type
REMARK                         _______ _______ _______ _____ _____    ______ ____
ROOT
ATOM      1  C   UNL     1       8.703  -0.362  24.576  0.00  0.00    +0.141 A 
ATOM      2  C   UNL     1       7.749  -1.275  24.091  0.00  0.00    +0.070 A 
ATOM      3  C   UNL     1       8.072  -2.205  23.092  0.00  0.00    +0.035 A 
ATOM      4  C   UNL     1       9.366  -2.190  22.569  0.00  0.00    +0.025 A 
ATOM      5  C   UNL     1      10.303  -1.246  22.995  0.00  0.00    +0.025 A 
ATOM      6  C   UNL     1       9.976  -0.332  23.993  0.00  0.00    +0.083 A 
ATOM      7 CL   UNL     1      11.188   0.786  24.508  0.00  0.00    -0.080 Cl
ENDROOT
BRANCH   3   8
ATOM      8  N   UNL     1       7.085  -3.168  22.752  0.00  0.00    -0.308 N 
ATOM      9  H   UNL     1       6.273  -2.800  22.273  0.00  0.00    +0.153 HD
BRANCH   8  10
ATOM     10  C   UNL     1       7.063  -4.534  22.973  0.00  0.00    +0.087 C 
ATOM     11  S   UNL     1       7.029  -5.749  21.815  0.00  0.00    -0.035 S 
BRANCH  10  12
ATOM     12  C   UNL     1       6.977  -4.975  24.376  0.00  0.00    +0.044 A 
ATOM     13  C   UNL     1       5.799  -5.358  25.114  0.00  0.00    +0.051 A 
ATOM     14  C   UNL     1       6.203  -5.788  26.350  0.00  0.00    +0.196 A 
ATOM     15  O   UNL     1       7.542  -5.667  26.463  0.00  0.00    -0.467 OA
ATOM     16  C   UNL     1       8.020  -5.184  25.280  0.00  0.00    +0.111 A 
ATOM     17  C   UNL     1       9.496  -5.062  25.265  0.00  0.00    +0.087 C 
ENDBRANCH  10  12
ENDBRANCH   8  10
ENDBRANCH   3   8
BRANCH   1  18
ATOM     18  O   UNL     1       8.458   0.513  25.606  0.00  0.00    -0.486 OA
BRANCH  18  19
ATOM     19  C   UNL     1       7.546   1.567  25.305  0.00  0.00    +0.256 C 
BRANCH  19  22
ATOM     20  C   UNL     1       9.551   4.619  23.937  0.00  0.00    +0.038 C 
ATOM     21  C   UNL     1       8.714   3.373  23.962  0.00  0.00    -0.076 C 
ATOM     22  C   UNL     1       8.299   2.852  25.137  0.00  0.00    +0.012 C 
ATOM     23  C   UNL     1       8.372   2.755  22.633  0.00  0.00    +0.038 C 
ENDBRANCH  19  22
ENDBRANCH  18  19
ENDBRANCH   1  18
TORSDOF 6
ENDMDL
MODEL 4
REMARK VINA RESULT:      -6.1      2.191      2.917
REMARK  Name = 
REMARK  9 active torsions:
REMARK  status: ('A' for Active; 'I' for Inactive)
REMARK    1  A    between atoms: C_1  and  C_2
REMARK    2  A    between atoms: C_2  and  C_3
REMARK    3  A    between atoms: C_4  and  C_5
REMARK    4  A    between atoms: C_5  and  O_6
REMARK    5  A    between atoms: O_6  and  C_7
REMARK    6  A    between atoms: C_12  and  N_13
REMARK    7  A    between atoms: N_13  and  C_14
REMARK    8  A    between atoms: C_14  and  C_16
REMARK    9  A    between atoms: C_17  and  C_18
REMARK                            x       y       z     vdW  Elec       q    Type
REMARK                         _______ _______ _______ _____ _____    ______ ____
ROOT
ATOM      1  C   UNL     1       8.025   0.205  23.449  0.00  0.00    +0.141 A 
ATOM      2  C   UNL     1       8.181  -1.080  24.000  0.00  0.00    +0.070 A 
ATOM      3  C   UNL     1       8.838  -2.101  23.297  0.00  0.00    +0.035 A 
ATOM      4  C   UNL     1       9.318  -1.818  22.017  0.00  0.00    +0.025 A 
ATOM      5  C   UNL     1       9.112  -0.566  21.432  0.00  0.00    +0.025 A 
ATOM      6  C   UNL     1       8.466   0.443  22.141  0.00  0.00    +0.083 A 
ATOM      7 CL   UNL     1       8.276   1.983  21.382  0.00  0.00    -0.080 Cl
ENDROOT
BRANCH   3   8
ATOM      8  N   UNL     1       9.058  -3.327  23.978  0.00  0.00    -0.308 N 
ATOM      9  H   UNL     1      10.010  -3.487  24.278  0.00  0.00    +0.153 HD
BRANCH   8  10
ATOM     10  C   UNL     1       8.167  -4.338  24.296  0.00  0.00    +0.087 C 
ATOM     11  S   UNL     1       8.086  -5.204  25.732  0.00  0.00    -0.035 S 
BRANCH  10  12
ATOM     12  C   UNL     1       7.240  -4.761  23.232  0.00  0.00    +0.044 A 
ATOM     13  C   UNL     1       7.441  -5.782  22.235  0.00  0.00    +0.051 A 
ATOM     14  C   UNL     1       6.280  -5.900  21.519  0.00  0.00    +0.196 A 
ATOM     15  O   UNL     1       5.375  -5.003  21.961  0.00  0.00    -0.467 OA
ATOM     16  C   UNL     1       5.938  -4.315  22.996  0.00  0.00    +0.111 A 
ATOM     17  C   UNL     1       5.010  -3.333  23.604  0.00  0.00    +0.087 C 
ENDBRANCH  10  12
ENDBRANCH   8  10
ENDBRANCH   3   8
BRANCH   1  18
ATOM     18  O   UNL     1       7.461   1.256  24.129  0.00  0.00    -0.486 OA
BRANCH  18  19
ATOM     19  C   UNL     1       8.304   1.876  25.097  0.00  0.00    +0.256 C 
BRANCH  19  22
ATOM     20  C   UNL     1       9.753   5.290  23.892  0.00  0.00    +0.038 C 
ATOM     21  C   UNL     1       9.613   3.811  24.110  0.00  0.00    -0.076 C 
ATOM     22  C   UNL     1       8.521   3.313  24.732  0.00  0.00    +0.012 C 
ATOM     23  C   UNL     1      10.730   2.938  23.607  0.00  0.00    +0.038 C 
ENDBRANCH  19  22
ENDBRANCH  18  19
ENDBRANCH   1  18
TORSDOF 6
ENDMDL
MODEL 5
REMARK VINA RESULT:      -5.9      1.861      2.565
REMARK  Name = 
REMARK  9 active torsions:
REMARK  status: ('A' for Active; 'I' for Inactive)
REMARK    1  A    between atoms: C_1  and  C_2
REMARK    2  A    between atoms: C_2  and  C_3
REMARK    3  A    between atoms: C_4  and  C_5
REMARK    4  A    between atoms: C_5  and  O_6
REMARK    5  A    between atoms: O_6  and  C_7
REMARK    6  A    between atoms: C_12  and  N_13
REMARK    7  A    between atoms: N_13  and  C_14
REMARK    8  A    between atoms: C_14  and  C_16
REMARK    9  A    between atoms: C_17  and  C_18
REMARK                            x       y       z     vdW  Elec       q    Type
REMARK                         _______ _______ _______ _____ _____    ______ ____
ROOT
ATOM      1  C   UNL     1       8.142   0.296  22.588  0.00  0.00    +0.141 A 
ATOM      2  C   UNL     1       7.609  -0.868  23.170  0.00  0.00    +0.070 A 
ATOM      3  C   UNL     1       8.410  -1.743  23.917  0.00  0.00    +0.035 A 
ATOM      4  C   UNL     1       9.766  -1.443  24.054  0.00  0.00    +0.025 A 
ATOM      5  C   UNL     1      10.322  -0.325  23.427  0.00  0.00    +0.025 A 
ATOM      6  C   UNL     1       9.517   0.542  22.693  0.00  0.00    +0.083 A 
ATOM      7 CL   UNL     1      10.252   1.930  21.974  0.00  0.00    -0.080 Cl
ENDROOT
BRANCH   3   8
ATOM      8  N   UNL     1       7.763  -2.826  24.569  0.00  0.00    -0.308 N 
ATOM      9  H   UNL     1       7.152  -2.565  25.332  0.00  0.00    +0.153 HD
BRANCH   8  10
ATOM     10  C   UNL     1       7.839  -4.186  24.320  0.00  0.00    +0.087 C 
ATOM     11  S   UNL     1       8.871  -5.294  25.044  0.00  0.00    -0.035 S 
BRANCH  10  12
ATOM     12  C   UNL     1       6.979  -4.709  23.244  0.00  0.00    +0.044 A 
ATOM     13  C   UNL     1       7.349  -5.588  22.162  0.00  0.00    +0.051 A 
ATOM     14  C   UNL     1       6.210  -5.888  21.463  0.00  0.00    +0.196 A 
ATOM     15  O   UNL     1       5.158  -5.234  21.994  0.00  0.00    -0.467 OA
ATOM     16  C   UNL     1       5.606  -4.525  23.071  0.00  0.00    +0.111 A 
ATOM     17  C   UNL     1       4.520  -3.805  23.776  0.00  0.00    +0.087 C 
ENDBRANCH  10  12
ENDBRANCH   8  10
ENDBRANCH   3   8
BRANCH   1  18
ATOM     18  O   UNL     1       7.383   1.222  21.916  0.00  0.00    -0.486 OA
BRANCH  18  19
ATOM     19  C   UNL     1       6.659   2.130  22.743  0.00  0.00    +0.256 C 
BRANCH  19  22
ATOM     20  C   UNL     1       7.366   5.898  22.027  0.00  0.00    +0.038 C 
ATOM     21  C   UNL     1       7.463   4.533  22.645  0.00  0.00    -0.076 C 
ATOM     22  C   UNL     1       6.728   3.509  22.160  0.00  0.00    +0.012 C 
ATOM     23  C   UNL     1       8.406   4.377  23.807  0.00  0.00    +0.038 C 
ENDBRANCH  19  22
ENDBRANCH  18  19
ENDBRANCH   1  18
TORSDOF 6
ENDMDL
MODEL 6
REMARK VINA RESULT:      -5.9      1.798      2.189
REMARK  Name = 
REMARK  9 active torsions:
REMARK  status: ('A' for Active; 'I' for Inactive)
REMARK    1  A    between atoms: C_1  and  C_2
REMARK    2  A    between atoms: C_2  and  C_3
REMARK    3  A    between atoms: C_4  and  C_5
REMARK    4  A    between atoms: C_5  and  O_6
REMARK    5  A    between atoms: O_6  and  C_7
REMARK    6  A    between atoms: C_12  and  N_13
REMARK    7  A    between atoms: N_13  and  C_14
REMARK    8  A    between atoms: C_14  and  C_16
REMARK    9  A    between atoms: C_17  and  C_18
REMARK                            x       y       z     vdW  Elec       q    Type
REMARK                         _______ _______ _______ _____ _____    ______ ____
ROOT
ATOM      1  C   UNL     1       9.824  -0.894  23.359  0.00  0.00    +0.141 A 
ATOM      2  C   UNL     1       9.521  -2.268  23.317  0.00  0.00    +0.070 A 
ATOM      3  C   UNL     1       9.000  -2.934  24.436  0.00  0.00    +0.035 A 
ATOM      4  C   UNL     1       8.809  -2.204  25.610  0.00  0.00    +0.025 A 
ATOM      5  C   UNL     1       9.167  -0.855  25.685  0.00  0.00    +0.025 A 
ATOM      6  C   UNL     1       9.675  -0.201  24.566  0.00  0.00    +0.083 A 
ATOM      7 CL   UNL     1      10.062   1.477  24.706  0.00  0.00    -0.080 Cl
ENDROOT
BRANCH   3   8
ATOM      8  N   UNL     1       8.609  -4.289  24.267  0.00  0.00    -0.308 N 
ATOM      9  H   UNL     1       9.304  -4.973  24.534  0.00  0.00    +0.153 HD
BRANCH   8  10
ATOM     10  C   UNL     1       7.421  -4.817  23.793  0.00  0.00    +0.087 C 
ATOM     11  S   UNL     1       7.118  -5.415  22.254  0.00  0.00    -0.035 S 
BRANCH  10  12
ATOM     12  C   UNL     1       6.268  -4.777  24.710  0.00  0.00    +0.044 A 
ATOM     13  C   UNL     1       5.795  -5.821  25.586  0.00  0.00    +0.051 A 
ATOM     14  C   UNL     1       4.761  -5.309  26.323  0.00  0.00    +0.196 A 
ATOM     15  O   UNL     1       4.518  -4.036  25.951  0.00  0.00    -0.467 OA
ATOM     16  C   UNL     1       5.422  -3.701  24.985  0.00  0.00    +0.111 A 
ATOM     17  C   UNL     1       5.289  -2.296  24.535  0.00  0.00    +0.087 C 
ENDBRANCH  10  12
ENDBRANCH   8  10
ENDBRANCH   3   8
BRANCH   1  18
ATOM     18  O   UNL     1      10.259  -0.182  22.268  0.00  0.00    -0.486 OA
BRANCH  18  19
ATOM     19  C   UNL     1       9.260   0.107  21.293  0.00  0.00    +0.256 C 
BRANCH  19  22
ATOM     20  C   UNL     1       7.286   3.389  22.024  0.00  0.00    +0.038 C 
ATOM     21  C   UNL     1       7.672   1.938  22.037  0.00  0.00    -0.076 C 
ATOM     22  C   UNL     1       8.811   1.529  21.436  0.00  0.00    +0.012 C 
ATOM     23  C   UNL     1       6.740   0.992  22.743  0.00  0.00    +0.038 C 
ENDBRANCH  19  22
ENDBRANCH  18  19
ENDBRANCH   1  18
TORSDOF 6
ENDMDL
MODEL 7
REMARK VINA RESULT:      -5.6      4.339      7.025
REMARK  Name = 
REMARK  9 active torsions:
REMARK  status: ('A' for Active; 'I' for Inactive)
REMARK    1  A    between atoms: C_1  and  C_2
REMARK    2  A    between atoms: C_2  and  C_3
REMARK    3  A    between atoms: C_4  and  C_5
REMARK    4  A    between atoms: C_5  and  O_6
REMARK    5  A    between atoms: O_6  and  C_7
REMARK    6  A    between atoms: C_12  and  N_13
REMARK    7  A    between atoms: N_13  and  C_14
REMARK    8  A    between atoms: C_14  and  C_16
REMARK    9  A    between atoms: C_17  and  C_18
REMARK                            x       y       z     vdW  Elec       q    Type
REMARK                         _______ _______ _______ _____ _____    ______ ____
ROOT
ATOM      1  C   UNL     1       9.789  -0.204  23.897  0.00  0.00    +0.141 A 
ATOM      2  C   UNL     1      10.197   1.113  24.176  0.00  0.00    +0.070 A 
ATOM      3  C   UNL     1      10.191   2.105  23.185  0.00  0.00    +0.035 A 
ATOM      4  C   UNL     1       9.789   1.747  21.896  0.00  0.00    +0.025 A 
ATOM      5  C   UNL     1       9.445   0.428  21.590  0.00  0.00    +0.025 A 
ATOM      6  C   UNL     1       9.446  -0.547  22.584  0.00  0.00    +0.083 A 
ATOM      7 CL   UNL     1       8.971  -2.152  22.156  0.00  0.00    -0.080 Cl
ENDROOT
BRANCH   3   8
ATOM      8  N   UNL     1      10.501   3.432  23.584  0.00  0.00    -0.308 N 
ATOM      9  H   UNL     1      11.471   3.595  23.817  0.00  0.00    +0.153 HD
BRANCH   8  10
ATOM     10  C   UNL     1       9.677   4.538  23.703  0.00  0.00    +0.087 C 
ATOM     11  S   UNL     1      10.144   6.122  24.006  0.00  0.00    -0.035 S 
BRANCH  10  12
ATOM     12  C   UNL     1       8.226   4.291  23.639  0.00  0.00    +0.044 A 
ATOM     13  C   UNL     1       7.335   4.526  22.529  0.00  0.00    +0.051 A 
ATOM     14  C   UNL     1       6.097   4.059  22.884  0.00  0.00    +0.196 A 
ATOM     15  O   UNL     1       6.129   3.586  24.147  0.00  0.00    -0.467 OA
ATOM     16  C   UNL     1       7.406   3.715  24.610  0.00  0.00    +0.111 A 
ATOM     17  C   UNL     1       7.577   3.172  25.978  0.00  0.00    +0.087 C 
ENDBRANCH  10  12
ENDBRANCH   8  10
ENDBRANCH   3   8
BRANCH   1  18
ATOM     18  O   UNL     1       9.702  -1.187  24.852  0.00  0.00    -0.486 OA
BRANCH  18  19
ATOM     19  C   UNL     1       8.686  -0.994  25.833  0.00  0.00    +0.256 C 
BRANCH  19  22
ATOM     20  C   UNL     1       5.199  -2.353  24.739  0.00  0.00    +0.038 C 
ATOM     21  C   UNL     1       6.358  -1.416  24.921  0.00  0.00    -0.076 C 
ATOM     22  C   UNL     1       7.498  -1.846  25.505  0.00  0.00    +0.012 C 
ATOM     23  C   UNL     1       6.180  -0.007  24.427  0.00  0.00    +0.038 C 
ENDBRANCH  19  22
ENDBRANCH  18  19
ENDBRANCH   1  18
TORSDOF 6
ENDMDL
MODEL 8
REMARK VINA RESULT:      -5.6      4.039      7.656
REMARK  Name = 
REMARK  9 active torsions:
REMARK  status: ('A' for Active; 'I' for Inactive)
REMARK    1  A    between atoms: C_1  and  C_2
REMARK    2  A    between atoms: C_2  and  C_3
REMARK    3  A    between atoms: C_4  and  C_5
REMARK    4  A    between atoms: C_5  and  O_6
REMARK    5  A    between atoms: O_6  and  C_7
REMARK    6  A    between atoms: C_12  and  N_13
REMARK    7  A    between atoms: N_13  and  C_14
REMARK    8  A    between atoms: C_14  and  C_16
REMARK    9  A    between atoms: C_17  and  C_18
REMARK                            x       y       z     vdW  Elec       q    Type
REMARK                         _______ _______ _______ _____ _____    ______ ____
ROOT
ATOM      1  C   UNL     1       8.760  -0.775  22.834  0.00  0.00    +0.141 A 
ATOM      2  C   UNL     1       8.573   0.573  22.480  0.00  0.00    +0.070 A 
ATOM      3  C   UNL     1       9.256   1.603  23.142  0.00  0.00    +0.035 A 
ATOM      4  C   UNL     1      10.118   1.260  24.185  0.00  0.00    +0.025 A 
ATOM      5  C   UNL     1      10.263  -0.070  24.590  0.00  0.00    +0.025 A 
ATOM      6  C   UNL     1       9.587  -1.085  23.921  0.00  0.00    +0.083 A 
ATOM      7 CL   UNL     1       9.837  -2.714  24.439  0.00  0.00    -0.080 Cl
ENDROOT
BRANCH   3   8
ATOM      8  N   UNL     1       9.099   2.922  22.638  0.00  0.00    -0.308 N 
ATOM      9  H   UNL     1       9.685   3.151  21.845  0.00  0.00    +0.153 HD
BRANCH   8  10
ATOM     10  C   UNL     1       8.267   3.942  23.064  0.00  0.00    +0.087 C 
ATOM     11  S   UNL     1       6.782   4.378  22.413  0.00  0.00    -0.035 S 
BRANCH  10  12
ATOM     12  C   UNL     1       8.771   4.795  24.154  0.00  0.00    +0.044 A 
ATOM     13  C   UNL     1       9.705   5.890  24.063  0.00  0.00    +0.051 A 
ATOM     14  C   UNL     1       9.806   6.454  25.307  0.00  0.00    +0.196 A 
ATOM     15  O   UNL     1       9.041   5.774  26.184  0.00  0.00    -0.467 OA
ATOM     16  C   UNL     1       8.408   4.776  25.502  0.00  0.00    +0.111 A 
ATOM     17  C   UNL     1       7.488   3.990  26.357  0.00  0.00    +0.087 C 
ENDBRANCH  10  12
ENDBRANCH   8  10
ENDBRANCH   3   8
BRANCH   1  18
ATOM     18  O   UNL     1       8.175  -1.822  22.163  0.00  0.00    -0.486 OA
BRANCH  18  19
ATOM     19  C   UNL     1       6.908  -2.235  22.668  0.00  0.00    +0.256 C 
BRANCH  19  22
ATOM     20  C   UNL     1       6.197  -5.727  21.083  0.00  0.00    +0.038 C 
ATOM     21  C   UNL     1       6.705  -4.682  22.035  0.00  0.00    -0.076 C 
ATOM     22  C   UNL     1       6.390  -3.382  21.853  0.00  0.00    +0.012 C 
ATOM     23  C   UNL     1       7.562  -5.160  23.175  0.00  0.00    +0.038 C 
ENDBRANCH  19  22
ENDBRANCH  18  19
ENDBRANCH   1  18
TORSDOF 6
ENDMDL
MODEL 9
REMARK VINA RESULT:      -5.5      5.086      8.569
REMARK  Name = 
REMARK  9 active torsions:
REMARK  status: ('A' for Active; 'I' for Inactive)
REMARK    1  A    between atoms: C_1  and  C_2
REMARK    2  A    between atoms: C_2  and  C_3
REMARK    3  A    between atoms: C_4  and  C_5
REMARK    4  A    between atoms: C_5  and  O_6
REMARK    5  A    between atoms: O_6  and  C_7
REMARK    6  A    between atoms: C_12  and  N_13
REMARK    7  A    between atoms: N_13  and  C_14
REMARK    8  A    between atoms: C_14  and  C_16
REMARK    9  A    between atoms: C_17  and  C_18
REMARK                            x       y       z     vdW  Elec       q    Type
REMARK                         _______ _______ _______ _____ _____    ______ ____
ROOT
ATOM      1  C   UNL     1       8.324   1.282  24.769  0.00  0.00    +0.141 A 
ATOM      2  C   UNL     1       8.444   2.572  24.220  0.00  0.00    +0.070 A 
ATOM      3  C   UNL     1       9.668   3.042  23.723  0.00  0.00    +0.035 A 
ATOM      4  C   UNL     1      10.781   2.203  23.806  0.00  0.00    +0.025 A 
ATOM      5  C   UNL     1      10.690   0.945  24.408  0.00  0.00    +0.025 A 
ATOM      6  C   UNL     1       9.468   0.485  24.891  0.00  0.00    +0.083 A 
ATOM      7 CL   UNL     1       9.407  -1.095  25.588  0.00  0.00    -0.080 Cl
ENDROOT
BRANCH   3   8
ATOM      8  N   UNL     1       9.670   4.307  23.077  0.00  0.00    -0.308 N 
ATOM      9  H   UNL     1       9.806   4.277  22.075  0.00  0.00    +0.153 HD
BRANCH   8  10
ATOM     10  C   UNL     1       9.512   5.575  23.608  0.00  0.00    +0.087 C 
ATOM     11  S   UNL     1       8.204   6.606  23.400  0.00  0.00    -0.035 S 
BRANCH  10  12
ATOM     12  C   UNL     1      10.649   6.118  24.371  0.00  0.00    +0.044 A 
ATOM     13  C   UNL     1      10.612   6.905  25.579  0.00  0.00    +0.051 A 
ATOM     14  C   UNL     1      11.904   7.102  25.987  0.00  0.00    +0.196 A 
ATOM     15  O   UNL     1      12.755   6.535  25.109  0.00  0.00    -0.467 OA
ATOM     16  C   UNL     1      12.013   5.935  24.134  0.00  0.00    +0.111 A 
ATOM     17  C   UNL     1      12.845   5.224  23.135  0.00  0.00    +0.087 C 
ENDBRANCH  10  12
ENDBRANCH   8  10
ENDBRANCH   3   8
BRANCH   1  18
ATOM     18  O   UNL     1       7.131   0.750  25.193  0.00  0.00    -0.486 OA
BRANCH  18  19
ATOM     19  C   UNL     1       6.199   0.443  24.159  0.00  0.00    +0.256 C 
BRANCH  19  22
ATOM     20  C   UNL     1       7.329  -2.811  22.331  0.00  0.00    +0.038 C 
ATOM     21  C   UNL     1       6.587  -1.898  23.264  0.00  0.00    -0.076 C 
ATOM     22  C   UNL     1       6.797  -0.564  23.224  0.00  0.00    +0.012 C 
ATOM     23  C   UNL     1       5.620  -2.540  24.220  0.00  0.00    +0.038 C 
ENDBRANCH  19  22
ENDBRANCH  18  19
ENDBRANCH   1  18
TORSDOF 6
ENDMDL
