MODEL 1
REMARK VINA RESULT:      -6.3      0.000      0.000
REMARK  Name = 
REMARK  5 active torsions:
REMARK  status: ('A' for Active; 'I' for Inactive)
REMARK    1  A    between atoms: C_1  and  C_2
REMARK    2  A    between atoms: C_3  and  C_4
REMARK    3  A    between atoms: C_4  and  C_5
REMARK    4  A    between atoms: C_5  and  N_6
REMARK    5  A    between atoms: C_7  and  C_9
REMARK                            x       y       z     vdW  Elec       q    Type
REMARK                         _______ _______ _______ _____ _____    ______ ____
ROOT
ATOM      1  C   UNL     1      10.780   0.331  24.840  0.00  0.00    +0.063 C 
ATOM      2  C   UNL     1       9.779  -0.638  24.320  0.00  0.00    +0.017 A 
ATOM      3  N   UNL     1       9.106  -1.477  25.172  0.00  0.00    -0.358 N 
ATOM      4  H   UNL     1       9.226  -1.506  26.175  0.00  0.00    +0.166 HD
ATOM      5  C   UNL     1       8.244  -2.288  24.472  0.00  0.00    +0.047 A 
ATOM      6  C   UNL     1       8.369  -1.952  23.126  0.00  0.00    +0.003 A 
ATOM      7  C   UNL     1       7.579  -2.652  22.189  0.00  0.00    +0.010 A 
ATOM      8  C   UNL     1       6.702  -3.652  22.632  0.00  0.00    +0.001 A 
ATOM      9  C   UNL     1       6.603  -3.961  23.987  0.00  0.00    +0.002 A 
ATOM     10  C   UNL     1       7.374  -3.284  24.934  0.00  0.00    +0.026 A 
ATOM     11  C   UNL     1       9.343  -0.903  23.031  0.00  0.00    -0.018 A 
ENDROOT
BRANCH  11  12
ATOM     12  C   UNL     1       9.818  -0.229  21.778  0.00  0.00    +0.056 C 
BRANCH  12  13
ATOM     13  C   UNL     1       9.074   1.083  21.518  0.00  0.00    +0.109 C 
BRANCH  13  14
ATOM     14  N   UNL     1       9.817   2.245  21.973  0.00  0.00    -0.311 N 
ATOM     15  H   UNL     1      10.622   2.556  21.446  0.00  0.00    +0.149 HD
ATOM     16  C   UNL     1       9.455   2.960  23.097  0.00  0.00    +0.251 C 
ATOM     17  O   UNL     1       8.464   2.657  23.758  0.00  0.00    -0.270 OA
BRANCH  16  18
ATOM     18  C   UNL     1      10.319   4.082  23.447  0.00  0.00    +0.074 A 
ATOM     19  S   UNL     1       9.718   5.527  24.152  0.00  0.00    -0.092 S 
ATOM     20  C   UNL     1      11.276   6.231  24.216  0.00  0.00    +0.046 A 
ATOM     21  C   UNL     1      12.242   5.389  23.712  0.00  0.00    +0.008 A 
ATOM     22  C   UNL     1      11.690   4.153  23.270  0.00  0.00    +0.021 A 
ENDBRANCH  16  18
ENDBRANCH  13  14
ENDBRANCH  12  13
ENDBRANCH  11  12
TORSDOF 4
ENDMDL
MODEL 2
REMARK VINA RESULT:      -6.3      3.115      7.134
REMARK  Name = 
REMARK  5 active torsions:
REMARK  status: ('A' for Active; 'I' for Inactive)
REMARK    1  A    between atoms: C_1  and  C_2
REMARK    2  A    between atoms: C_3  and  C_4
REMARK    3  A    between atoms: C_4  and  C_5
REMARK    4  A    between atoms: C_5  and  N_6
REMARK    5  A    between atoms: C_7  and  C_9
REMARK                            x       y       z     vdW  Elec       q    Type
REMARK                         _______ _______ _______ _____ _____    ______ ____
ROOT
ATOM      1  C   UNL     1       9.447  -0.641  21.109  0.00  0.00    +0.063 C 
ATOM      2  C   UNL     1       9.143   0.559  21.932  0.00  0.00    +0.017 A 
ATOM      3  N   UNL     1       8.420   1.602  21.412  0.00  0.00    -0.358 N 
ATOM      4  H   UNL     1       8.049   1.641  20.473  0.00  0.00    +0.166 HD
ATOM      5  C   UNL     1       8.272   2.602  22.343  0.00  0.00    +0.047 A 
ATOM      6  C   UNL     1       8.922   2.180  23.502  0.00  0.00    +0.003 A 
ATOM      7  C   UNL     1       8.915   3.042  24.620  0.00  0.00    +0.010 A 
ATOM      8  C   UNL     1       8.263   4.281  24.536  0.00  0.00    +0.001 A 
ATOM      9  C   UNL     1       7.623   4.669  23.362  0.00  0.00    +0.002 A 
ATOM     10  C   UNL     1       7.616   3.835  22.241  0.00  0.00    +0.026 A 
ATOM     11  C   UNL     1       9.473   0.883  23.240  0.00  0.00    -0.018 A 
ENDROOT
BRANCH  11  12
ATOM     12  C   UNL     1      10.272   0.038  24.188  0.00  0.00    +0.056 C 
BRANCH  12  13
ATOM     13  C   UNL     1       9.375  -0.770  25.127  0.00  0.00    +0.109 C 
BRANCH  13  14
ATOM     14  N   UNL     1       8.509  -1.693  24.415  0.00  0.00    -0.311 N 
ATOM     15  H   UNL     1       7.549  -1.433  24.233  0.00  0.00    +0.149 HD
ATOM     16  C   UNL     1       8.952  -2.917  23.956  0.00  0.00    +0.251 C 
ATOM     17  O   UNL     1      10.117  -3.277  24.111  0.00  0.00    -0.270 OA
BRANCH  16  18
ATOM     18  C   UNL     1       7.956  -3.749  23.289  0.00  0.00    +0.074 A 
ATOM     19  S   UNL     1       6.722  -3.095  22.293  0.00  0.00    -0.092 S 
ATOM     20  C   UNL     1       6.068  -4.641  21.961  0.00  0.00    +0.046 A 
ATOM     21  C   UNL     1       6.770  -5.643  22.593  0.00  0.00    +0.008 A 
ATOM     22  C   UNL     1       7.856  -5.129  23.357  0.00  0.00    +0.021 A 
ENDBRANCH  16  18
ENDBRANCH  13  14
ENDBRANCH  12  13
ENDBRANCH  11  12
TORSDOF 4
ENDMDL
MODEL 3
REMARK VINA RESULT:      -6.3      3.786      7.875
REMARK  Name = 
REMARK  5 active torsions:
REMARK  status: ('A' for Active; 'I' for Inactive)
REMARK    1  A    between atoms: C_1  and  C_2
REMARK    2  A    between atoms: C_3  and  C_4
REMARK    3  A    between atoms: C_4  and  C_5
REMARK    4  A    between atoms: C_5  and  N_6
REMARK    5  A    between atoms: C_7  and  C_9
REMARK                            x       y       z     vdW  Elec       q    Type
REMARK                         _______ _______ _______ _____ _____    ______ ____
ROOT
ATOM      1  C   UNL     1       8.559  -1.965  26.526  0.00  0.00    +0.063 C 
ATOM      2  C   UNL     1       8.963  -1.024  25.449  0.00  0.00    +0.017 A 
ATOM      3  N   UNL     1       9.073   0.321  25.696  0.00  0.00    -0.358 N 
ATOM      4  H   UNL     1       8.899   0.764  26.588  0.00  0.00    +0.166 HD
ATOM      5  C   UNL     1       9.447   0.994  24.558  0.00  0.00    +0.047 A 
ATOM      6  C   UNL     1       9.584   0.044  23.548  0.00  0.00    +0.003 A 
ATOM      7  C   UNL     1       9.966   0.489  22.263  0.00  0.00    +0.010 A 
ATOM      8  C   UNL     1      10.193   1.854  22.043  0.00  0.00    +0.001 A 
ATOM      9  C   UNL     1      10.047   2.776  23.077  0.00  0.00    +0.002 A 
ATOM     10  C   UNL     1       9.670   2.362  24.356  0.00  0.00    +0.026 A 
ATOM     11  C   UNL     1       9.278  -1.237  24.115  0.00  0.00    -0.018 A 
ENDROOT
BRANCH  11  12
ATOM     12  C   UNL     1       9.278  -2.558  23.404  0.00  0.00    +0.056 C 
BRANCH  12  13
ATOM     13  C   UNL     1       7.940  -2.837  22.717  0.00  0.00    +0.109 C 
BRANCH  13  14
ATOM     14  N   UNL     1       7.040  -3.619  23.546  0.00  0.00    -0.311 N 
ATOM     15  H   UNL     1       6.455  -3.150  24.223  0.00  0.00    +0.149 HD
ATOM     16  C   UNL     1       6.937  -4.991  23.433  0.00  0.00    +0.251 C 
ATOM     17  O   UNL     1       7.591  -5.618  22.603  0.00  0.00    -0.270 OA
BRANCH  16  18
ATOM     18  C   UNL     1       6.015  -5.642  24.358  0.00  0.00    +0.074 A 
ATOM     19  S   UNL     1       6.204  -5.563  26.061  0.00  0.00    -0.092 S 
ATOM     20  C   UNL     1       4.812  -6.519  26.334  0.00  0.00    +0.046 A 
ATOM     21  C   UNL     1       4.208  -6.897  25.156  0.00  0.00    +0.008 A 
ATOM     22  C   UNL     1       4.901  -6.392  24.020  0.00  0.00    +0.021 A 
ENDBRANCH  16  18
ENDBRANCH  13  14
ENDBRANCH  12  13
ENDBRANCH  11  12
TORSDOF 4
ENDMDL
MODEL 4
REMARK VINA RESULT:      -6.2      3.113      5.145
REMARK  Name = 
REMARK  5 active torsions:
REMARK  status: ('A' for Active; 'I' for Inactive)
REMARK    1  A    between atoms: C_1  and  C_2
REMARK    2  A    between atoms: C_3  and  C_4
REMARK    3  A    between atoms: C_4  and  C_5
REMARK    4  A    between atoms: C_5  and  N_6
REMARK    5  A    between atoms: C_7  and  C_9
REMARK                            x       y       z     vdW  Elec       q    Type
REMARK                         _______ _______ _______ _____ _____    ______ ____
ROOT
ATOM      1  C   UNL     1       6.178  -5.909  20.868  0.00  0.00    +0.063 C 
ATOM      2  C   UNL     1       5.778  -5.712  22.286  0.00  0.00    +0.017 A 
ATOM      3  N   UNL     1       5.211  -6.734  23.004  0.00  0.00    -0.358 N 
ATOM      4  H   UNL     1       5.028  -7.663  22.649  0.00  0.00    +0.166 HD
ATOM      5  C   UNL     1       4.913  -6.323  24.282  0.00  0.00    +0.047 A 
ATOM      6  C   UNL     1       5.308  -4.990  24.384  0.00  0.00    +0.003 A 
ATOM      7  C   UNL     1       5.105  -4.329  25.615  0.00  0.00    +0.010 A 
ATOM      8  C   UNL     1       4.522  -5.021  26.685  0.00  0.00    +0.001 A 
ATOM      9  C   UNL     1       4.141  -6.353  26.547  0.00  0.00    +0.002 A 
ATOM     10  C   UNL     1       4.329  -7.030  25.340  0.00  0.00    +0.026 A 
ATOM     11  C   UNL     1       5.857  -4.604  23.117  0.00  0.00    -0.018 A 
ENDROOT
BRANCH  11  12
ATOM     12  C   UNL     1       6.401  -3.255  22.747  0.00  0.00    +0.056 C 
BRANCH  12  13
ATOM     13  C   UNL     1       7.908  -3.160  22.991  0.00  0.00    +0.109 C 
BRANCH  13  14
ATOM     14  N   UNL     1       8.373  -1.788  23.079  0.00  0.00    -0.311 N 
ATOM     15  H   UNL     1       7.708  -1.049  23.266  0.00  0.00    +0.149 HD
ATOM     16  C   UNL     1       9.704  -1.447  22.935  0.00  0.00    +0.251 C 
ATOM     17  O   UNL     1      10.567  -2.301  22.745  0.00  0.00    -0.270 OA
BRANCH  16  18
ATOM     18  C   UNL     1      10.013  -0.024  23.015  0.00  0.00    +0.074 A 
ATOM     19  S   UNL     1      10.600   0.716  24.447  0.00  0.00    -0.092 S 
ATOM     20  C   UNL     1      10.675   2.257  23.708  0.00  0.00    +0.046 A 
ATOM     21  C   UNL     1      10.263   2.219  22.396  0.00  0.00    +0.008 A 
ATOM     22  C   UNL     1       9.881   0.906  21.998  0.00  0.00    +0.021 A 
ENDBRANCH  16  18
ENDBRANCH  13  14
ENDBRANCH  12  13
ENDBRANCH  11  12
TORSDOF 4
ENDMDL
MODEL 5
REMARK VINA RESULT:      -6.2      2.592      4.340
REMARK  Name = 
REMARK  5 active torsions:
REMARK  status: ('A' for Active; 'I' for Inactive)
REMARK    1  A    between atoms: C_1  and  C_2
REMARK    2  A    between atoms: C_3  and  C_4
REMARK    3  A    between atoms: C_4  and  C_5
REMARK    4  A    between atoms: C_5  and  N_6
REMARK    5  A    between atoms: C_7  and  C_9
REMARK                            x       y       z     vdW  Elec       q    Type
REMARK                         _______ _______ _______ _____ _____    ______ ____
ROOT
ATOM      1  C   UNL     1       5.763  -0.701  24.667  0.00  0.00    +0.063 C 
ATOM      2  C   UNL     1       6.084  -2.005  24.030  0.00  0.00    +0.017 A 
ATOM      3  N   UNL     1       5.664  -2.286  22.755  0.00  0.00    -0.358 N 
ATOM      4  H   UNL     1       5.129  -1.661  22.168  0.00  0.00    +0.166 HD
ATOM      5  C   UNL     1       6.063  -3.547  22.379  0.00  0.00    +0.047 A 
ATOM      6  C   UNL     1       6.767  -4.089  23.453  0.00  0.00    +0.003 A 
ATOM      7  C   UNL     1       7.288  -5.394  23.316  0.00  0.00    +0.010 A 
ATOM      8  C   UNL     1       7.087  -6.098  22.121  0.00  0.00    +0.001 A 
ATOM      9  C   UNL     1       6.379  -5.524  21.068  0.00  0.00    +0.002 A 
ATOM     10  C   UNL     1       5.853  -4.235  21.178  0.00  0.00    +0.026 A 
ATOM     11  C   UNL     1       6.781  -3.109  24.500  0.00  0.00    -0.018 A 
ENDROOT
BRANCH  11  12
ATOM     12  C   UNL     1       7.410  -3.250  25.854  0.00  0.00    +0.056 C 
BRANCH  12  13
ATOM     13  C   UNL     1       8.904  -2.920  25.827  0.00  0.00    +0.109 C 
BRANCH  13  14
ATOM     14  N   UNL     1       9.181  -1.640  25.201  0.00  0.00    -0.311 N 
ATOM     15  H   UNL     1       8.932  -0.786  25.683  0.00  0.00    +0.149 HD
ATOM     16  C   UNL     1       9.793  -1.538  23.967  0.00  0.00    +0.251 C 
ATOM     17  O   UNL     1      10.155  -2.535  23.346  0.00  0.00    -0.270 OA
BRANCH  16  18
ATOM     18  C   UNL     1       9.973  -0.184  23.452  0.00  0.00    +0.074 A 
ATOM     19  S   UNL     1      10.371   1.144  24.462  0.00  0.00    -0.092 S 
ATOM     20  C   UNL     1      10.381   2.236  23.145  0.00  0.00    +0.046 A 
ATOM     21  C   UNL     1      10.087   1.611  21.955  0.00  0.00    +0.008 A 
ATOM     22  C   UNL     1       9.852   0.218  22.133  0.00  0.00    +0.021 A 
ENDBRANCH  16  18
ENDBRANCH  13  14
ENDBRANCH  12  13
ENDBRANCH  11  12
TORSDOF 4
ENDMDL
MODEL 6
REMARK VINA RESULT:      -6.2      1.755      2.445
REMARK  Name = 
REMARK  5 active torsions:
REMARK  status: ('A' for Active; 'I' for Inactive)
REMARK    1  A    between atoms: C_1  and  C_2
REMARK    2  A    between atoms: C_3  and  C_4
REMARK    3  A    between atoms: C_4  and  C_5
REMARK    4  A    between atoms: C_5  and  N_6
REMARK    5  A    between atoms: C_7  and  C_9
REMARK                            x       y       z     vdW  Elec       q    Type
REMARK                         _______ _______ _______ _____ _____    ______ ____
ROOT
ATOM      1  C   UNL     1       6.663   1.111  23.636  0.00  0.00    +0.063 C 
ATOM      2  C   UNL     1       6.988  -0.340  23.636  0.00  0.00    +0.017 A 
ATOM      3  N   UNL     1       6.317  -1.211  22.816  0.00  0.00    -0.358 N 
ATOM      4  H   UNL     1       5.581  -0.953  22.172  0.00  0.00    +0.166 HD
ATOM      5  C   UNL     1       6.775  -2.495  22.993  0.00  0.00    +0.047 A 
ATOM      6  C   UNL     1       7.778  -2.441  23.958  0.00  0.00    +0.003 A 
ATOM      7  C   UNL     1       8.416  -3.647  24.323  0.00  0.00    +0.010 A 
ATOM      8  C   UNL     1       8.029  -4.847  23.712  0.00  0.00    +0.001 A 
ATOM      9  C   UNL     1       7.022  -4.863  22.750  0.00  0.00    +0.002 A 
ATOM     10  C   UNL     1       6.375  -3.684  22.372  0.00  0.00    +0.026 A 
ATOM     11  C   UNL     1       7.914  -1.073  24.365  0.00  0.00    -0.018 A 
ENDROOT
BRANCH  11  12
ATOM     12  C   UNL     1       8.860  -0.531  25.395  0.00  0.00    +0.056 C 
BRANCH  12  13
ATOM     13  C   UNL     1      10.209  -0.145  24.785  0.00  0.00    +0.109 C 
BRANCH  13  14
ATOM     14  N   UNL     1      10.390   1.292  24.694  0.00  0.00    -0.311 N 
ATOM     15  H   UNL     1      10.564   1.825  25.535  0.00  0.00    +0.149 HD
ATOM     16  C   UNL     1      10.351   1.967  23.490  0.00  0.00    +0.251 C 
ATOM     17  O   UNL     1      10.183   1.374  22.427  0.00  0.00    -0.270 OA
BRANCH  16  18
ATOM     18  C   UNL     1      10.516   3.415  23.562  0.00  0.00    +0.074 A 
ATOM     19  S   UNL     1       9.220   4.475  23.936  0.00  0.00    -0.092 S 
ATOM     20  C   UNL     1      10.218   5.859  23.808  0.00  0.00    +0.046 A 
ATOM     21  C   UNL     1      11.515   5.530  23.487  0.00  0.00    +0.008 A 
ATOM     22  C   UNL     1      11.685   4.123  23.345  0.00  0.00    +0.021 A 
ENDBRANCH  16  18
ENDBRANCH  13  14
ENDBRANCH  12  13
ENDBRANCH  11  12
TORSDOF 4
ENDMDL
MODEL 7
REMARK VINA RESULT:      -6.2      2.817      7.442
REMARK  Name = 
REMARK  5 active torsions:
REMARK  status: ('A' for Active; 'I' for Inactive)
REMARK    1  A    between atoms: C_1  and  C_2
REMARK    2  A    between atoms: C_3  and  C_4
REMARK    3  A    between atoms: C_4  and  C_5
REMARK    4  A    between atoms: C_5  and  N_6
REMARK    5  A    between atoms: C_7  and  C_9
REMARK                            x       y       z     vdW  Elec       q    Type
REMARK                         _______ _______ _______ _____ _____    ______ ____
ROOT
ATOM      1  C   UNL     1       6.981   1.869  23.211  0.00  0.00    +0.063 C 
ATOM      2  C   UNL     1       8.195   2.714  23.352  0.00  0.00    +0.017 A 
ATOM      3  N   UNL     1       8.099   4.017  23.771  0.00  0.00    -0.358 N 
ATOM      4  H   UNL     1       7.238   4.489  24.010  0.00  0.00    +0.166 HD
ATOM      5  C   UNL     1       9.341   4.605  23.816  0.00  0.00    +0.047 A 
ATOM      6  C   UNL     1      10.264   3.641  23.415  0.00  0.00    +0.003 A 
ATOM      7  C   UNL     1      11.628   4.002  23.375  0.00  0.00    +0.010 A 
ATOM      8  C   UNL     1      12.012   5.301  23.735  0.00  0.00    +0.001 A 
ATOM      9  C   UNL     1      11.062   6.239  24.133  0.00  0.00    +0.002 A 
ATOM     10  C   UNL     1       9.705   5.907  24.180  0.00  0.00    +0.026 A 
ATOM     11  C   UNL     1       9.536   2.441  23.122  0.00  0.00    -0.018 A 
ENDROOT
BRANCH  11  12
ATOM     12  C   UNL     1      10.105   1.139  22.640  0.00  0.00    +0.056 C 
BRANCH  12  13
ATOM     13  C   UNL     1      10.649   0.293  23.792  0.00  0.00    +0.109 C 
BRANCH  13  14
ATOM     14  N   UNL     1       9.805  -0.849  24.093  0.00  0.00    -0.311 N 
ATOM     15  H   UNL     1       9.091  -0.765  24.805  0.00  0.00    +0.149 HD
ATOM     16  C   UNL     1       9.924  -2.053  23.428  0.00  0.00    +0.251 C 
ATOM     17  O   UNL     1      10.744  -2.209  22.526  0.00  0.00    -0.270 OA
BRANCH  16  18
ATOM     18  C   UNL     1       9.028  -3.118  23.865  0.00  0.00    +0.074 A 
ATOM     19  S   UNL     1       7.650  -3.596  22.962  0.00  0.00    -0.092 S 
ATOM     20  C   UNL     1       7.220  -4.789  24.109  0.00  0.00    +0.046 A 
ATOM     21  C   UNL     1       8.103  -4.830  25.165  0.00  0.00    +0.008 A 
ATOM     22  C   UNL     1       9.142  -3.868  25.023  0.00  0.00    +0.021 A 
ENDBRANCH  16  18
ENDBRANCH  13  14
ENDBRANCH  12  13
ENDBRANCH  11  12
TORSDOF 4
ENDMDL
MODEL 8
REMARK VINA RESULT:      -6.2      3.307      6.361
REMARK  Name = 
REMARK  5 active torsions:
REMARK  status: ('A' for Active; 'I' for Inactive)
REMARK    1  A    between atoms: C_1  and  C_2
REMARK    2  A    between atoms: C_3  and  C_4
REMARK    3  A    between atoms: C_4  and  C_5
REMARK    4  A    between atoms: C_5  and  N_6
REMARK    5  A    between atoms: C_7  and  C_9
REMARK                            x       y       z     vdW  Elec       q    Type
REMARK                         _______ _______ _______ _____ _____    ______ ____
ROOT
ATOM      1  C   UNL     1      10.573   0.483  25.020  0.00  0.00    +0.063 C 
ATOM      2  C   UNL     1       9.603   1.459  24.458  0.00  0.00    +0.017 A 
ATOM      3  N   UNL     1       8.759   2.163  25.279  0.00  0.00    -0.358 N 
ATOM      4  H   UNL     1       8.728   2.083  26.286  0.00  0.00    +0.166 HD
ATOM      5  C   UNL     1       7.946   2.993  24.544  0.00  0.00    +0.047 A 
ATOM      6  C   UNL     1       8.286   2.815  23.204  0.00  0.00    +0.003 A 
ATOM      7  C   UNL     1       7.585   3.564  22.234  0.00  0.00    +0.010 A 
ATOM      8  C   UNL     1       6.581   4.454  22.640  0.00  0.00    +0.001 A 
ATOM      9  C   UNL     1       6.269   4.607  23.988  0.00  0.00    +0.002 A 
ATOM     10  C   UNL     1       6.947   3.877  24.967  0.00  0.00    +0.026 A 
ATOM     11  C   UNL     1       9.339   1.842  23.151  0.00  0.00    -0.018 A 
ENDROOT
BRANCH  11  12
ATOM     12  C   UNL     1      10.018   1.319  21.919  0.00  0.00    +0.056 C 
BRANCH  12  13
ATOM     13  C   UNL     1       9.216   0.195  21.259  0.00  0.00    +0.109 C 
BRANCH  13  14
ATOM     14  N   UNL     1       9.280  -1.048  22.005  0.00  0.00    -0.311 N 
ATOM     15  H   UNL     1      10.122  -1.607  21.969  0.00  0.00    +0.149 HD
ATOM     16  C   UNL     1       8.233  -1.496  22.785  0.00  0.00    +0.251 C 
ATOM     17  O   UNL     1       7.197  -0.846  22.903  0.00  0.00    -0.270 OA
BRANCH  16  18
ATOM     18  C   UNL     1       8.431  -2.781  23.448  0.00  0.00    +0.074 A 
ATOM     19  S   UNL     1       7.457  -4.153  23.116  0.00  0.00    -0.092 S 
ATOM     20  C   UNL     1       8.310  -5.122  24.239  0.00  0.00    +0.046 A 
ATOM     21  C   UNL     1       9.320  -4.422  24.860  0.00  0.00    +0.008 A 
ATOM     22  C   UNL     1       9.388  -3.075  24.404  0.00  0.00    +0.021 A 
ENDBRANCH  16  18
ENDBRANCH  13  14
ENDBRANCH  12  13
ENDBRANCH  11  12
TORSDOF 4
ENDMDL
MODEL 9
REMARK VINA RESULT:      -6.1      3.281      5.072
REMARK  Name = 
REMARK  5 active torsions:
REMARK  status: ('A' for Active; 'I' for Inactive)
REMARK    1  A    between atoms: C_1  and  C_2
REMARK    2  A    between atoms: C_3  and  C_4
REMARK    3  A    between atoms: C_4  and  C_5
REMARK    4  A    between atoms: C_5  and  N_6
REMARK    5  A    between atoms: C_7  and  C_9
REMARK                            x       y       z     vdW  Elec       q    Type
REMARK                         _______ _______ _______ _____ _____    ______ ____
ROOT
ATOM      1  C   UNL     1       6.450  -5.560  27.893  0.00  0.00    +0.063 C 
ATOM      2  C   UNL     1       6.538  -5.429  26.415  0.00  0.00    +0.017 A 
ATOM      3  N   UNL     1       5.575  -5.973  25.603  0.00  0.00    -0.358 N 
ATOM      4  H   UNL     1       4.763  -6.482  25.925  0.00  0.00    +0.166 HD
ATOM      5  C   UNL     1       5.866  -5.739  24.281  0.00  0.00    +0.047 A 
ATOM      6  C   UNL     1       7.057  -5.016  24.247  0.00  0.00    +0.003 A 
ATOM      7  C   UNL     1       7.577  -4.648  22.986  0.00  0.00    +0.010 A 
ATOM      8  C   UNL     1       6.889  -5.014  21.821  0.00  0.00    +0.001 A 
ATOM      9  C   UNL     1       5.701  -5.736  21.893  0.00  0.00    +0.002 A 
ATOM     10  C   UNL     1       5.166  -6.113  23.127  0.00  0.00    +0.026 A 
ATOM     11  C   UNL     1       7.482  -4.819  25.602  0.00  0.00    -0.018 A 
ENDROOT
BRANCH  11  12
ATOM     12  C   UNL     1       8.719  -4.106  26.061  0.00  0.00    +0.056 C 
BRANCH  12  13
ATOM     13  C   UNL     1       8.452  -2.627  26.350  0.00  0.00    +0.109 C 
BRANCH  13  14
ATOM     14  N   UNL     1       8.762  -1.773  25.219  0.00  0.00    -0.311 N 
ATOM     15  H   UNL     1       9.729  -1.594  24.982  0.00  0.00    +0.149 HD
ATOM     16  C   UNL     1       7.781  -1.203  24.432  0.00  0.00    +0.251 C 
ATOM     17  O   UNL     1       6.588  -1.412  24.642  0.00  0.00    -0.270 OA
BRANCH  16  18
ATOM     18  C   UNL     1       8.247  -0.340  23.351  0.00  0.00    +0.074 A 
ATOM     19  S   UNL     1       7.307   0.953  22.729  0.00  0.00    -0.092 S 
ATOM     20  C   UNL     1       8.512   1.380  21.593  0.00  0.00    +0.046 A 
ATOM     21  C   UNL     1       9.614   0.559  21.678  0.00  0.00    +0.008 A 
ATOM     22  C   UNL     1       9.460  -0.431  22.690  0.00  0.00    +0.021 A 
ENDBRANCH  16  18
ENDBRANCH  13  14
ENDBRANCH  12  13
ENDBRANCH  11  12
TORSDOF 4
ENDMDL
