MODEL 1
REMARK VINA RESULT:      -7.1      0.000      0.000
REMARK  Name = 
REMARK  9 active torsions:
REMARK  status: ('A' for Active; 'I' for Inactive)
REMARK    1  A    between atoms: C_1  and  C_2
REMARK    2  A    between atoms: C_2  and  O_3
REMARK    3  A    between atoms: C_2  and  C_4
REMARK    4  A    between atoms: C_2  and  C_15
REMARK    5  A    between atoms: C_4  and  S_5
REMARK    6  A    between atoms: S_5  and  C_8
REMARK    7  A    between atoms: N_17  and  C_18
REMARK    8  A    between atoms: C_20  and  C_26
REMARK    9  A    between atoms: C_21  and  C_24
REMARK                            x       y       z     vdW  Elec       q    Type
REMARK                         _______ _______ _______ _____ _____    ______ ____
ROOT
ATOM      1  C   UNL     1       6.565  -3.639  22.415  0.00  0.00    +0.250 C 
ATOM      2  N   UNL     1       7.939  -3.505  22.590  0.00  0.00    -0.283 N 
ATOM      3  H   UNL     1       8.508  -4.343  22.563  0.00  0.00    +0.155 HD
ATOM      4  O   UNL     1       5.816  -2.684  22.193  0.00  0.00    -0.272 OA
ENDROOT
BRANCH   2   5
ATOM      5  C   UNL     1       8.604  -2.258  22.628  0.00  0.00    +0.034 A 
ATOM      6  C   UNL     1       8.908  -1.602  21.435  0.00  0.00    +0.024 A 
ATOM      7  C   UNL     1       9.438  -0.304  21.468  0.00  0.00    +0.021 A 
ATOM      8  C   UNL     1       9.701   0.337  22.690  0.00  0.00    +0.064 A 
ATOM      9  C   UNL     1       9.474  -0.345  23.893  0.00  0.00    +0.074 A 
ATOM     10  C   UNL     1       8.944  -1.646  23.839  0.00  0.00    +0.037 A 
BRANCH   9  11
ATOM     11  C   UNL     1       9.750   0.287  25.234  0.00  0.00    +0.419 C 
ATOM     12  F   UNL     1      11.062   0.606  25.395  0.00  0.00    -0.166 F 
ATOM     13  F   UNL     1       9.422  -0.530  26.271  0.00  0.00    -0.166 F 
ATOM     14  F   UNL     1       9.061   1.442  25.446  0.00  0.00    -0.166 F 
ENDBRANCH   9  11
BRANCH   8  15
ATOM     15  C   UNL     1      10.178   1.693  22.680  0.00  0.00    +0.100 C 
ATOM     16  N   UNL     1      10.560   2.787  22.656  0.00  0.00    -0.191 NA
ENDBRANCH   8  15
ENDBRANCH   2   5
BRANCH   1  18
ATOM     17  C   UNL     1       6.733  -5.843  21.290  0.00  0.00    +0.053 C 
ATOM     18  C   UNL     1       6.011  -5.090  22.419  0.00  0.00    +0.158 C 
BRANCH  18  19
ATOM     19  O   UNL     1       4.607  -5.013  22.153  0.00  0.00    -0.378 OA
ATOM     20  H   UNL     1       4.255  -5.924  22.083  0.00  0.00    +0.211 HD
ENDBRANCH  18  19
BRANCH  18  21
ATOM     21  C   UNL     1       6.239  -5.705  23.802  0.00  0.00    +0.215 C 
BRANCH  21  22
ATOM     22  S   UNL     1       4.712  -5.990  24.681  0.00  0.00    +0.000 S 
ATOM     23  O   UNL     1       4.190  -7.286  24.303  0.00  0.00    -0.169 OA
ATOM     24  O   UNL     1       3.897  -4.796  24.570  0.00  0.00    -0.169 OA
BRANCH  22  25
ATOM     25  C   UNL     1       5.251  -6.135  26.368  0.00  0.00    +0.088 A 
ATOM     26  C   UNL     1       4.407  -6.773  27.287  0.00  0.00    +0.030 A 
ATOM     27  C   UNL     1       4.826  -6.922  28.606  0.00  0.00    +0.040 A 
ATOM     28  C   UNL     1       6.066  -6.425  28.997  0.00  0.00    +0.124 A 
ATOM     29  F   UNL     1       6.472  -6.590  30.262  0.00  0.00    -0.205 F 
ATOM     30  C   UNL     1       6.889  -5.757  28.093  0.00  0.00    +0.040 A 
ATOM     31  C   UNL     1       6.478  -5.600  26.767  0.00  0.00    +0.030 A 
ENDBRANCH  22  25
ENDBRANCH  21  22
ENDBRANCH  18  21
ENDBRANCH   1  18
TORSDOF 8
ENDMDL
MODEL 2
REMARK VINA RESULT:      -7.0      3.105      4.116
REMARK  Name = 
REMARK  9 active torsions:
REMARK  status: ('A' for Active; 'I' for Inactive)
REMARK    1  A    between atoms: C_1  and  C_2
REMARK    2  A    between atoms: C_2  and  O_3
REMARK    3  A    between atoms: C_2  and  C_4
REMARK    4  A    between atoms: C_2  and  C_15
REMARK    5  A    between atoms: C_4  and  S_5
REMARK    6  A    between atoms: S_5  and  C_8
REMARK    7  A    between atoms: N_17  and  C_18
REMARK    8  A    between atoms: C_20  and  C_26
REMARK    9  A    between atoms: C_21  and  C_24
REMARK                            x       y       z     vdW  Elec       q    Type
REMARK                         _______ _______ _______ _____ _____    ______ ____
ROOT
ATOM      1  C   UNL     1       9.055  -3.345  24.657  0.00  0.00    +0.250 C 
ATOM      2  N   UNL     1       8.290  -2.334  25.231  0.00  0.00    -0.283 N 
ATOM      3  H   UNL     1       7.748  -2.555  26.058  0.00  0.00    +0.155 HD
ATOM      4  O   UNL     1       9.925  -3.136  23.808  0.00  0.00    -0.272 OA
ENDROOT
BRANCH   2   5
ATOM      5  C   UNL     1       8.364  -0.979  24.834  0.00  0.00    +0.034 A 
ATOM      6  C   UNL     1       8.174   0.029  25.779  0.00  0.00    +0.024 A 
ATOM      7  C   UNL     1       8.384   1.369  25.423  0.00  0.00    +0.021 A 
ATOM      8  C   UNL     1       8.752   1.718  24.113  0.00  0.00    +0.064 A 
ATOM      9  C   UNL     1       8.866   0.719  23.136  0.00  0.00    +0.074 A 
ATOM     10  C   UNL     1       8.650  -0.617  23.512  0.00  0.00    +0.037 A 
BRANCH   9  11
ATOM     11  C   UNL     1       9.244   1.036  21.711  0.00  0.00    +0.419 C 
ATOM     12  F   UNL     1       8.276   1.737  21.062  0.00  0.00    -0.166 F 
ATOM     13  F   UNL     1       9.470  -0.084  20.973  0.00  0.00    -0.166 F 
ATOM     14  F   UNL     1      10.377   1.782  21.599  0.00  0.00    -0.166 F 
ENDBRANCH   9  11
BRANCH   8  15
ATOM     15  C   UNL     1       9.026   3.095  23.808  0.00  0.00    +0.100 C 
ATOM     16  N   UNL     1       9.236   4.210  23.570  0.00  0.00    -0.191 NA
ENDBRANCH   8  15
ENDBRANCH   2   5
BRANCH   1  18
ATOM     17  C   UNL     1       9.465  -4.821  26.608  0.00  0.00    +0.053 C 
ATOM     18  C   UNL     1       8.824  -4.777  25.212  0.00  0.00    +0.158 C 
BRANCH  18  19
ATOM     19  O   UNL     1       9.482  -5.690  24.328  0.00  0.00    -0.378 OA
ATOM     20  H   UNL     1      10.049  -6.283  24.863  0.00  0.00    +0.211 HD
ENDBRANCH  18  19
BRANCH  18  21
ATOM     21  C   UNL     1       7.321  -5.069  25.225  0.00  0.00    +0.215 C 
BRANCH  21  22
ATOM     22  S   UNL     1       6.594  -4.972  23.598  0.00  0.00    +0.000 S 
ATOM     23  O   UNL     1       7.380  -5.777  22.686  0.00  0.00    -0.169 OA
ATOM     24  O   UNL     1       6.314  -3.579  23.309  0.00  0.00    -0.169 OA
BRANCH  22  25
ATOM     25  C   UNL     1       5.044  -5.815  23.808  0.00  0.00    +0.088 A 
ATOM     26  C   UNL     1       4.899  -6.685  24.897  0.00  0.00    +0.030 A 
ATOM     27  C   UNL     1       3.681  -7.331  25.094  0.00  0.00    +0.040 A 
ATOM     28  C   UNL     1       2.634  -7.115  24.203  0.00  0.00    +0.124 A 
ATOM     29  F   UNL     1       1.459  -7.723  24.411  0.00  0.00    -0.205 F 
ATOM     30  C   UNL     1       2.789  -6.279  23.100  0.00  0.00    +0.040 A 
ATOM     31  C   UNL     1       4.008  -5.627  22.891  0.00  0.00    +0.030 A 
ENDBRANCH  22  25
ENDBRANCH  21  22
ENDBRANCH  18  21
ENDBRANCH   1  18
TORSDOF 8
ENDMDL
MODEL 3
REMARK VINA RESULT:      -7.0      1.920      2.278
REMARK  Name = 
REMARK  9 active torsions:
REMARK  status: ('A' for Active; 'I' for Inactive)
REMARK    1  A    between atoms: C_1  and  C_2
REMARK    2  A    between atoms: C_2  and  O_3
REMARK    3  A    between atoms: C_2  and  C_4
REMARK    4  A    between atoms: C_2  and  C_15
REMARK    5  A    between atoms: C_4  and  S_5
REMARK    6  A    between atoms: S_5  and  C_8
REMARK    7  A    between atoms: N_17  and  C_18
REMARK    8  A    between atoms: C_20  and  C_26
REMARK    9  A    between atoms: C_21  and  C_24
REMARK                            x       y       z     vdW  Elec       q    Type
REMARK                         _______ _______ _______ _____ _____    ______ ____
ROOT
ATOM      1  C   UNL     1       5.942  -3.922  22.381  0.00  0.00    +0.250 C 
ATOM      2  N   UNL     1       6.752  -3.271  23.306  0.00  0.00    -0.283 N 
ATOM      3  H   UNL     1       7.377  -3.832  23.873  0.00  0.00    +0.155 HD
ATOM      4  O   UNL     1       5.328  -3.333  21.487  0.00  0.00    -0.272 OA
ENDROOT
BRANCH   2   5
ATOM      5  C   UNL     1       6.882  -1.865  23.377  0.00  0.00    +0.034 A 
ATOM      6  C   UNL     1       6.061  -1.139  24.240  0.00  0.00    +0.024 A 
ATOM      7  C   UNL     1       6.278   0.235  24.421  0.00  0.00    +0.021 A 
ATOM      8  C   UNL     1       7.293   0.902  23.716  0.00  0.00    +0.064 A 
ATOM      9  C   UNL     1       8.071   0.198  22.787  0.00  0.00    +0.074 A 
ATOM     10  C   UNL     1       7.836  -1.177  22.619  0.00  0.00    +0.037 A 
BRANCH   9  11
ATOM     11  C   UNL     1       9.165   0.865  21.992  0.00  0.00    +0.419 C 
ATOM     12  F   UNL     1      10.116   1.424  22.787  0.00  0.00    -0.166 F 
ATOM     13  F   UNL     1       8.694   1.862  21.194  0.00  0.00    -0.166 F 
ATOM     14  F   UNL     1       9.831   0.016  21.161  0.00  0.00    -0.166 F 
ENDBRANCH   9  11
BRANCH   8  15
ATOM     15  C   UNL     1       7.529   2.295  23.982  0.00  0.00    +0.100 C 
ATOM     16  N   UNL     1       7.716   3.416  24.212  0.00  0.00    -0.191 NA
ENDBRANCH   8  15
ENDBRANCH   2   5
BRANCH   1  18
ATOM     17  C   UNL     1       6.987  -5.990  21.499  0.00  0.00    +0.053 C 
ATOM     18  C   UNL     1       5.913  -5.473  22.467  0.00  0.00    +0.158 C 
BRANCH  18  19
ATOM     19  O   UNL     1       4.612  -5.900  22.050  0.00  0.00    -0.378 OA
ATOM     20  H   UNL     1       4.368  -5.403  21.242  0.00  0.00    +0.211 HD
ENDBRANCH  18  19
BRANCH  18  21
ATOM     21  C   UNL     1       6.150  -5.894  23.919  0.00  0.00    +0.215 C 
BRANCH  21  22
ATOM     22  S   UNL     1       4.629  -6.244  24.785  0.00  0.00    +0.000 S 
ATOM     23  O   UNL     1       4.215  -7.597  24.477  0.00  0.00    -0.169 OA
ATOM     24  O   UNL     1       3.727  -5.126  24.585  0.00  0.00    -0.169 OA
BRANCH  22  25
ATOM     25  C   UNL     1       5.136  -6.246  26.488  0.00  0.00    +0.088 A 
ATOM     26  C   UNL     1       4.300  -6.855  27.434  0.00  0.00    +0.030 A 
ATOM     27  C   UNL     1       4.697  -6.892  28.768  0.00  0.00    +0.040 A 
ATOM     28  C   UNL     1       5.906  -6.315  29.145  0.00  0.00    +0.124 A 
ATOM     29  F   UNL     1       6.290  -6.372  30.426  0.00  0.00    -0.205 F 
ATOM     30  C   UNL     1       6.719  -5.677  28.212  0.00  0.00    +0.040 A 
ATOM     31  C   UNL     1       6.331  -5.631  26.870  0.00  0.00    +0.030 A 
ENDBRANCH  22  25
ENDBRANCH  21  22
ENDBRANCH  18  21
ENDBRANCH   1  18
TORSDOF 8
ENDMDL
MODEL 4
REMARK VINA RESULT:      -6.9      3.215      4.064
REMARK  Name = 
REMARK  9 active torsions:
REMARK  status: ('A' for Active; 'I' for Inactive)
REMARK    1  A    between atoms: C_1  and  C_2
REMARK    2  A    between atoms: C_2  and  O_3
REMARK    3  A    between atoms: C_2  and  C_4
REMARK    4  A    between atoms: C_2  and  C_15
REMARK    5  A    between atoms: C_4  and  S_5
REMARK    6  A    between atoms: S_5  and  C_8
REMARK    7  A    between atoms: N_17  and  C_18
REMARK    8  A    between atoms: C_20  and  C_26
REMARK    9  A    between atoms: C_21  and  C_24
REMARK                            x       y       z     vdW  Elec       q    Type
REMARK                         _______ _______ _______ _____ _____    ______ ____
ROOT
ATOM      1  C   UNL     1       8.884  -3.445  24.332  0.00  0.00    +0.250 C 
ATOM      2  N   UNL     1       7.927  -2.455  24.540  0.00  0.00    -0.283 N 
ATOM      3  H   UNL     1       7.030  -2.731  24.921  0.00  0.00    +0.155 HD
ATOM      4  O   UNL     1      10.071  -3.200  24.103  0.00  0.00    -0.272 OA
ENDROOT
BRANCH   2   5
ATOM      5  C   UNL     1       8.195  -1.073  24.415  0.00  0.00    +0.034 A 
ATOM      6  C   UNL     1       8.256  -0.276  25.559  0.00  0.00    +0.024 A 
ATOM      7  C   UNL     1       8.659   1.064  25.456  0.00  0.00    +0.021 A 
ATOM      8  C   UNL     1       8.972   1.628  24.209  0.00  0.00    +0.064 A 
ATOM      9  C   UNL     1       8.836   0.858  23.045  0.00  0.00    +0.074 A 
ATOM     10  C   UNL     1       8.429  -0.481  23.169  0.00  0.00    +0.037 A 
BRANCH   9  11
ATOM     11  C   UNL     1       9.144   1.416  21.678  0.00  0.00    +0.419 C 
ATOM     12  F   UNL     1      10.401   1.927  21.598  0.00  0.00    -0.166 F 
ATOM     13  F   UNL     1       8.296   2.418  21.323  0.00  0.00    -0.166 F 
ATOM     14  F   UNL     1       9.057   0.493  20.680  0.00  0.00    -0.166 F 
ENDBRANCH   9  11
BRANCH   8  15
ATOM     15  C   UNL     1       9.448   2.983  24.155  0.00  0.00    +0.100 C 
ATOM     16  N   UNL     1       9.820   4.081  24.118  0.00  0.00    -0.191 NA
ENDBRANCH   8  15
ENDBRANCH   2   5
BRANCH   1  18
ATOM     17  C   UNL     1       9.226  -5.527  25.635  0.00  0.00    +0.053 C 
ATOM     18  C   UNL     1       8.398  -4.912  24.496  0.00  0.00    +0.158 C 
BRANCH  18  19
ATOM     19  O   UNL     1       8.661  -5.589  23.263  0.00  0.00    -0.378 OA
ATOM     20  H   UNL     1       8.716  -6.550  23.444  0.00  0.00    +0.211 HD
ENDBRANCH  18  19
BRANCH  18  21
ATOM     21  C   UNL     1       6.893  -4.909  24.771  0.00  0.00    +0.215 C 
BRANCH  21  22
ATOM     22  S   UNL     1       5.926  -5.016  23.274  0.00  0.00    +0.000 S 
ATOM     23  O   UNL     1       5.948  -6.384  22.800  0.00  0.00    -0.169 OA
ATOM     24  O   UNL     1       6.314  -3.922  22.406  0.00  0.00    -0.169 OA
BRANCH  22  25
ATOM     25  C   UNL     1       4.274  -4.706  23.849  0.00  0.00    +0.088 A 
ATOM     26  C   UNL     1       3.224  -5.456  23.303  0.00  0.00    +0.030 A 
ATOM     27  C   UNL     1       1.927  -5.248  23.764  0.00  0.00    +0.040 A 
ATOM     28  C   UNL     1       1.690  -4.291  24.746  0.00  0.00    +0.124 A 
ATOM     29  F   UNL     1       0.443  -4.110  25.199  0.00  0.00    -0.205 F 
ATOM     30  C   UNL     1       2.727  -3.519  25.262  0.00  0.00    +0.040 A 
ATOM     31  C   UNL     1       4.033  -3.718  24.806  0.00  0.00    +0.030 A 
ENDBRANCH  22  25
ENDBRANCH  21  22
ENDBRANCH  18  21
ENDBRANCH   1  18
TORSDOF 8
ENDMDL
MODEL 5
REMARK VINA RESULT:      -6.8      4.463      9.217
REMARK  Name = 
REMARK  9 active torsions:
REMARK  status: ('A' for Active; 'I' for Inactive)
REMARK    1  A    between atoms: C_1  and  C_2
REMARK    2  A    between atoms: C_2  and  O_3
REMARK    3  A    between atoms: C_2  and  C_4
REMARK    4  A    between atoms: C_2  and  C_15
REMARK    5  A    between atoms: C_4  and  S_5
REMARK    6  A    between atoms: S_5  and  C_8
REMARK    7  A    between atoms: N_17  and  C_18
REMARK    8  A    between atoms: C_20  and  C_26
REMARK    9  A    between atoms: C_21  and  C_24
REMARK                            x       y       z     vdW  Elec       q    Type
REMARK                         _______ _______ _______ _____ _____    ______ ____
ROOT
ATOM      1  C   UNL     1       8.150  -0.853  23.972  0.00  0.00    +0.250 C 
ATOM      2  N   UNL     1       8.615  -2.096  24.390  0.00  0.00    -0.283 N 
ATOM      3  H   UNL     1       9.536  -2.145  24.811  0.00  0.00    +0.155 HD
ATOM      4  O   UNL     1       6.973  -0.637  23.671  0.00  0.00    -0.272 OA
ENDROOT
BRANCH   2   5
ATOM      5  C   UNL     1       7.813  -3.259  24.422  0.00  0.00    +0.034 A 
ATOM      6  C   UNL     1       7.113  -3.583  25.585  0.00  0.00    +0.024 A 
ATOM      7  C   UNL     1       6.207  -4.654  25.580  0.00  0.00    +0.021 A 
ATOM      8  C   UNL     1       6.017  -5.431  24.425  0.00  0.00    +0.064 A 
ATOM      9  C   UNL     1       6.775  -5.164  23.277  0.00  0.00    +0.074 A 
ATOM     10  C   UNL     1       7.678  -4.088  23.303  0.00  0.00    +0.037 A 
BRANCH   9  11
ATOM     11  C   UNL     1       6.624  -5.973  22.014  0.00  0.00    +0.419 C 
ATOM     12  F   UNL     1       7.519  -5.612  21.056  0.00  0.00    -0.166 F 
ATOM     13  F   UNL     1       5.389  -5.843  21.457  0.00  0.00    -0.166 F 
ATOM     14  F   UNL     1       6.802  -7.311  22.198  0.00  0.00    -0.166 F 
ENDBRANCH   9  11
BRANCH   8  15
ATOM     15  C   UNL     1       5.028  -6.474  24.440  0.00  0.00    +0.100 C 
ATOM     16  N   UNL     1       4.224  -7.309  24.464  0.00  0.00    -0.191 NA
ENDBRANCH   8  15
ENDBRANCH   2   5
BRANCH   1  18
ATOM     17  C   UNL     1      10.556  -0.319  23.691  0.00  0.00    +0.053 C 
ATOM     18  C   UNL     1       9.184   0.307  23.988  0.00  0.00    +0.158 C 
BRANCH  18  19
ATOM     19  O   UNL     1       9.166   0.877  25.300  0.00  0.00    -0.378 OA
ATOM     20  H   UNL     1       9.301   1.844  25.218  0.00  0.00    +0.211 HD
ENDBRANCH  18  19
BRANCH  18  21
ATOM     21  C   UNL     1       8.763   1.362  22.962  0.00  0.00    +0.215 C 
BRANCH  21  22
ATOM     22  S   UNL     1       8.101   2.831  23.730  0.00  0.00    +0.000 S 
ATOM     23  O   UNL     1       7.789   2.537  25.112  0.00  0.00    -0.169 OA
ATOM     24  O   UNL     1       7.100   3.393  22.844  0.00  0.00    -0.169 OA
BRANCH  22  25
ATOM     25  C   UNL     1       9.498   3.928  23.750  0.00  0.00    +0.088 A 
ATOM     26  C   UNL     1      10.746   3.430  23.349  0.00  0.00    +0.030 A 
ATOM     27  C   UNL     1      11.845   4.284  23.330  0.00  0.00    +0.040 A 
ATOM     28  C   UNL     1      11.695   5.611  23.721  0.00  0.00    +0.124 A 
ATOM     29  F   UNL     1      12.752   6.431  23.680  0.00  0.00    -0.205 F 
ATOM     30  C   UNL     1      10.464   6.097  24.154  0.00  0.00    +0.040 A 
ATOM     31  C   UNL     1       9.354   5.249  24.180  0.00  0.00    +0.030 A 
ENDBRANCH  22  25
ENDBRANCH  21  22
ENDBRANCH  18  21
ENDBRANCH   1  18
TORSDOF 8
ENDMDL
MODEL 6
REMARK VINA RESULT:      -6.8      3.878      8.951
REMARK  Name = 
REMARK  9 active torsions:
REMARK  status: ('A' for Active; 'I' for Inactive)
REMARK    1  A    between atoms: C_1  and  C_2
REMARK    2  A    between atoms: C_2  and  O_3
REMARK    3  A    between atoms: C_2  and  C_4
REMARK    4  A    between atoms: C_2  and  C_15
REMARK    5  A    between atoms: C_4  and  S_5
REMARK    6  A    between atoms: S_5  and  C_8
REMARK    7  A    between atoms: N_17  and  C_18
REMARK    8  A    between atoms: C_20  and  C_26
REMARK    9  A    between atoms: C_21  and  C_24
REMARK                            x       y       z     vdW  Elec       q    Type
REMARK                         _______ _______ _______ _____ _____    ______ ____
ROOT
ATOM      1  C   UNL     1       7.940  -1.567  23.338  0.00  0.00    +0.250 C 
ATOM      2  N   UNL     1       8.153  -2.925  23.556  0.00  0.00    -0.283 N 
ATOM      3  H   UNL     1       9.105  -3.244  23.689  0.00  0.00    +0.155 HD
ATOM      4  O   UNL     1       6.828  -1.037  23.402  0.00  0.00    -0.272 OA
ENDROOT
BRANCH   2   5
ATOM      5  C   UNL     1       7.109  -3.852  23.778  0.00  0.00    +0.034 A 
ATOM      6  C   UNL     1       6.558  -4.542  22.698  0.00  0.00    +0.024 A 
ATOM      7  C   UNL     1       5.624  -5.563  22.924  0.00  0.00    +0.021 A 
ATOM      8  C   UNL     1       5.205  -5.881  24.227  0.00  0.00    +0.064 A 
ATOM      9  C   UNL     1       5.692  -5.139  25.312  0.00  0.00    +0.074 A 
ATOM     10  C   UNL     1       6.627  -4.119  25.064  0.00  0.00    +0.037 A 
BRANCH   9  11
ATOM     11  C   UNL     1       5.268  -5.425  26.730  0.00  0.00    +0.419 C 
ATOM     12  F   UNL     1       5.899  -4.626  27.631  0.00  0.00    -0.166 F 
ATOM     13  F   UNL     1       5.529  -6.708  27.102  0.00  0.00    -0.166 F 
ATOM     14  F   UNL     1       3.935  -5.246  26.948  0.00  0.00    -0.166 F 
ENDBRANCH   9  11
BRANCH   8  15
ATOM     15  C   UNL     1       4.300  -6.980  24.421  0.00  0.00    +0.100 C 
ATOM     16  N   UNL     1       3.581  -7.876  24.574  0.00  0.00    -0.191 NA
ENDBRANCH   8  15
ENDBRANCH   2   5
BRANCH   1  18
ATOM     17  C   UNL     1       9.968  -1.352  21.926  0.00  0.00    +0.053 C 
ATOM     18  C   UNL     1       9.210  -0.705  23.095  0.00  0.00    +0.158 C 
BRANCH  18  19
ATOM     19  O   UNL     1       9.996  -0.754  24.290  0.00  0.00    -0.378 OA
ATOM     20  H   UNL     1      10.206   0.163  24.560  0.00  0.00    +0.211 HD
ENDBRANCH  18  19
BRANCH  18  21
ATOM     21  C   UNL     1       8.785   0.739  22.819  0.00  0.00    +0.215 C 
BRANCH  21  22
ATOM     22  S   UNL     1       9.254   1.851  24.134  0.00  0.00    +0.000 S 
ATOM     23  O   UNL     1      10.699   1.928  24.189  0.00  0.00    -0.169 OA
ATOM     24  O   UNL     1       8.482   1.509  25.313  0.00  0.00    -0.169 OA
BRANCH  22  25
ATOM     25  C   UNL     1       8.686   3.426  23.539  0.00  0.00    +0.088 A 
ATOM     26  C   UNL     1       9.365   4.581  23.951  0.00  0.00    +0.030 A 
ATOM     27  C   UNL     1       8.952   5.821  23.471  0.00  0.00    +0.040 A 
ATOM     28  C   UNL     1       7.867   5.898  22.603  0.00  0.00    +0.124 A 
ATOM     29  F   UNL     1       7.488   7.091  22.129  0.00  0.00    -0.205 F 
ATOM     30  C   UNL     1       7.169   4.754  22.222  0.00  0.00    +0.040 A 
ATOM     31  C   UNL     1       7.573   3.504  22.700  0.00  0.00    +0.030 A 
ENDBRANCH  22  25
ENDBRANCH  21  22
ENDBRANCH  18  21
ENDBRANCH   1  18
TORSDOF 8
ENDMDL
MODEL 7
REMARK VINA RESULT:      -6.8      5.114      9.176
REMARK  Name = 
REMARK  9 active torsions:
REMARK  status: ('A' for Active; 'I' for Inactive)
REMARK    1  A    between atoms: C_1  and  C_2
REMARK    2  A    between atoms: C_2  and  O_3
REMARK    3  A    between atoms: C_2  and  C_4
REMARK    4  A    between atoms: C_2  and  C_15
REMARK    5  A    between atoms: C_4  and  S_5
REMARK    6  A    between atoms: S_5  and  C_8
REMARK    7  A    between atoms: N_17  and  C_18
REMARK    8  A    between atoms: C_20  and  C_26
REMARK    9  A    between atoms: C_21  and  C_24
REMARK                            x       y       z     vdW  Elec       q    Type
REMARK                         _______ _______ _______ _____ _____    ______ ____
ROOT
ATOM      1  C   UNL     1       6.633   2.125  26.048  0.00  0.00    +0.250 C 
ATOM      2  N   UNL     1       7.963   1.716  26.048  0.00  0.00    -0.283 N 
ATOM      3  H   UNL     1       8.660   2.356  26.410  0.00  0.00    +0.155 HD
ATOM      4  O   UNL     1       5.688   1.355  25.859  0.00  0.00    -0.272 OA
ENDROOT
BRANCH   2   5
ATOM      5  C   UNL     1       8.374   0.399  25.737  0.00  0.00    +0.034 A 
ATOM      6  C   UNL     1       8.225  -0.613  26.686  0.00  0.00    +0.024 A 
ATOM      7  C   UNL     1       8.499  -1.943  26.337  0.00  0.00    +0.021 A 
ATOM      8  C   UNL     1       8.955  -2.271  25.050  0.00  0.00    +0.064 A 
ATOM      9  C   UNL     1       9.185  -1.253  24.115  0.00  0.00    +0.074 A 
ATOM     10  C   UNL     1       8.907   0.074  24.485  0.00  0.00    +0.037 A 
BRANCH   9  11
ATOM     11  C   UNL     1       9.689  -1.544  22.724  0.00  0.00    +0.419 C 
ATOM     12  F   UNL     1      10.876  -2.207  22.731  0.00  0.00    -0.166 F 
ATOM     13  F   UNL     1       9.884  -0.412  21.994  0.00  0.00    -0.166 F 
ATOM     14  F   UNL     1       8.842  -2.313  21.986  0.00  0.00    -0.166 F 
ENDBRANCH   9  11
BRANCH   8  15
ATOM     15  C   UNL     1       9.156  -3.654  24.711  0.00  0.00    +0.100 C 
ATOM     16  N   UNL     1       9.334  -4.767  24.440  0.00  0.00    -0.191 NA
ENDBRANCH   8  15
ENDBRANCH   2   5
BRANCH   1  18
ATOM     17  C   UNL     1       5.995   3.664  27.885  0.00  0.00    +0.053 C 
ATOM     18  C   UNL     1       6.376   3.617  26.398  0.00  0.00    +0.158 C 
BRANCH  18  19
ATOM     19  O   UNL     1       5.285   4.064  25.586  0.00  0.00    -0.378 OA
ATOM     20  H   UNL     1       4.652   3.324  25.484  0.00  0.00    +0.211 HD
ENDBRANCH  18  19
BRANCH  18  21
ATOM     21  C   UNL     1       7.630   4.428  26.065  0.00  0.00    +0.215 C 
BRANCH  21  22
ATOM     22  S   UNL     1       7.717   4.871  24.338  0.00  0.00    +0.000 S 
ATOM     23  O   UNL     1       7.285   6.245  24.185  0.00  0.00    -0.169 OA
ATOM     24  O   UNL     1       7.105   3.808  23.566  0.00  0.00    -0.169 OA
BRANCH  22  25
ATOM     25  C   UNL     1       9.464   4.852  24.015  0.00  0.00    +0.088 A 
ATOM     26  C   UNL     1      10.060   3.644  23.627  0.00  0.00    +0.030 A 
ATOM     27  C   UNL     1      11.422   3.618  23.340  0.00  0.00    +0.040 A 
ATOM     28  C   UNL     1      12.174   4.783  23.457  0.00  0.00    +0.124 A 
ATOM     29  F   UNL     1      13.479   4.755  23.160  0.00  0.00    -0.205 F 
ATOM     30  C   UNL     1      11.591   5.976  23.878  0.00  0.00    +0.040 A 
ATOM     31  C   UNL     1      10.224   6.014  24.170  0.00  0.00    +0.030 A 
ENDBRANCH  22  25
ENDBRANCH  21  22
ENDBRANCH  18  21
ENDBRANCH   1  18
TORSDOF 8
ENDMDL
MODEL 8
REMARK VINA RESULT:      -6.7      4.176      5.681
REMARK  Name = 
REMARK  9 active torsions:
REMARK  status: ('A' for Active; 'I' for Inactive)
REMARK    1  A    between atoms: C_1  and  C_2
REMARK    2  A    between atoms: C_2  and  O_3
REMARK    3  A    between atoms: C_2  and  C_4
REMARK    4  A    between atoms: C_2  and  C_15
REMARK    5  A    between atoms: C_4  and  S_5
REMARK    6  A    between atoms: S_5  and  C_8
REMARK    7  A    between atoms: N_17  and  C_18
REMARK    8  A    between atoms: C_20  and  C_26
REMARK    9  A    between atoms: C_21  and  C_24
REMARK                            x       y       z     vdW  Elec       q    Type
REMARK                         _______ _______ _______ _____ _____    ______ ____
ROOT
ATOM      1  C   UNL     1       8.124   0.468  25.115  0.00  0.00    +0.250 C 
ATOM      2  N   UNL     1       8.653   0.969  23.929  0.00  0.00    -0.283 N 
ATOM      3  H   UNL     1       9.199   0.344  23.348  0.00  0.00    +0.155 HD
ATOM      4  O   UNL     1       7.259   1.055  25.771  0.00  0.00    -0.272 OA
ENDROOT
BRANCH   2   5
ATOM      5  C   UNL     1       8.326   2.240  23.404  0.00  0.00    +0.034 A 
ATOM      6  C   UNL     1       7.336   2.351  22.428  0.00  0.00    +0.024 A 
ATOM      7  C   UNL     1       6.909   3.619  22.007  0.00  0.00    +0.021 A 
ATOM      8  C   UNL     1       7.490   4.785  22.530  0.00  0.00    +0.064 A 
ATOM      9  C   UNL     1       8.541   4.683  23.451  0.00  0.00    +0.074 A 
ATOM     10  C   UNL     1       8.956   3.404  23.860  0.00  0.00    +0.037 A 
BRANCH   9  11
ATOM     11  C   UNL     1       9.213   5.901  24.035  0.00  0.00    +0.419 C 
ATOM     12  F   UNL     1       8.358   6.662  24.770  0.00  0.00    -0.166 F 
ATOM     13  F   UNL     1       9.732   6.717  23.079  0.00  0.00    -0.166 F 
ATOM     14  F   UNL     1      10.251   5.606  24.867  0.00  0.00    -0.166 F 
ENDBRANCH   9  11
BRANCH   8  15
ATOM     15  C   UNL     1       6.976   6.065  22.124  0.00  0.00    +0.100 C 
ATOM     16  N   UNL     1       6.563   7.092  21.781  0.00  0.00    -0.191 NA
ENDBRANCH   8  15
ENDBRANCH   2   5
BRANCH   1  18
ATOM     17  C   UNL     1       8.830  -0.895  27.062  0.00  0.00    +0.053 C 
ATOM     18  C   UNL     1       8.615  -0.943  25.542  0.00  0.00    +0.158 C 
BRANCH  18  19
ATOM     19  O   UNL     1       9.853  -1.187  24.867  0.00  0.00    -0.378 OA
ATOM     20  H   UNL     1      10.579  -1.125  25.521  0.00  0.00    +0.211 HD
ENDBRANCH  18  19
BRANCH  18  21
ATOM     21  C   UNL     1       7.579  -1.982  25.107  0.00  0.00    +0.215 C 
BRANCH  21  22
ATOM     22  S   UNL     1       8.049  -2.826  23.606  0.00  0.00    +0.000 S 
ATOM     23  O   UNL     1       9.165  -3.702  23.891  0.00  0.00    -0.169 OA
ATOM     24  O   UNL     1       8.125  -1.845  22.540  0.00  0.00    -0.169 OA
BRANCH  22  25
ATOM     25  C   UNL     1       6.650  -3.876  23.290  0.00  0.00    +0.088 A 
ATOM     26  C   UNL     1       6.878  -5.146  22.743  0.00  0.00    +0.030 A 
ATOM     27  C   UNL     1       5.796  -5.993  22.518  0.00  0.00    +0.040 A 
ATOM     28  C   UNL     1       4.508  -5.564  22.824  0.00  0.00    +0.124 A 
ATOM     29  F   UNL     1       3.475  -6.392  22.624  0.00  0.00    -0.205 F 
ATOM     30  C   UNL     1       4.278  -4.289  23.333  0.00  0.00    +0.040 A 
ATOM     31  C   UNL     1       5.355  -3.428  23.561  0.00  0.00    +0.030 A 
ENDBRANCH  22  25
ENDBRANCH  21  22
ENDBRANCH  18  21
ENDBRANCH   1  18
TORSDOF 8
ENDMDL
MODEL 9
REMARK VINA RESULT:      -6.7      4.472      9.107
REMARK  Name = 
REMARK  9 active torsions:
REMARK  status: ('A' for Active; 'I' for Inactive)
REMARK    1  A    between atoms: C_1  and  C_2
REMARK    2  A    between atoms: C_2  and  O_3
REMARK    3  A    between atoms: C_2  and  C_4
REMARK    4  A    between atoms: C_2  and  C_15
REMARK    5  A    between atoms: C_4  and  S_5
REMARK    6  A    between atoms: S_5  and  C_8
REMARK    7  A    between atoms: N_17  and  C_18
REMARK    8  A    between atoms: C_20  and  C_26
REMARK    9  A    between atoms: C_21  and  C_24
REMARK                            x       y       z     vdW  Elec       q    Type
REMARK                         _______ _______ _______ _____ _____    ______ ____
ROOT
ATOM      1  C   UNL     1       8.530  -1.401  23.636  0.00  0.00    +0.250 C 
ATOM      2  N   UNL     1       8.981  -2.697  23.870  0.00  0.00    -0.283 N 
ATOM      3  H   UNL     1       9.955  -2.905  23.685  0.00  0.00    +0.155 HD
ATOM      4  O   UNL     1       7.446  -0.978  24.044  0.00  0.00    -0.272 OA
ENDROOT
BRANCH   2   5
ATOM      5  C   UNL     1       8.205  -3.689  24.514  0.00  0.00    +0.034 A 
ATOM      6  C   UNL     1       8.441  -3.985  25.857  0.00  0.00    +0.024 A 
ATOM      7  C   UNL     1       7.585  -4.863  26.539  0.00  0.00    +0.021 A 
ATOM      8  C   UNL     1       6.510  -5.479  25.878  0.00  0.00    +0.064 A 
ATOM      9  C   UNL     1       6.314  -5.250  24.509  0.00  0.00    +0.074 A 
ATOM     10  C   UNL     1       7.182  -4.368  23.844  0.00  0.00    +0.037 A 
BRANCH   9  11
ATOM     11  C   UNL     1       5.185  -5.895  23.745  0.00  0.00    +0.419 C 
ATOM     12  F   UNL     1       5.390  -5.872  22.401  0.00  0.00    -0.166 F 
ATOM     13  F   UNL     1       3.991  -5.280  23.965  0.00  0.00    -0.166 F 
ATOM     14  F   UNL     1       4.986  -7.204  24.065  0.00  0.00    -0.166 F 
ENDBRANCH   9  11
BRANCH   8  15
ATOM     15  C   UNL     1       5.616  -6.316  26.630  0.00  0.00    +0.100 C 
ATOM     16  N   UNL     1       4.904  -6.990  27.249  0.00  0.00    -0.191 NA
ENDBRANCH   8  15
ENDBRANCH   2   5
BRANCH   1  18
ATOM     17  C   UNL     1       9.862  -1.130  21.561  0.00  0.00    +0.053 C 
ATOM     18  C   UNL     1       9.517  -0.456  22.898  0.00  0.00    +0.158 C 
BRANCH  18  19
ATOM     19  O   UNL     1      10.686  -0.335  23.715  0.00  0.00    -0.378 OA
ATOM     20  H   UNL     1      10.434  -0.517  24.644  0.00  0.00    +0.211 HD
ENDBRANCH  18  19
BRANCH  18  21
ATOM     21  C   UNL     1       8.861   0.918  22.734  0.00  0.00    +0.215 C 
BRANCH  21  22
ATOM     22  S   UNL     1       9.464   2.106  23.922  0.00  0.00    +0.000 S 
ATOM     23  O   UNL     1      10.896   2.243  23.762  0.00  0.00    -0.169 OA
ATOM     24  O   UNL     1       8.886   1.789  25.213  0.00  0.00    -0.169 OA
BRANCH  22  25
ATOM     25  C   UNL     1       8.744   3.629  23.355  0.00  0.00    +0.088 A 
ATOM     26  C   UNL     1       7.617   3.567  22.524  0.00  0.00    +0.030 A 
ATOM     27  C   UNL     1       7.023   4.750  22.095  0.00  0.00    +0.040 A 
ATOM     28  C   UNL     1       7.562   5.973  22.482  0.00  0.00    +0.124 A 
ATOM     29  F   UNL     1       6.973   7.107  22.083  0.00  0.00    -0.205 F 
ATOM     30  C   UNL     1       8.703   6.036  23.277  0.00  0.00    +0.040 A 
ATOM     31  C   UNL     1       9.310   4.854  23.713  0.00  0.00    +0.030 A 
ENDBRANCH  22  25
ENDBRANCH  21  22
ENDBRANCH  18  21
ENDBRANCH   1  18
TORSDOF 8
ENDMDL
