MODEL 1
REMARK VINA RESULT:      -7.5      0.000      0.000
REMARK  Name = 
REMARK  1 active torsions:
REMARK  status: ('A' for Active; 'I' for Inactive)
REMARK    1  A    between atoms: C_2  and  C_6
REMARK                            x       y       z     vdW  Elec       q    Type
REMARK                         _______ _______ _______ _____ _____    ______ ____
ROOT
ATOM      1  C   UNL     1       7.417  -5.007  25.394  0.00  0.00    +0.063 A 
ATOM      2  C   UNL     1       6.990  -5.201  24.050  0.00  0.00    +0.018 A 
ATOM      3  C   UNL     1       7.409  -4.360  23.009  0.00  0.00    +0.028 A 
ATOM      4  C   UNL     1       8.247  -3.326  23.340  0.00  0.00    +0.064 A 
ATOM      5  N   UNL     1       8.591  -2.186  22.593  0.00  0.00    -0.339 N 
ATOM      6  H   UNL     1       8.816  -2.236  21.612  0.00  0.00    +0.167 HD
ATOM      7  C   UNL     1       9.309  -1.333  23.445  0.00  0.00    +0.120 A 
ATOM      8  C   UNL     1       9.779  -0.107  23.123  0.00  0.00    +0.062 C 
ATOM      9  C   UNL     1      10.450   0.712  24.198  0.00  0.00    +0.189 C 
ATOM     10  O   UNL     1      10.783   0.266  25.293  0.00  0.00    -0.287 OA
ATOM     11  C   UNL     1      10.678   2.147  23.880  0.00  0.00    +0.051 C 
ATOM     12  C   UNL     1      10.362   2.641  22.676  0.00  0.00    +0.004 C 
ATOM     13  C   UNL     1       9.820   1.816  21.624  0.00  0.00    +0.001 C 
ATOM     14  C   UNL     1       9.550   0.517  21.827  0.00  0.00    +0.015 C 
ATOM     15  N   UNL     1       9.375  -1.919  24.709  0.00  0.00    -0.339 N 
ATOM     16  H   UNL     1       9.964  -1.524  25.431  0.00  0.00    +0.167 HD
ATOM     17  C   UNL     1       8.709  -3.138  24.663  0.00  0.00    +0.065 A 
ATOM     18  C   UNL     1       8.324  -3.969  25.688  0.00  0.00    +0.043 A 
ENDROOT
BRANCH   1  22
ATOM     19  N   UNL     1       7.534  -6.035  27.586  0.00  0.00    -0.250 N 
ATOM     20  H   UNL     1       8.437  -5.592  27.720  0.00  0.00    +0.288 HD
ATOM     21  H   UNL     1       7.195  -6.623  28.334  0.00  0.00    +0.288 HD
ATOM     22  C   UNL     1       6.846  -5.826  26.484  0.00  0.00    +0.266 C 
ATOM     23  N   UNL     1       5.657  -6.372  26.335  0.00  0.00    -0.288 N 
ATOM     24  H   UNL     1       5.223  -6.943  27.047  0.00  0.00    +0.301 HD
ATOM     25  H   UNL     1       5.140  -6.252  25.468  0.00  0.00    +0.301 HD
ENDBRANCH   1  22
TORSDOF 1
ENDMDL
MODEL 2
REMARK VINA RESULT:      -7.2      1.028      1.202
REMARK  Name = 
REMARK  1 active torsions:
REMARK  status: ('A' for Active; 'I' for Inactive)
REMARK    1  A    between atoms: C_2  and  C_6
REMARK                            x       y       z     vdW  Elec       q    Type
REMARK                         _______ _______ _______ _____ _____    ______ ____
ROOT
ATOM      1  C   UNL     1       6.246  -5.393  24.486  0.00  0.00    +0.063 A 
ATOM      2  C   UNL     1       6.136  -5.487  23.069  0.00  0.00    +0.018 A 
ATOM      3  C   UNL     1       6.838  -4.630  22.211  0.00  0.00    +0.028 A 
ATOM      4  C   UNL     1       7.637  -3.679  22.793  0.00  0.00    +0.064 A 
ATOM      5  N   UNL     1       8.216  -2.533  22.223  0.00  0.00    -0.339 N 
ATOM      6  H   UNL     1       8.661  -2.550  21.319  0.00  0.00    +0.167 HD
ATOM      7  C   UNL     1       8.765  -1.780  23.271  0.00  0.00    +0.120 A 
ATOM      8  C   UNL     1       9.372  -0.578  23.148  0.00  0.00    +0.062 C 
ATOM      9  C   UNL     1       9.821   0.134  24.401  0.00  0.00    +0.189 C 
ATOM     10  O   UNL     1       9.860  -0.390  25.511  0.00  0.00    -0.287 OA
ATOM     11  C   UNL     1      10.205   1.562  24.239  0.00  0.00    +0.051 C 
ATOM     12  C   UNL     1      10.212   2.137  23.029  0.00  0.00    +0.004 C 
ATOM     13  C   UNL     1       9.882   1.408  21.829  0.00  0.00    +0.001 C 
ATOM     14  C   UNL     1       9.493   0.125  21.878  0.00  0.00    +0.015 C 
ATOM     15  N   UNL     1       8.497  -2.431  24.475  0.00  0.00    -0.339 N 
ATOM     16  H   UNL     1       8.923  -2.118  25.338  0.00  0.00    +0.167 HD
ATOM     17  C   UNL     1       7.786  -3.593  24.196  0.00  0.00    +0.065 A 
ATOM     18  C   UNL     1       7.120  -4.443  25.048  0.00  0.00    +0.043 A 
ENDROOT
BRANCH   1  22
ATOM     19  N   UNL     1       5.688  -6.378  26.629  0.00  0.00    -0.250 N 
ATOM     20  H   UNL     1       6.481  -5.891  27.032  0.00  0.00    +0.288 HD
ATOM     21  H   UNL     1       5.148  -6.969  27.245  0.00  0.00    +0.288 HD
ATOM     22  C   UNL     1       5.385  -6.220  25.357  0.00  0.00    +0.266 C 
ATOM     23  N   UNL     1       4.331  -6.824  24.850  0.00  0.00    -0.288 N 
ATOM     24  H   UNL     1       3.713  -7.403  25.402  0.00  0.00    +0.301 HD
ATOM     25  H   UNL     1       4.119  -6.743  23.860  0.00  0.00    +0.301 HD
ENDBRANCH   1  22
TORSDOF 1
ENDMDL
MODEL 3
REMARK VINA RESULT:      -7.2      2.581      7.071
REMARK  Name = 
REMARK  1 active torsions:
REMARK  status: ('A' for Active; 'I' for Inactive)
REMARK    1  A    between atoms: C_2  and  C_6
REMARK                            x       y       z     vdW  Elec       q    Type
REMARK                         _______ _______ _______ _____ _____    ______ ____
ROOT
ATOM      1  C   UNL     1       9.826   0.709  23.467  0.00  0.00    +0.063 A 
ATOM      2  C   UNL     1       9.821   0.708  24.891  0.00  0.00    +0.018 A 
ATOM      3  C   UNL     1       9.376  -0.396  25.632  0.00  0.00    +0.028 A 
ATOM      4  C   UNL     1       8.932  -1.485  24.925  0.00  0.00    +0.064 A 
ATOM      5  N   UNL     1       8.183  -2.588  25.369  0.00  0.00    -0.339 N 
ATOM      6  H   UNL     1       8.386  -3.061  26.235  0.00  0.00    +0.167 HD
ATOM      7  C   UNL     1       7.805  -3.317  24.232  0.00  0.00    +0.120 A 
ATOM      8  C   UNL     1       7.031  -4.425  24.225  0.00  0.00    +0.062 C 
ATOM      9  C   UNL     1       6.647  -5.028  22.895  0.00  0.00    +0.189 C 
ATOM     10  O   UNL     1       7.155  -4.705  21.824  0.00  0.00    -0.287 OA
ATOM     11  C   UNL     1       5.568  -6.050  22.928  0.00  0.00    +0.051 C 
ATOM     12  C   UNL     1       5.034  -6.447  24.091  0.00  0.00    +0.004 C 
ATOM     13  C   UNL     1       5.491  -5.937  25.360  0.00  0.00    +0.001 C 
ATOM     14  C   UNL     1       6.438  -4.988  25.430  0.00  0.00    +0.015 C 
ATOM     15  N   UNL     1       8.282  -2.655  23.100  0.00  0.00    -0.339 N 
ATOM     16  H   UNL     1       8.229  -3.090  22.187  0.00  0.00    +0.167 HD
ATOM     17  C   UNL     1       8.961  -1.515  23.512  0.00  0.00    +0.065 A 
ATOM     18  C   UNL     1       9.416  -0.447  22.775  0.00  0.00    +0.043 A 
ENDROOT
BRANCH   1  22
ATOM     19  N   UNL     1      10.792   2.927  23.329  0.00  0.00    -0.250 N 
ATOM     20  H   UNL     1      11.091   2.832  24.294  0.00  0.00    +0.288 HD
ATOM     21  H   UNL     1      11.004   3.799  22.866  0.00  0.00    +0.288 HD
ATOM     22  C   UNL     1      10.168   1.939  22.723  0.00  0.00    +0.266 C 
ATOM     23  N   UNL     1       9.818   2.056  21.459  0.00  0.00    -0.288 N 
ATOM     24  H   UNL     1      10.024   2.877  20.907  0.00  0.00    +0.301 HD
ATOM     25  H   UNL     1       9.296   1.315  20.999  0.00  0.00    +0.301 HD
ENDBRANCH   1  22
TORSDOF 1
ENDMDL
MODEL 4
REMARK VINA RESULT:      -7.1      1.989      2.338
REMARK  Name = 
REMARK  1 active torsions:
REMARK  status: ('A' for Active; 'I' for Inactive)
REMARK    1  A    between atoms: C_2  and  C_6
REMARK                            x       y       z     vdW  Elec       q    Type
REMARK                         _______ _______ _______ _____ _____    ______ ____
ROOT
ATOM      1  C   UNL     1       8.648  -4.134  24.669  0.00  0.00    +0.063 A 
ATOM      2  C   UNL     1       7.494  -4.305  23.853  0.00  0.00    +0.018 A 
ATOM      3  C   UNL     1       6.994  -3.273  23.047  0.00  0.00    +0.028 A 
ATOM      4  C   UNL     1       7.661  -2.075  23.081  0.00  0.00    +0.064 A 
ATOM      5  N   UNL     1       7.245  -0.812  22.623  0.00  0.00    -0.339 N 
ATOM      6  H   UNL     1       6.787  -0.689  21.734  0.00  0.00    +0.167 HD
ATOM      7  C   UNL     1       8.188   0.123  23.074  0.00  0.00    +0.120 A 
ATOM      8  C   UNL     1       8.127   1.461  22.886  0.00  0.00    +0.062 C 
ATOM      9  C   UNL     1       9.185   2.327  23.524  0.00  0.00    +0.189 C 
ATOM     10  O   UNL     1      10.215   1.890  24.032  0.00  0.00    -0.287 OA
ATOM     11  C   UNL     1       8.911   3.789  23.540  0.00  0.00    +0.051 C 
ATOM     12  C   UNL     1       7.816   4.288  22.952  0.00  0.00    +0.004 C 
ATOM     13  C   UNL     1       6.871   3.452  22.253  0.00  0.00    +0.001 C 
ATOM     14  C   UNL     1       7.016   2.118  22.212  0.00  0.00    +0.015 C 
ATOM     15  N   UNL     1       9.151  -0.545  23.830  0.00  0.00    -0.339 N 
ATOM     16  H   UNL     1       9.991  -0.068  24.134  0.00  0.00    +0.167 HD
ATOM     17  C   UNL     1       8.827  -1.896  23.859  0.00  0.00    +0.065 A 
ATOM     18  C   UNL     1       9.341  -2.907  24.636  0.00  0.00    +0.043 A 
ENDROOT
BRANCH   1  22
ATOM     19  N   UNL     1       8.194  -5.702  26.460  0.00  0.00    -0.250 N 
ATOM     20  H   UNL     1       7.224  -5.407  26.441  0.00  0.00    +0.288 HD
ATOM     21  H   UNL     1       8.450  -6.398  27.146  0.00  0.00    +0.288 HD
ATOM     22  C   UNL     1       9.062  -5.196  25.609  0.00  0.00    +0.266 C 
ATOM     23  N   UNL     1      10.311  -5.614  25.614  0.00  0.00    -0.288 N 
ATOM     24  H   UNL     1      10.646  -6.334  26.239  0.00  0.00    +0.301 HD
ATOM     25  H   UNL     1      10.995  -5.195  24.991  0.00  0.00    +0.301 HD
ENDBRANCH   1  22
TORSDOF 1
ENDMDL
MODEL 5
REMARK VINA RESULT:      -6.9      2.995      6.966
REMARK  Name = 
REMARK  1 active torsions:
REMARK  status: ('A' for Active; 'I' for Inactive)
REMARK    1  A    between atoms: C_2  and  C_6
REMARK                            x       y       z     vdW  Elec       q    Type
REMARK                         _______ _______ _______ _____ _____    ______ ____
ROOT
ATOM      1  C   UNL     1       7.773   2.252  22.186  0.00  0.00    +0.063 A 
ATOM      2  C   UNL     1       9.146   2.046  21.871  0.00  0.00    +0.018 A 
ATOM      3  C   UNL     1       9.773   0.806  22.060  0.00  0.00    +0.028 A 
ATOM      4  C   UNL     1       9.007  -0.210  22.573  0.00  0.00    +0.064 A 
ATOM      5  N   UNL     1       9.412  -1.438  23.125  0.00  0.00    -0.339 N 
ATOM      6  H   UNL     1      10.127  -2.007  22.700  0.00  0.00    +0.167 HD
ATOM      7  C   UNL     1       8.276  -2.031  23.695  0.00  0.00    +0.120 A 
ATOM      8  C   UNL     1       8.251  -3.201  24.371  0.00  0.00    +0.062 C 
ATOM      9  C   UNL     1       6.951  -3.643  24.999  0.00  0.00    +0.189 C 
ATOM     10  O   UNL     1       5.865  -3.118  24.768  0.00  0.00    -0.287 OA
ATOM     11  C   UNL     1       7.042  -4.766  25.969  0.00  0.00    +0.051 C 
ATOM     12  C   UNL     1       8.210  -5.380  26.200  0.00  0.00    +0.004 C 
ATOM     13  C   UNL     1       9.421  -5.013  25.508  0.00  0.00    +0.001 C 
ATOM     14  C   UNL     1       9.445  -3.991  24.639  0.00  0.00    +0.015 C 
ATOM     15  N   UNL     1       7.193  -1.167  23.531  0.00  0.00    -0.339 N 
ATOM     16  H   UNL     1       6.253  -1.468  23.756  0.00  0.00    +0.167 HD
ATOM     17  C   UNL     1       7.634  -0.033  22.859  0.00  0.00    +0.065 A 
ATOM     18  C   UNL     1       7.002   1.171  22.657  0.00  0.00    +0.043 A 
ENDROOT
BRANCH   1  22
ATOM     19  N   UNL     1       7.956   4.669  22.200  0.00  0.00    -0.250 N 
ATOM     20  H   UNL     1       8.962   4.569  22.272  0.00  0.00    +0.288 HD
ATOM     21  H   UNL     1       7.585   5.609  22.192  0.00  0.00    +0.288 HD
ATOM     22  C   UNL     1       7.185   3.606  22.106  0.00  0.00    +0.266 C 
ATOM     23  N   UNL     1       5.882   3.745  21.972  0.00  0.00    -0.288 N 
ATOM     24  H   UNL     1       5.430   4.647  21.917  0.00  0.00    +0.301 HD
ATOM     25  H   UNL     1       5.278   2.928  21.945  0.00  0.00    +0.301 HD
ENDBRANCH   1  22
TORSDOF 1
ENDMDL
MODEL 6
REMARK VINA RESULT:      -6.8      3.678      7.828
REMARK  Name = 
REMARK  1 active torsions:
REMARK  status: ('A' for Active; 'I' for Inactive)
REMARK    1  A    between atoms: C_2  and  C_6
REMARK                            x       y       z     vdW  Elec       q    Type
REMARK                         _______ _______ _______ _____ _____    ______ ____
ROOT
ATOM      1  C   UNL     1      11.146   4.454  23.599  0.00  0.00    +0.063 A 
ATOM      2  C   UNL     1       9.892   4.973  24.031  0.00  0.00    +0.018 A 
ATOM      3  C   UNL     1       8.803   4.138  24.321  0.00  0.00    +0.028 A 
ATOM      4  C   UNL     1       8.991   2.789  24.163  0.00  0.00    +0.064 A 
ATOM      5  N   UNL     1       8.035   1.759  24.098  0.00  0.00    -0.339 N 
ATOM      6  H   UNL     1       7.251   1.716  24.730  0.00  0.00    +0.167 HD
ATOM      7  C   UNL     1       8.711   0.590  23.720  0.00  0.00    +0.120 A 
ATOM      8  C   UNL     1       8.140  -0.616  23.499  0.00  0.00    +0.062 C 
ATOM      9  C   UNL     1       9.012  -1.745  23.005  0.00  0.00    +0.189 C 
ATOM     10  O   UNL     1      10.239  -1.706  22.984  0.00  0.00    -0.287 OA
ATOM     11  C   UNL     1       8.298  -2.948  22.498  0.00  0.00    +0.051 C 
ATOM     12  C   UNL     1       6.962  -3.026  22.554  0.00  0.00    +0.004 C 
ATOM     13  C   UNL     1       6.154  -1.980  23.130  0.00  0.00    +0.001 C 
ATOM     14  C   UNL     1       6.704  -0.843  23.584  0.00  0.00    +0.015 C 
ATOM     15  N   UNL     1      10.056   0.898  23.517  0.00  0.00    -0.339 N 
ATOM     16  H   UNL     1      10.737   0.165  23.368  0.00  0.00    +0.167 HD
ATOM     17  C   UNL     1      10.238   2.253  23.767  0.00  0.00    +0.065 A 
ATOM     18  C   UNL     1      11.320   3.060  23.502  0.00  0.00    +0.043 A 
ENDROOT
BRANCH   1  22
ATOM     19  N   UNL     1      12.720   6.250  24.012  0.00  0.00    -0.250 N 
ATOM     20  H   UNL     1      12.407   6.271  24.977  0.00  0.00    +0.288 HD
ATOM     21  H   UNL     1      13.427   6.920  23.742  0.00  0.00    +0.288 HD
ATOM     22  C   UNL     1      12.223   5.370  23.169  0.00  0.00    +0.266 C 
ATOM     23  N   UNL     1      12.663   5.323  21.928  0.00  0.00    -0.288 N 
ATOM     24  H   UNL     1      13.394   5.929  21.583  0.00  0.00    +0.301 HD
ATOM     25  H   UNL     1      12.251   4.677  21.261  0.00  0.00    +0.301 HD
ENDBRANCH   1  22
TORSDOF 1
ENDMDL
MODEL 7
REMARK VINA RESULT:      -6.7      2.914      3.360
REMARK  Name = 
REMARK  1 active torsions:
REMARK  status: ('A' for Active; 'I' for Inactive)
REMARK    1  A    between atoms: C_2  and  C_6
REMARK                            x       y       z     vdW  Elec       q    Type
REMARK                         _______ _______ _______ _____ _____    ______ ____
ROOT
ATOM      1  C   UNL     1       4.482  -5.243  23.143  0.00  0.00    +0.063 A 
ATOM      2  C   UNL     1       5.601  -5.852  22.507  0.00  0.00    +0.018 A 
ATOM      3  C   UNL     1       6.796  -5.155  22.280  0.00  0.00    +0.028 A 
ATOM      4  C   UNL     1       6.845  -3.848  22.691  0.00  0.00    +0.064 A 
ATOM      5  N   UNL     1       7.768  -2.843  22.353  0.00  0.00    -0.339 N 
ATOM      6  H   UNL     1       8.761  -3.015  22.325  0.00  0.00    +0.167 HD
ATOM      7  C   UNL     1       7.269  -1.634  22.860  0.00  0.00    +0.120 A 
ATOM      8  C   UNL     1       7.838  -0.417  22.706  0.00  0.00    +0.062 C 
ATOM      9  C   UNL     1       7.110   0.792  23.242  0.00  0.00    +0.189 C 
ATOM     10  O   UNL     1       6.137   0.731  23.988  0.00  0.00    -0.287 OA
ATOM     11  C   UNL     1       7.621   2.114  22.791  0.00  0.00    +0.051 C 
ATOM     12  C   UNL     1       8.708   2.201  22.014  0.00  0.00    +0.004 C 
ATOM     13  C   UNL     1       9.453   1.037  21.602  0.00  0.00    +0.001 C 
ATOM     14  C   UNL     1       9.052  -0.200  21.931  0.00  0.00    +0.015 C 
ATOM     15  N   UNL     1       6.039  -1.881  23.469  0.00  0.00    -0.339 N 
ATOM     16  H   UNL     1       5.578  -1.161  24.012  0.00  0.00    +0.167 HD
ATOM     17  C   UNL     1       5.756  -3.237  23.355  0.00  0.00    +0.065 A 
ATOM     18  C   UNL     1       4.587  -3.916  23.603  0.00  0.00    +0.043 A 
ENDROOT
BRANCH   1  22
ATOM     19  N   UNL     1       2.061  -5.318  23.064  0.00  0.00    -0.250 N 
ATOM     20  H   UNL     1       2.062  -4.336  22.810  0.00  0.00    +0.288 HD
ATOM     21  H   UNL     1       1.161  -5.767  23.162  0.00  0.00    +0.288 HD
ATOM     22  C   UNL     1       3.195  -5.964  23.237  0.00  0.00    +0.266 C 
ATOM     23  N   UNL     1       3.185  -7.248  23.528  0.00  0.00    -0.288 N 
ATOM     24  H   UNL     1       2.333  -7.785  23.608  0.00  0.00    +0.301 HD
ATOM     25  H   UNL     1       4.055  -7.741  23.708  0.00  0.00    +0.301 HD
ENDBRANCH   1  22
TORSDOF 1
ENDMDL
MODEL 8
REMARK VINA RESULT:      -6.7      1.814      2.120
REMARK  Name = 
REMARK  1 active torsions:
REMARK  status: ('A' for Active; 'I' for Inactive)
REMARK    1  A    between atoms: C_2  and  C_6
REMARK                            x       y       z     vdW  Elec       q    Type
REMARK                         _______ _______ _______ _____ _____    ______ ____
ROOT
ATOM      1  C   UNL     1       6.196  -4.857  25.723  0.00  0.00    +0.063 A 
ATOM      2  C   UNL     1       4.921  -4.277  25.470  0.00  0.00    +0.018 A 
ATOM      3  C   UNL     1       4.762  -3.171  24.624  0.00  0.00    +0.028 A 
ATOM      4  C   UNL     1       5.896  -2.656  24.049  0.00  0.00    +0.064 A 
ATOM      5  N   UNL     1       6.086  -1.419  23.409  0.00  0.00    -0.339 N 
ATOM      6  H   UNL     1       5.418  -1.047  22.752  0.00  0.00    +0.167 HD
ATOM      7  C   UNL     1       7.463  -1.276  23.183  0.00  0.00    +0.120 A 
ATOM      8  C   UNL     1       8.065  -0.199  22.631  0.00  0.00    +0.062 C 
ATOM      9  C   UNL     1       9.573  -0.181  22.549  0.00  0.00    +0.189 C 
ATOM     10  O   UNL     1      10.283  -1.160  22.760  0.00  0.00    -0.287 OA
ATOM     11  C   UNL     1      10.193   1.129  22.216  0.00  0.00    +0.051 C 
ATOM     12  C   UNL     1       9.433   2.197  21.938  0.00  0.00    +0.004 C 
ATOM     13  C   UNL     1       7.992   2.131  21.917  0.00  0.00    +0.001 C 
ATOM     14  C   UNL     1       7.341   1.001  22.235  0.00  0.00    +0.015 C 
ATOM     15  N   UNL     1       8.118  -2.391  23.707  0.00  0.00    -0.339 N 
ATOM     16  H   UNL     1       9.103  -2.542  23.528  0.00  0.00    +0.167 HD
ATOM     17  C   UNL     1       7.166  -3.239  24.261  0.00  0.00    +0.065 A 
ATOM     18  C   UNL     1       7.332  -4.338  25.070  0.00  0.00    +0.043 A 
ENDROOT
BRANCH   1  22
ATOM     19  N   UNL     1       5.358  -6.780  26.936  0.00  0.00    -0.250 N 
ATOM     20  H   UNL     1       4.515  -6.738  26.373  0.00  0.00    +0.288 HD
ATOM     21  H   UNL     1       5.404  -7.500  27.643  0.00  0.00    +0.288 HD
ATOM     22  C   UNL     1       6.342  -5.931  26.727  0.00  0.00    +0.266 C 
ATOM     23  N   UNL     1       7.449  -6.017  27.436  0.00  0.00    -0.288 N 
ATOM     24  H   UNL     1       7.597  -6.729  28.137  0.00  0.00    +0.301 HD
ATOM     25  H   UNL     1       8.193  -5.336  27.311  0.00  0.00    +0.301 HD
ENDBRANCH   1  22
TORSDOF 1
ENDMDL
MODEL 9
REMARK VINA RESULT:      -6.6      2.133      2.986
REMARK  Name = 
REMARK  1 active torsions:
REMARK  status: ('A' for Active; 'I' for Inactive)
REMARK    1  A    between atoms: C_2  and  C_6
REMARK                            x       y       z     vdW  Elec       q    Type
REMARK                         _______ _______ _______ _____ _____    ______ ____
ROOT
ATOM      1  C   UNL     1       6.062  -4.883  23.266  0.00  0.00    +0.063 A 
ATOM      2  C   UNL     1       6.959  -5.255  24.307  0.00  0.00    +0.018 A 
ATOM      3  C   UNL     1       7.801  -4.324  24.931  0.00  0.00    +0.028 A 
ATOM      4  C   UNL     1       7.734  -3.027  24.489  0.00  0.00    +0.064 A 
ATOM      5  N   UNL     1       8.627  -1.964  24.711  0.00  0.00    -0.339 N 
ATOM      6  H   UNL     1       9.025  -1.779  25.619  0.00  0.00    +0.167 HD
ATOM      7  C   UNL     1       8.228  -0.907  23.880  0.00  0.00    +0.120 A 
ATOM      8  C   UNL     1       8.857   0.284  23.759  0.00  0.00    +0.062 C 
ATOM      9  C   UNL     1       8.338   1.272  22.743  0.00  0.00    +0.189 C 
ATOM     10  O   UNL     1       7.263   1.158  22.162  0.00  0.00    -0.287 OA
ATOM     11  C   UNL     1       9.228   2.425  22.440  0.00  0.00    +0.051 C 
ATOM     12  C   UNL     1      10.384   2.591  23.096  0.00  0.00    +0.004 C 
ATOM     13  C   UNL     1      10.810   1.692  24.140  0.00  0.00    +0.001 C 
ATOM     14  C   UNL     1      10.091   0.606  24.463  0.00  0.00    +0.015 C 
ATOM     15  N   UNL     1       7.128  -1.322  23.129  0.00  0.00    -0.339 N 
ATOM     16  H   UNL     1       6.609  -0.660  22.565  0.00  0.00    +0.167 HD
ATOM     17  C   UNL     1       6.826  -2.632  23.481  0.00  0.00    +0.065 A 
ATOM     18  C   UNL     1       5.979  -3.532  22.877  0.00  0.00    +0.043 A 
ENDROOT
BRANCH   1  22
ATOM     19  N   UNL     1       4.192  -6.410  23.060  0.00  0.00    -0.250 N 
ATOM     20  H   UNL     1       3.831  -6.050  23.937  0.00  0.00    +0.288 HD
ATOM     21  H   UNL     1       3.664  -7.146  22.612  0.00  0.00    +0.288 HD
ATOM     22  C   UNL     1       5.295  -5.915  22.538  0.00  0.00    +0.266 C 
ATOM     23  N   UNL     1       5.735  -6.361  21.380  0.00  0.00    -0.288 N 
ATOM     24  H   UNL     1       5.250  -7.068  20.844  0.00  0.00    +0.301 HD
ATOM     25  H   UNL     1       6.609  -6.015  20.995  0.00  0.00    +0.301 HD
ENDBRANCH   1  22
TORSDOF 1
ENDMDL
