MODEL 1
REMARK VINA RESULT:      -6.4      0.000      0.000
REMARK  Name = 
REMARK  4 active torsions:
REMARK  status: ('A' for Active; 'I' for Inactive)
REMARK    1  A    between atoms: C_2  and  C_3
REMARK    2  A    between atoms: C_3  and  C_4
REMARK    3  A    between atoms: C_4  and  O_5
REMARK    4  A    between atoms: N_15  and  C_16
REMARK                            x       y       z     vdW  Elec       q    Type
REMARK                         _______ _______ _______ _____ _____    ______ ____
ROOT
ATOM      1  C   UNL     1      10.887   4.831  23.858  0.00  0.00    +0.168 C 
ATOM      2  C   UNL     1       9.520   5.539  23.677  0.00  0.00    +0.236 C 
ATOM      3  O   UNL     1       9.464   6.775  23.647  0.00  0.00    -0.274 OA
ATOM      4  N   UNL     1       8.378   4.758  23.746  0.00  0.00    -0.299 N 
ATOM      5  C   UNL     1       7.186   5.315  24.356  0.00  0.00    +0.132 C 
ATOM      6  C   UNL     1       8.265   3.529  22.971  0.00  0.00    +0.144 C 
ATOM      7  C   UNL     1       9.064   2.418  23.584  0.00  0.00    -0.009 A 
ATOM      8  C   UNL     1      10.464   2.490  23.555  0.00  0.00    +0.032 A 
ATOM      9  C   UNL     1      11.218   1.476  24.153  0.00  0.00    +0.023 A 
ATOM     10  C   UNL     1      10.583   0.389  24.759  0.00  0.00    +0.002 A 
ATOM     11  C   UNL     1       9.193   0.303  24.762  0.00  0.00    +0.000 A 
ATOM     12  C   UNL     1       8.429   1.315  24.177  0.00  0.00    +0.007 A 
ATOM     13  N   UNL     1      11.102   3.632  23.015  0.00  0.00    -0.332 N 
ATOM     14  H   UNL     1      12.094   3.442  22.868  0.00  0.00    +0.147 HD
ENDROOT
BRANCH   1  15
ATOM     15  C   UNL     1      12.032   5.838  23.712  0.00  0.00    +0.152 C 
BRANCH  15  16
ATOM     16  C   UNL     1      13.105   5.401  22.752  0.00  0.00    +0.307 C 
ATOM     17  O   UNL     1      12.988   5.509  21.539  0.00  0.00    -0.251 OA
BRANCH  16  18
ATOM     18  O   UNL     1      14.180   4.821  23.324  0.00  0.00    -0.481 OA
ATOM     19  H   UNL     1      15.046   5.227  23.080  0.00  0.00    +0.295 HD
ENDBRANCH  16  18
ENDBRANCH  15  16
ENDBRANCH   1  15
TORSDOF 3
ENDMDL
MODEL 2
REMARK VINA RESULT:      -6.0      5.846      7.643
REMARK  Name = 
REMARK  4 active torsions:
REMARK  status: ('A' for Active; 'I' for Inactive)
REMARK    1  A    between atoms: C_2  and  C_3
REMARK    2  A    between atoms: C_3  and  C_4
REMARK    3  A    between atoms: C_4  and  O_5
REMARK    4  A    between atoms: N_15  and  C_16
REMARK                            x       y       z     vdW  Elec       q    Type
REMARK                         _______ _______ _______ _____ _____    ______ ____
ROOT
ATOM      1  C   UNL     1       8.345  -2.940  24.551  0.00  0.00    +0.168 C 
ATOM      2  C   UNL     1       8.021  -2.324  25.936  0.00  0.00    +0.236 C 
ATOM      3  O   UNL     1       7.455  -3.009  26.799  0.00  0.00    -0.274 OA
ATOM      4  N   UNL     1       8.208  -0.961  26.093  0.00  0.00    -0.299 N 
ATOM      5  C   UNL     1       7.284  -0.220  26.928  0.00  0.00    +0.132 C 
ATOM      6  C   UNL     1       9.457  -0.328  25.688  0.00  0.00    +0.144 C 
ATOM      7  C   UNL     1       9.533  -0.168  24.199  0.00  0.00    -0.009 A 
ATOM      8  C   UNL     1       9.674  -1.311  23.399  0.00  0.00    +0.032 A 
ATOM      9  C   UNL     1       9.713  -1.176  22.008  0.00  0.00    +0.023 A 
ATOM     10  C   UNL     1       9.631   0.088  21.419  0.00  0.00    +0.002 A 
ATOM     11  C   UNL     1       9.521   1.225  22.215  0.00  0.00    +0.000 A 
ATOM     12  C   UNL     1       9.470   1.103  23.606  0.00  0.00    +0.007 A 
ATOM     13  N   UNL     1       9.673  -2.595  23.994  0.00  0.00    -0.332 N 
ATOM     14  H   UNL     1       9.998  -3.292  23.322  0.00  0.00    +0.147 HD
ENDROOT
BRANCH   1  15
ATOM     15  C   UNL     1       8.117  -4.455  24.575  0.00  0.00    +0.152 C 
BRANCH  15  16
ATOM     16  C   UNL     1       9.122  -5.206  25.404  0.00  0.00    +0.307 C 
ATOM     17  O   UNL     1      10.313  -5.242  25.125  0.00  0.00    -0.251 OA
BRANCH  16  18
ATOM     18  O   UNL     1       8.605  -5.891  26.445  0.00  0.00    -0.481 OA
ATOM     19  H   UNL     1       8.796  -5.501  27.331  0.00  0.00    +0.295 HD
ENDBRANCH  16  18
ENDBRANCH  15  16
ENDBRANCH   1  15
TORSDOF 3
ENDMDL
MODEL 3
REMARK VINA RESULT:      -5.9      7.605      9.622
REMARK  Name = 
REMARK  4 active torsions:
REMARK  status: ('A' for Active; 'I' for Inactive)
REMARK    1  A    between atoms: C_2  and  C_3
REMARK    2  A    between atoms: C_3  and  C_4
REMARK    3  A    between atoms: C_4  and  O_5
REMARK    4  A    between atoms: N_15  and  C_16
REMARK                            x       y       z     vdW  Elec       q    Type
REMARK                         _______ _______ _______ _____ _____    ______ ____
ROOT
ATOM      1  C   UNL     1       6.841  -4.782  24.788  0.00  0.00    +0.168 C 
ATOM      2  C   UNL     1       6.076  -5.278  23.535  0.00  0.00    +0.236 C 
ATOM      3  O   UNL     1       5.366  -6.290  23.605  0.00  0.00    -0.274 OA
ATOM      4  N   UNL     1       6.368  -4.675  22.322  0.00  0.00    -0.299 N 
ATOM      5  C   UNL     1       6.364  -5.484  21.120  0.00  0.00    +0.132 C 
ATOM      6  C   UNL     1       6.386  -3.223  22.197  0.00  0.00    +0.144 C 
ATOM      7  C   UNL     1       7.630  -2.635  22.791  0.00  0.00    -0.009 A 
ATOM      8  C   UNL     1       7.802  -2.670  24.183  0.00  0.00    +0.032 A 
ATOM      9  C   UNL     1       8.973  -2.155  24.745  0.00  0.00    +0.023 A 
ATOM     10  C   UNL     1       9.958  -1.592  23.930  0.00  0.00    +0.002 A 
ATOM     11  C   UNL     1       9.774  -1.530  22.551  0.00  0.00    +0.000 A 
ATOM     12  C   UNL     1       8.613  -2.052  21.976  0.00  0.00    +0.007 A 
ATOM     13  N   UNL     1       6.841  -3.316  24.997  0.00  0.00    -0.332 N 
ATOM     14  H   UNL     1       6.991  -3.070  25.977  0.00  0.00    +0.147 HD
ENDROOT
BRANCH   1  15
ATOM     15  C   UNL     1       6.362  -5.532  26.036  0.00  0.00    +0.152 C 
BRANCH  15  16
ATOM     16  C   UNL     1       7.394  -5.612  27.128  0.00  0.00    +0.307 C 
ATOM     17  O   UNL     1       7.133  -6.013  28.253  0.00  0.00    -0.251 OA
BRANCH  16  18
ATOM     18  O   UNL     1       8.616  -5.147  26.793  0.00  0.00    -0.481 OA
ATOM     19  H   UNL     1       8.650  -4.181  26.599  0.00  0.00    +0.295 HD
ENDBRANCH  16  18
ENDBRANCH  15  16
ENDBRANCH   1  15
TORSDOF 3
ENDMDL
MODEL 4
REMARK VINA RESULT:      -5.7      6.018      7.628
REMARK  Name = 
REMARK  4 active torsions:
REMARK  status: ('A' for Active; 'I' for Inactive)
REMARK    1  A    between atoms: C_2  and  C_3
REMARK    2  A    between atoms: C_3  and  C_4
REMARK    3  A    between atoms: C_4  and  O_5
REMARK    4  A    between atoms: N_15  and  C_16
REMARK                            x       y       z     vdW  Elec       q    Type
REMARK                         _______ _______ _______ _____ _____    ______ ____
ROOT
ATOM      1  C   UNL     1       8.632  -2.871  23.851  0.00  0.00    +0.168 C 
ATOM      2  C   UNL     1       7.952  -2.103  25.013  0.00  0.00    +0.236 C 
ATOM      3  O   UNL     1       8.634  -1.402  25.773  0.00  0.00    -0.274 OA
ATOM      4  N   UNL     1       6.621  -2.382  25.276  0.00  0.00    -0.299 N 
ATOM      5  C   UNL     1       6.164  -2.378  26.652  0.00  0.00    +0.132 C 
ATOM      6  C   UNL     1       5.633  -2.386  24.205  0.00  0.00    +0.144 C 
ATOM      7  C   UNL     1       5.731  -3.629  23.371  0.00  0.00    -0.009 A 
ATOM      8  C   UNL     1       6.852  -3.809  22.548  0.00  0.00    +0.032 A 
ATOM      9  C   UNL     1       6.970  -4.979  21.793  0.00  0.00    +0.023 A 
ATOM     10  C   UNL     1       5.970  -5.954  21.842  0.00  0.00    +0.002 A 
ATOM     11  C   UNL     1       4.843  -5.761  22.637  0.00  0.00    +0.000 A 
ATOM     12  C   UNL     1       4.720  -4.601  23.405  0.00  0.00    +0.007 A 
ATOM     13  N   UNL     1       7.901  -2.859  22.563  0.00  0.00    -0.332 N 
ATOM     14  H   UNL     1       8.524  -3.013  21.769  0.00  0.00    +0.147 HD
ENDROOT
BRANCH   1  15
ATOM     15  C   UNL     1      10.083  -2.406  23.683  0.00  0.00    +0.152 C 
BRANCH  15  16
ATOM     16  C   UNL     1      10.244  -1.261  22.721  0.00  0.00    +0.307 C 
ATOM     17  O   UNL     1      10.351  -0.100  23.092  0.00  0.00    -0.251 OA
BRANCH  16  18
ATOM     18  O   UNL     1      10.199  -1.600  21.417  0.00  0.00    -0.481 OA
ATOM     19  H   UNL     1      10.996  -1.343  20.895  0.00  0.00    +0.295 HD
ENDBRANCH  16  18
ENDBRANCH  15  16
ENDBRANCH   1  15
TORSDOF 3
ENDMDL
MODEL 5
REMARK VINA RESULT:      -5.6      6.674      8.482
REMARK  Name = 
REMARK  4 active torsions:
REMARK  status: ('A' for Active; 'I' for Inactive)
REMARK    1  A    between atoms: C_2  and  C_3
REMARK    2  A    between atoms: C_3  and  C_4
REMARK    3  A    between atoms: C_4  and  O_5
REMARK    4  A    between atoms: N_15  and  C_16
REMARK                            x       y       z     vdW  Elec       q    Type
REMARK                         _______ _______ _______ _____ _____    ______ ____
ROOT
ATOM      1  C   UNL     1       6.829  -2.999  22.915  0.00  0.00    +0.168 C 
ATOM      2  C   UNL     1       6.710  -3.346  24.421  0.00  0.00    +0.236 C 
ATOM      3  O   UNL     1       5.768  -4.043  24.821  0.00  0.00    -0.274 OA
ATOM      4  N   UNL     1       7.565  -2.701  25.299  0.00  0.00    -0.299 N 
ATOM      5  C   UNL     1       7.074  -2.338  26.614  0.00  0.00    +0.132 C 
ATOM      6  C   UNL     1       8.998  -2.649  25.042  0.00  0.00    +0.144 C 
ATOM      7  C   UNL     1       9.330  -1.645  23.979  0.00  0.00    -0.009 A 
ATOM      8  C   UNL     1       8.946  -1.903  22.656  0.00  0.00    +0.032 A 
ATOM      9  C   UNL     1       9.220  -0.959  21.663  0.00  0.00    +0.023 A 
ATOM     10  C   UNL     1       9.888   0.226  21.982  0.00  0.00    +0.002 A 
ATOM     11  C   UNL     1      10.295   0.470  23.291  0.00  0.00    +0.000 A 
ATOM     12  C   UNL     1      10.017  -0.462  24.294  0.00  0.00    +0.007 A 
ATOM     13  N   UNL     1       8.197  -3.065  22.351  0.00  0.00    -0.332 N 
ATOM     14  H   UNL     1       8.186  -3.220  21.342  0.00  0.00    +0.147 HD
ENDROOT
BRANCH   1  15
ATOM     15  C   UNL     1       5.838  -3.833  22.096  0.00  0.00    +0.152 C 
BRANCH  15  16
ATOM     16  C   UNL     1       6.421  -5.111  21.558  0.00  0.00    +0.307 C 
ATOM     17  O   UNL     1       7.318  -5.717  22.128  0.00  0.00    -0.251 OA
BRANCH  16  18
ATOM     18  O   UNL     1       5.925  -5.508  20.368  0.00  0.00    -0.481 OA
ATOM     19  H   UNL     1       5.746  -4.776  19.732  0.00  0.00    +0.295 HD
ENDBRANCH  16  18
ENDBRANCH  15  16
ENDBRANCH   1  15
TORSDOF 3
ENDMDL
MODEL 6
REMARK VINA RESULT:      -5.6      5.550      7.402
REMARK  Name = 
REMARK  4 active torsions:
REMARK  status: ('A' for Active; 'I' for Inactive)
REMARK    1  A    between atoms: C_2  and  C_3
REMARK    2  A    between atoms: C_3  and  C_4
REMARK    3  A    between atoms: C_4  and  O_5
REMARK    4  A    between atoms: N_15  and  C_16
REMARK                            x       y       z     vdW  Elec       q    Type
REMARK                         _______ _______ _______ _____ _____    ______ ____
ROOT
ATOM      1  C   UNL     1       8.067  -2.289  23.307  0.00  0.00    +0.168 C 
ATOM      2  C   UNL     1       7.847  -2.355  24.840  0.00  0.00    +0.236 C 
ATOM      3  O   UNL     1       7.165  -3.266  25.327  0.00  0.00    -0.274 OA
ATOM      4  N   UNL     1       8.267  -1.274  25.597  0.00  0.00    -0.299 N 
ATOM      5  C   UNL     1       7.481  -0.878  26.748  0.00  0.00    +0.132 C 
ATOM      6  C   UNL     1       9.609  -0.728  25.438  0.00  0.00    +0.144 C 
ATOM      7  C   UNL     1       9.722   0.099  24.192  0.00  0.00    -0.009 A 
ATOM      8  C   UNL     1       9.667  -0.540  22.944  0.00  0.00    +0.032 A 
ATOM      9  C   UNL     1       9.737   0.225  21.777  0.00  0.00    +0.023 A 
ATOM     10  C   UNL     1       9.880   1.612  21.850  0.00  0.00    +0.002 A 
ATOM     11  C   UNL     1       9.965   2.243  23.088  0.00  0.00    +0.000 A 
ATOM     12  C   UNL     1       9.885   1.491  24.262  0.00  0.00    +0.007 A 
ATOM     13  N   UNL     1       9.439  -1.934  22.874  0.00  0.00    -0.332 N 
ATOM     14  H   UNL     1       9.642  -2.275  21.933  0.00  0.00    +0.147 HD
ENDROOT
BRANCH   1  15
ATOM     15  C   UNL     1       7.579  -3.580  22.642  0.00  0.00    +0.152 C 
BRANCH  15  16
ATOM     16  C   UNL     1       6.257  -3.438  21.939  0.00  0.00    +0.307 C 
ATOM     17  O   UNL     1       5.875  -4.228  21.087  0.00  0.00    -0.251 OA
BRANCH  16  18
ATOM     18  O   UNL     1       5.550  -2.338  22.272  0.00  0.00    -0.481 OA
ATOM     19  H   UNL     1       5.905  -1.839  23.045  0.00  0.00    +0.295 HD
ENDBRANCH  16  18
ENDBRANCH  15  16
ENDBRANCH   1  15
TORSDOF 3
ENDMDL
MODEL 7
REMARK VINA RESULT:      -5.5      5.977      7.775
REMARK  Name = 
REMARK  4 active torsions:
REMARK  status: ('A' for Active; 'I' for Inactive)
REMARK    1  A    between atoms: C_2  and  C_3
REMARK    2  A    between atoms: C_3  and  C_4
REMARK    3  A    between atoms: C_4  and  O_5
REMARK    4  A    between atoms: N_15  and  C_16
REMARK                            x       y       z     vdW  Elec       q    Type
REMARK                         _______ _______ _______ _____ _____    ______ ____
ROOT
ATOM      1  C   UNL     1       8.724  -2.376  24.113  0.00  0.00    +0.168 C 
ATOM      2  C   UNL     1       8.124  -2.586  22.700  0.00  0.00    +0.236 C 
ATOM      3  O   UNL     1       8.365  -1.772  21.799  0.00  0.00    -0.274 OA
ATOM      4  N   UNL     1       7.177  -3.586  22.546  0.00  0.00    -0.299 N 
ATOM      5  C   UNL     1       6.075  -3.370  21.628  0.00  0.00    +0.132 C 
ATOM      6  C   UNL     1       7.423  -4.931  23.049  0.00  0.00    +0.144 C 
ATOM      7  C   UNL     1       7.256  -5.000  24.538  0.00  0.00    -0.009 A 
ATOM      8  C   UNL     1       8.193  -4.355  25.358  0.00  0.00    +0.032 A 
ATOM      9  C   UNL     1       8.028  -4.385  26.746  0.00  0.00    +0.023 A 
ATOM     10  C   UNL     1       6.949  -5.066  27.313  0.00  0.00    +0.002 A 
ATOM     11  C   UNL     1       6.035  -5.732  26.500  0.00  0.00    +0.000 A 
ATOM     12  C   UNL     1       6.183  -5.700  25.111  0.00  0.00    +0.007 A 
ATOM     13  N   UNL     1       9.237  -3.597  24.778  0.00  0.00    -0.332 N 
ATOM     14  H   UNL     1       9.944  -3.380  25.481  0.00  0.00    +0.147 HD
ENDROOT
BRANCH   1  15
ATOM     15  C   UNL     1       9.776  -1.262  24.085  0.00  0.00    +0.152 C 
BRANCH  15  16
ATOM     16  C   UNL     1       9.790  -0.410  25.325  0.00  0.00    +0.307 C 
ATOM     17  O   UNL     1       9.120  -0.675  26.314  0.00  0.00    -0.251 OA
BRANCH  16  18
ATOM     18  O   UNL     1      10.547   0.703  25.243  0.00  0.00    -0.481 OA
ATOM     19  H   UNL     1      11.256   0.670  24.558  0.00  0.00    +0.295 HD
ENDBRANCH  16  18
ENDBRANCH  15  16
ENDBRANCH   1  15
TORSDOF 3
ENDMDL
MODEL 8
REMARK VINA RESULT:      -5.4      4.105      5.563
REMARK  Name = 
REMARK  4 active torsions:
REMARK  status: ('A' for Active; 'I' for Inactive)
REMARK    1  A    between atoms: C_2  and  C_3
REMARK    2  A    between atoms: C_3  and  C_4
REMARK    3  A    between atoms: C_4  and  O_5
REMARK    4  A    between atoms: N_15  and  C_16
REMARK                            x       y       z     vdW  Elec       q    Type
REMARK                         _______ _______ _______ _____ _____    ______ ____
ROOT
ATOM      1  C   UNL     1       8.166  -0.213  23.508  0.00  0.00    +0.168 C 
ATOM      2  C   UNL     1       6.806  -0.051  24.234  0.00  0.00    +0.236 C 
ATOM      3  O   UNL     1       5.950  -0.942  24.147  0.00  0.00    -0.274 OA
ATOM      4  N   UNL     1       6.523   1.180  24.803  0.00  0.00    -0.299 N 
ATOM      5  C   UNL     1       5.158   1.667  24.772  0.00  0.00    +0.132 C 
ATOM      6  C   UNL     1       7.489   1.840  25.672  0.00  0.00    +0.144 C 
ATOM      7  C   UNL     1       8.604   2.459  24.884  0.00  0.00    -0.009 A 
ATOM      8  C   UNL     1       9.526   1.622  24.238  0.00  0.00    +0.032 A 
ATOM      9  C   UNL     1      10.549   2.188  23.473  0.00  0.00    +0.023 A 
ATOM     10  C   UNL     1      10.666   3.576  23.367  0.00  0.00    +0.002 A 
ATOM     11  C   UNL     1       9.769   4.407  24.033  0.00  0.00    +0.000 A 
ATOM     12  C   UNL     1       8.734   3.853  24.791  0.00  0.00    +0.007 A 
ATOM     13  N   UNL     1       9.356   0.218  24.278  0.00  0.00    -0.332 N 
ATOM     14  H   UNL     1      10.206  -0.247  23.958  0.00  0.00    +0.147 HD
ENDROOT
BRANCH   1  15
ATOM     15  C   UNL     1       8.321  -1.643  22.979  0.00  0.00    +0.152 C 
BRANCH  15  16
ATOM     16  C   UNL     1       9.748  -2.117  22.925  0.00  0.00    +0.307 C 
ATOM     17  O   UNL     1      10.237  -2.835  23.786  0.00  0.00    -0.251 OA
BRANCH  16  18
ATOM     18  O   UNL     1      10.468  -1.639  21.889  0.00  0.00    -0.481 OA
ATOM     19  H   UNL     1      11.351  -1.273  22.135  0.00  0.00    +0.295 HD
ENDBRANCH  16  18
ENDBRANCH  15  16
ENDBRANCH   1  15
TORSDOF 3
ENDMDL
MODEL 9
REMARK VINA RESULT:      -5.3      4.735      6.012
REMARK  Name = 
REMARK  4 active torsions:
REMARK  status: ('A' for Active; 'I' for Inactive)
REMARK    1  A    between atoms: C_2  and  C_3
REMARK    2  A    between atoms: C_3  and  C_4
REMARK    3  A    between atoms: C_4  and  O_5
REMARK    4  A    between atoms: N_15  and  C_16
REMARK                            x       y       z     vdW  Elec       q    Type
REMARK                         _______ _______ _______ _____ _____    ______ ____
ROOT
ATOM      1  C   UNL     1       9.601  -0.889  24.247  0.00  0.00    +0.168 C 
ATOM      2  C   UNL     1       8.678   0.094  25.010  0.00  0.00    +0.236 C 
ATOM      3  O   UNL     1       8.836   1.315  24.882  0.00  0.00    -0.274 OA
ATOM      4  N   UNL     1       7.824  -0.434  25.965  0.00  0.00    -0.299 N 
ATOM      5  C   UNL     1       7.562   0.330  27.169  0.00  0.00    +0.132 C 
ATOM      6  C   UNL     1       6.974  -1.576  25.655  0.00  0.00    +0.144 C 
ATOM      7  C   UNL     1       7.755  -2.856  25.643  0.00  0.00    -0.009 A 
ATOM      8  C   UNL     1       8.686  -3.075  24.618  0.00  0.00    +0.032 A 
ATOM      9  C   UNL     1       9.445  -4.249  24.617  0.00  0.00    +0.023 A 
ATOM     10  C   UNL     1       9.264  -5.207  25.617  0.00  0.00    +0.002 A 
ATOM     11  C   UNL     1       8.318  -5.003  26.619  0.00  0.00    +0.000 A 
ATOM     12  C   UNL     1       7.562  -3.828  26.637  0.00  0.00    +0.007 A 
ATOM     13  N   UNL     1       8.926  -2.068  23.654  0.00  0.00    -0.332 N 
ATOM     14  H   UNL     1       9.453  -2.453  22.868  0.00  0.00    +0.147 HD
ENDROOT
BRANCH   1  15
ATOM     15  C   UNL     1      10.441  -0.137  23.211  0.00  0.00    +0.152 C 
BRANCH  15  16
ATOM     16  C   UNL     1       9.781  -0.019  21.864  0.00  0.00    +0.307 C 
ATOM     17  O   UNL     1       9.204   0.996  21.499  0.00  0.00    -0.251 OA
BRANCH  16  18
ATOM     18  O   UNL     1       9.815  -1.139  21.113  0.00  0.00    -0.481 OA
ATOM     19  H   UNL     1       9.120  -1.804  21.332  0.00  0.00    +0.295 HD
ENDBRANCH  16  18
ENDBRANCH  15  16
ENDBRANCH   1  15
TORSDOF 3
ENDMDL
