MODEL 1
REMARK VINA RESULT:      -5.6      0.000      0.000
REMARK  Name = 
REMARK  18 active torsions:
REMARK  status: ('A' for Active; 'I' for Inactive)
REMARK    1  A    between atoms: C_2  and  O_3
REMARK    2  A    between atoms: C_2  and  C_4
REMARK    3  A    between atoms: C_2  and  C_15
REMARK    4  A    between atoms: N_6  and  C_7
REMARK    5  A    between atoms: C_7  and  C_8
REMARK    6  A    between atoms: C_8  and  C_9
REMARK    7  A    between atoms: N_11  and  C_12
REMARK    8  A    between atoms: C_12  and  C_13
REMARK    9  A    between atoms: C_13  and  S_14
REMARK   10  A    between atoms: C_15  and  C_16
REMARK   11  A    between atoms: C_15  and  C_17
REMARK   12  A    between atoms: C_15  and  C_18
REMARK   13  A    between atoms: C_18  and  O_19
REMARK   14  A    between atoms: O_19  and  C_20
REMARK   15  A    between atoms: C_20  and  C_22
REMARK   16  A    between atoms: C_22  and  C_23
REMARK   17  A    between atoms: C_22  and  C_24
REMARK   18  A    between atoms: C_22  and  C_25
REMARK                            x       y       z     vdW  Elec       q    Type
REMARK                         _______ _______ _______ _____ _____    ______ ____
ROOT
ATOM      1  C   UNL     1       9.682  -1.890  24.255  0.00  0.00    +0.209 C 
ENDROOT
BRANCH   1   2
ATOM      2  C   UNL     1       9.524  -1.106  22.933  0.00  0.00    +0.242 C 
ATOM      3  N   UNL     1       9.837   0.237  23.039  0.00  0.00    -0.313 N 
ATOM      4  H   UNL     1      10.436   0.491  23.820  0.00  0.00    +0.149 HD
ATOM      5  O   UNL     1       9.131  -1.601  21.882  0.00  0.00    -0.273 OA
BRANCH   3   6
ATOM      6  C   UNL     1       9.833   1.078  21.854  0.00  0.00    +0.113 C 
BRANCH   6   7
ATOM      7  C   UNL     1       8.577   1.942  21.746  0.00  0.00    +0.114 C 
BRANCH   7   8
ATOM      8  C   UNL     1       8.419   2.825  22.962  0.00  0.00    +0.215 C 
ATOM      9  N   UNL     1       9.099   4.020  22.853  0.00  0.00    -0.314 N 
ATOM     10  H   UNL     1       9.723   4.170  22.069  0.00  0.00    +0.149 HD
ATOM     11  O   UNL     1       7.754   2.519  23.942  0.00  0.00    -0.276 OA
BRANCH   9  12
ATOM     12  C   UNL     1       9.107   4.991  23.935  0.00  0.00    +0.114 C 
BRANCH  12  13
ATOM     13  C   UNL     1      10.085   6.144  23.709  0.00  0.00    +0.084 C 
BRANCH  13  14
ATOM     14  S   UNL     1      11.805   5.552  23.589  0.00  0.00    -0.177 S 
ATOM     15  H   UNL     1      12.331   6.714  23.180  0.00  0.00    +0.102 HD
ENDBRANCH  13  14
ENDBRANCH  12  13
ENDBRANCH   9  12
ENDBRANCH   7   8
ENDBRANCH   6   7
ENDBRANCH   3   6
ENDBRANCH   1   2
BRANCH   1  16
ATOM     16  C   UNL     1       8.412  -1.921  25.161  0.00  0.00    +0.034 C 
ATOM     17  C   UNL     1       7.222  -1.171  24.522  0.00  0.00    +0.017 C 
ATOM     18  C   UNL     1       8.729  -1.287  26.534  0.00  0.00    +0.017 C 
BRANCH  16  19
ATOM     19  C   UNL     1       8.001  -3.401  25.386  0.00  0.00    +0.241 C 
BRANCH  19  20
ATOM     20  O   UNL     1       6.940  -3.791  24.490  0.00  0.00    -0.464 OA
BRANCH  20  21
ATOM     21  C   UNL     1       7.250  -4.708  23.528  0.00  0.00    +0.313 C 
ATOM     22  O   UNL     1       8.284  -5.363  23.505  0.00  0.00    -0.250 OA
BRANCH  21  23
ATOM     23  C   UNL     1       6.152  -4.792  22.463  0.00  0.00    +0.059 C 
ATOM     24  C   UNL     1       6.530  -5.826  21.395  0.00  0.00    +0.022 C 
ATOM     25  C   UNL     1       6.000  -3.416  21.792  0.00  0.00    +0.022 C 
ATOM     26  C   UNL     1       4.822  -5.174  23.126  0.00  0.00    +0.022 C 
ENDBRANCH  21  23
ENDBRANCH  20  21
ENDBRANCH  19  20
ENDBRANCH  16  19
ENDBRANCH   1  16
BRANCH   1  27
ATOM     27  O   UNL     1      10.158  -3.206  23.949  0.00  0.00    -0.382 OA
ATOM     28  H   UNL     1       9.871  -3.421  23.042  0.00  0.00    +0.210 HD
ENDBRANCH   1  27
TORSDOF 13
ENDMDL
MODEL 2
REMARK VINA RESULT:      -5.5      3.962      7.733
REMARK  Name = 
REMARK  18 active torsions:
REMARK  status: ('A' for Active; 'I' for Inactive)
REMARK    1  A    between atoms: C_2  and  O_3
REMARK    2  A    between atoms: C_2  and  C_4
REMARK    3  A    between atoms: C_2  and  C_15
REMARK    4  A    between atoms: N_6  and  C_7
REMARK    5  A    between atoms: C_7  and  C_8
REMARK    6  A    between atoms: C_8  and  C_9
REMARK    7  A    between atoms: N_11  and  C_12
REMARK    8  A    between atoms: C_12  and  C_13
REMARK    9  A    between atoms: C_13  and  S_14
REMARK   10  A    between atoms: C_15  and  C_16
REMARK   11  A    between atoms: C_15  and  C_17
REMARK   12  A    between atoms: C_15  and  C_18
REMARK   13  A    between atoms: C_18  and  O_19
REMARK   14  A    between atoms: O_19  and  C_20
REMARK   15  A    between atoms: C_20  and  C_22
REMARK   16  A    between atoms: C_22  and  C_23
REMARK   17  A    between atoms: C_22  and  C_24
REMARK   18  A    between atoms: C_22  and  C_25
REMARK                            x       y       z     vdW  Elec       q    Type
REMARK                         _______ _______ _______ _____ _____    ______ ____
ROOT
ATOM      1  C   UNL     1       8.394  -3.245  25.173  0.00  0.00    +0.209 C 
ENDROOT
BRANCH   1   2
ATOM      2  C   UNL     1       8.541  -4.554  24.364  0.00  0.00    +0.242 C 
ATOM      3  N   UNL     1       7.551  -4.740  23.417  0.00  0.00    -0.313 N 
ATOM      4  H   UNL     1       7.062  -3.901  23.117  0.00  0.00    +0.149 HD
ATOM      5  O   UNL     1       9.429  -5.380  24.548  0.00  0.00    -0.273 OA
BRANCH   3   6
ATOM      6  C   UNL     1       7.616  -5.876  22.513  0.00  0.00    +0.113 C 
BRANCH   6   7
ATOM      7  C   UNL     1       6.413  -5.955  21.574  0.00  0.00    +0.114 C 
BRANCH   7   8
ATOM      8  C   UNL     1       5.182  -5.362  22.219  0.00  0.00    +0.215 C 
ATOM      9  N   UNL     1       4.400  -6.302  22.855  0.00  0.00    -0.314 N 
ATOM     10  H   UNL     1       4.619  -7.286  22.753  0.00  0.00    +0.149 HD
ATOM     11  O   UNL     1       4.906  -4.170  22.186  0.00  0.00    -0.276 OA
BRANCH   9  12
ATOM     12  C   UNL     1       3.150  -5.938  23.502  0.00  0.00    +0.114 C 
BRANCH  12  13
ATOM     13  C   UNL     1       3.290  -5.701  25.005  0.00  0.00    +0.084 C 
BRANCH  13  14
ATOM     14  S   UNL     1       4.761  -6.539  25.683  0.00  0.00    -0.177 S 
ATOM     15  H   UNL     1       5.516  -5.437  25.796  0.00  0.00    +0.102 HD
ENDBRANCH  13  14
ENDBRANCH  12  13
ENDBRANCH   9  12
ENDBRANCH   7   8
ENDBRANCH   6   7
ENDBRANCH   3   6
ENDBRANCH   1   2
BRANCH   1  16
ATOM     16  C   UNL     1       8.802  -1.948  24.410  0.00  0.00    +0.034 C 
ATOM     17  C   UNL     1       7.640  -1.378  23.566  0.00  0.00    +0.017 C 
ATOM     18  C   UNL     1      10.004  -2.238  23.483  0.00  0.00    +0.017 C 
BRANCH  16  19
ATOM     19  C   UNL     1       9.231  -0.877  25.449  0.00  0.00    +0.241 C 
BRANCH  19  20
ATOM     20  O   UNL     1       9.087   0.456  24.915  0.00  0.00    -0.464 OA
BRANCH  20  21
ATOM     21  C   UNL     1      10.214   1.046  24.419  0.00  0.00    +0.313 C 
ATOM     22  O   UNL     1      11.351   0.788  24.791  0.00  0.00    -0.250 OA
BRANCH  21  23
ATOM     23  C   UNL     1       9.871   2.094  23.355  0.00  0.00    +0.059 C 
ATOM     24  C   UNL     1       8.465   2.656  23.601  0.00  0.00    +0.022 C 
ATOM     25  C   UNL     1       9.906   1.429  21.969  0.00  0.00    +0.022 C 
ATOM     26  C   UNL     1      10.909   3.223  23.394  0.00  0.00    +0.022 C 
ENDBRANCH  21  23
ENDBRANCH  20  21
ENDBRANCH  19  20
ENDBRANCH  16  19
ENDBRANCH   1  16
BRANCH   1  27
ATOM     27  O   UNL     1       7.057  -3.174  25.683  0.00  0.00    -0.382 OA
ATOM     28  H   UNL     1       6.500  -3.757  25.135  0.00  0.00    +0.210 HD
ENDBRANCH   1  27
TORSDOF 13
ENDMDL
MODEL 3
REMARK VINA RESULT:      -5.4      1.576      2.073
REMARK  Name = 
REMARK  18 active torsions:
REMARK  status: ('A' for Active; 'I' for Inactive)
REMARK    1  A    between atoms: C_2  and  O_3
REMARK    2  A    between atoms: C_2  and  C_4
REMARK    3  A    between atoms: C_2  and  C_15
REMARK    4  A    between atoms: N_6  and  C_7
REMARK    5  A    between atoms: C_7  and  C_8
REMARK    6  A    between atoms: C_8  and  C_9
REMARK    7  A    between atoms: N_11  and  C_12
REMARK    8  A    between atoms: C_12  and  C_13
REMARK    9  A    between atoms: C_13  and  S_14
REMARK   10  A    between atoms: C_15  and  C_16
REMARK   11  A    between atoms: C_15  and  C_17
REMARK   12  A    between atoms: C_15  and  C_18
REMARK   13  A    between atoms: C_18  and  O_19
REMARK   14  A    between atoms: O_19  and  C_20
REMARK   15  A    between atoms: C_20  and  C_22
REMARK   16  A    between atoms: C_22  and  C_23
REMARK   17  A    between atoms: C_22  and  C_24
REMARK   18  A    between atoms: C_22  and  C_25
REMARK                            x       y       z     vdW  Elec       q    Type
REMARK                         _______ _______ _______ _____ _____    ______ ____
ROOT
ATOM      1  C   UNL     1      10.147  -1.451  23.178  0.00  0.00    +0.209 C 
ENDROOT
BRANCH   1   2
ATOM      2  C   UNL     1      10.412   0.052  23.424  0.00  0.00    +0.242 C 
ATOM      3  N   UNL     1      10.118   0.857  22.338  0.00  0.00    -0.313 N 
ATOM      4  H   UNL     1       9.470   0.465  21.660  0.00  0.00    +0.149 HD
ATOM      5  O   UNL     1      10.868   0.508  24.467  0.00  0.00    -0.273 OA
BRANCH   3   6
ATOM      6  C   UNL     1      10.221   2.301  22.457  0.00  0.00    +0.113 C 
BRANCH   6   7
ATOM      7  C   UNL     1       8.934   2.946  22.972  0.00  0.00    +0.114 C 
BRANCH   7   8
ATOM      8  C   UNL     1       9.237   4.061  23.945  0.00  0.00    +0.215 C 
ATOM      9  N   UNL     1      10.104   5.003  23.433  0.00  0.00    -0.314 N 
ATOM     10  H   UNL     1      10.552   4.836  22.540  0.00  0.00    +0.149 HD
ATOM     11  O   UNL     1       8.761   4.129  25.071  0.00  0.00    -0.276 OA
BRANCH   9  12
ATOM     12  C   UNL     1      10.553   6.134  24.229  0.00  0.00    +0.114 C 
BRANCH  12  13
ATOM     13  C   UNL     1      12.075   6.266  24.292  0.00  0.00    +0.084 C 
BRANCH  13  14
ATOM     14  S   UNL     1      12.896   5.145  23.111  0.00  0.00    -0.177 S 
ATOM     15  H   UNL     1      11.772   4.614  22.610  0.00  0.00    +0.102 HD
ENDBRANCH  13  14
ENDBRANCH  12  13
ENDBRANCH   9  12
ENDBRANCH   7   8
ENDBRANCH   6   7
ENDBRANCH   3   6
ENDBRANCH   1   2
BRANCH   1  16
ATOM     16  C   UNL     1       8.785  -1.979  23.724  0.00  0.00    +0.034 C 
ATOM     17  C   UNL     1       7.774  -0.837  23.972  0.00  0.00    +0.017 C 
ATOM     18  C   UNL     1       9.010  -2.750  25.044  0.00  0.00    +0.017 C 
BRANCH  16  19
ATOM     19  C   UNL     1       8.180  -2.958  22.680  0.00  0.00    +0.241 C 
BRANCH  19  20
ATOM     20  O   UNL     1       7.891  -4.240  23.275  0.00  0.00    -0.464 OA
BRANCH  20  21
ATOM     21  C   UNL     1       6.853  -4.948  22.740  0.00  0.00    +0.313 C 
ATOM     22  O   UNL     1       6.856  -5.437  21.618  0.00  0.00    -0.250 OA
BRANCH  21  23
ATOM     23  C   UNL     1       5.672  -5.026  23.712  0.00  0.00    +0.059 C 
ATOM     24  C   UNL     1       4.729  -3.835  23.495  0.00  0.00    +0.022 C 
ATOM     25  C   UNL     1       6.207  -4.981  25.153  0.00  0.00    +0.022 C 
ATOM     26  C   UNL     1       4.919  -6.346  23.499  0.00  0.00    +0.022 C 
ENDBRANCH  21  23
ENDBRANCH  20  21
ENDBRANCH  19  20
ENDBRANCH  16  19
ENDBRANCH   1  16
BRANCH   1  27
ATOM     27  O   UNL     1      10.309  -1.718  21.780  0.00  0.00    -0.382 OA
ATOM     28  H   UNL     1      10.923  -2.469  21.691  0.00  0.00    +0.210 HD
ENDBRANCH   1  27
TORSDOF 13
ENDMDL
MODEL 4
REMARK VINA RESULT:      -5.4      3.823      8.022
REMARK  Name = 
REMARK  18 active torsions:
REMARK  status: ('A' for Active; 'I' for Inactive)
REMARK    1  A    between atoms: C_2  and  O_3
REMARK    2  A    between atoms: C_2  and  C_4
REMARK    3  A    between atoms: C_2  and  C_15
REMARK    4  A    between atoms: N_6  and  C_7
REMARK    5  A    between atoms: C_7  and  C_8
REMARK    6  A    between atoms: C_8  and  C_9
REMARK    7  A    between atoms: N_11  and  C_12
REMARK    8  A    between atoms: C_12  and  C_13
REMARK    9  A    between atoms: C_13  and  S_14
REMARK   10  A    between atoms: C_15  and  C_16
REMARK   11  A    between atoms: C_15  and  C_17
REMARK   12  A    between atoms: C_15  and  C_18
REMARK   13  A    between atoms: C_18  and  O_19
REMARK   14  A    between atoms: O_19  and  C_20
REMARK   15  A    between atoms: C_20  and  C_22
REMARK   16  A    between atoms: C_22  and  C_23
REMARK   17  A    between atoms: C_22  and  C_24
REMARK   18  A    between atoms: C_22  and  C_25
REMARK                            x       y       z     vdW  Elec       q    Type
REMARK                         _______ _______ _______ _____ _____    ______ ____
ROOT
ATOM      1  C   UNL     1       9.150  -1.833  22.942  0.00  0.00    +0.209 C 
ENDROOT
BRANCH   1   2
ATOM      2  C   UNL     1       8.595  -3.091  23.648  0.00  0.00    +0.242 C 
ATOM      3  N   UNL     1       9.542  -3.786  24.377  0.00  0.00    -0.313 N 
ATOM      4  H   UNL     1      10.364  -3.256  24.654  0.00  0.00    +0.149 HD
ATOM      5  O   UNL     1       7.432  -3.472  23.560  0.00  0.00    -0.273 OA
BRANCH   3   6
ATOM      6  C   UNL     1       9.143  -4.932  25.177  0.00  0.00    +0.113 C 
BRANCH   6   7
ATOM      7  C   UNL     1       8.672  -4.542  26.578  0.00  0.00    +0.114 C 
BRANCH   7   8
ATOM      8  C   UNL     1       7.434  -5.313  26.969  0.00  0.00    +0.215 C 
ATOM      9  N   UNL     1       6.422  -5.219  26.036  0.00  0.00    -0.314 N 
ATOM     10  H   UNL     1       6.520  -4.580  25.256  0.00  0.00    +0.149 HD
ATOM     11  O   UNL     1       7.335  -5.960  28.003  0.00  0.00    -0.276 OA
BRANCH   9  12
ATOM     12  C   UNL     1       5.134  -5.857  26.247  0.00  0.00    +0.114 C 
BRANCH  12  13
ATOM     13  C   UNL     1       4.721  -6.784  25.104  0.00  0.00    +0.084 C 
BRANCH  13  14
ATOM     14  S   UNL     1       5.126  -6.066  23.477  0.00  0.00    -0.177 S 
ATOM     15  H   UNL     1       5.424  -7.227  22.876  0.00  0.00    +0.102 HD
ENDBRANCH  13  14
ENDBRANCH  12  13
ENDBRANCH   9  12
ENDBRANCH   7   8
ENDBRANCH   6   7
ENDBRANCH   3   6
ENDBRANCH   1   2
BRANCH   1  16
ATOM     16  C   UNL     1       8.831  -0.482  23.652  0.00  0.00    +0.034 C 
ATOM     17  C   UNL     1       8.802  -0.625  25.190  0.00  0.00    +0.017 C 
ATOM     18  C   UNL     1       7.465   0.057  23.170  0.00  0.00    +0.017 C 
BRANCH  16  19
ATOM     19  C   UNL     1       9.928   0.549  23.270  0.00  0.00    +0.241 C 
BRANCH  19  20
ATOM     20  O   UNL     1      10.013   1.607  24.248  0.00  0.00    -0.464 OA
BRANCH  20  21
ATOM     21  C   UNL     1      10.145   2.878  23.770  0.00  0.00    +0.313 C 
ATOM     22  O   UNL     1      11.135   3.299  23.187  0.00  0.00    -0.250 OA
BRANCH  21  23
ATOM     23  C   UNL     1       8.905   3.722  24.082  0.00  0.00    +0.059 C 
ATOM     24  C   UNL     1       9.319   5.150  24.460  0.00  0.00    +0.022 C 
ATOM     25  C   UNL     1       8.156   3.091  25.268  0.00  0.00    +0.022 C 
ATOM     26  C   UNL     1       7.977   3.744  22.859  0.00  0.00    +0.022 C 
ENDBRANCH  21  23
ENDBRANCH  20  21
ENDBRANCH  19  20
ENDBRANCH  16  19
ENDBRANCH   1  16
BRANCH   1  27
ATOM     27  O   UNL     1      10.555  -2.013  22.731  0.00  0.00    -0.382 OA
ATOM     28  H   UNL     1      10.828  -1.406  22.019  0.00  0.00    +0.210 HD
ENDBRANCH   1  27
TORSDOF 13
ENDMDL
MODEL 5
REMARK VINA RESULT:      -5.4      3.476      6.570
REMARK  Name = 
REMARK  18 active torsions:
REMARK  status: ('A' for Active; 'I' for Inactive)
REMARK    1  A    between atoms: C_2  and  O_3
REMARK    2  A    between atoms: C_2  and  C_4
REMARK    3  A    between atoms: C_2  and  C_15
REMARK    4  A    between atoms: N_6  and  C_7
REMARK    5  A    between atoms: C_7  and  C_8
REMARK    6  A    between atoms: C_8  and  C_9
REMARK    7  A    between atoms: N_11  and  C_12
REMARK    8  A    between atoms: C_12  and  C_13
REMARK    9  A    between atoms: C_13  and  S_14
REMARK   10  A    between atoms: C_15  and  C_16
REMARK   11  A    between atoms: C_15  and  C_17
REMARK   12  A    between atoms: C_15  and  C_18
REMARK   13  A    between atoms: C_18  and  O_19
REMARK   14  A    between atoms: O_19  and  C_20
REMARK   15  A    between atoms: C_20  and  C_22
REMARK   16  A    between atoms: C_22  and  C_23
REMARK   17  A    between atoms: C_22  and  C_24
REMARK   18  A    between atoms: C_22  and  C_25
REMARK                            x       y       z     vdW  Elec       q    Type
REMARK                         _______ _______ _______ _____ _____    ______ ____
ROOT
ATOM      1  C   UNL     1      10.234   0.141  24.004  0.00  0.00    +0.209 C 
ENDROOT
BRANCH   1   2
ATOM      2  C   UNL     1      10.117  -1.350  23.614  0.00  0.00    +0.242 C 
ATOM      3  N   UNL     1       9.537  -2.139  24.590  0.00  0.00    -0.313 N 
ATOM      4  H   UNL     1       8.962  -1.650  25.271  0.00  0.00    +0.149 HD
ATOM      5  O   UNL     1      10.520  -1.817  22.554  0.00  0.00    -0.273 OA
BRANCH   3   6
ATOM      6  C   UNL     1       9.269  -3.542  24.324  0.00  0.00    +0.113 C 
BRANCH   6   7
ATOM      7  C   UNL     1       8.993  -4.344  25.595  0.00  0.00    +0.114 C 
BRANCH   7   8
ATOM      8  C   UNL     1       7.655  -5.041  25.518  0.00  0.00    +0.215 C 
ATOM      9  N   UNL     1       6.938  -4.709  24.387  0.00  0.00    -0.314 N 
ATOM     10  H   UNL     1       7.276  -3.971  23.781  0.00  0.00    +0.149 HD
ATOM     11  O   UNL     1       7.247  -5.825  26.365  0.00  0.00    -0.276 OA
BRANCH   9  12
ATOM     12  C   UNL     1       5.607  -5.243  24.148  0.00  0.00    +0.114 C 
BRANCH  12  13
ATOM     13  C   UNL     1       5.532  -6.160  22.927  0.00  0.00    +0.084 C 
BRANCH  13  14
ATOM     14  S   UNL     1       6.756  -5.693  21.660  0.00  0.00    -0.177 S 
ATOM     15  H   UNL     1       7.219  -6.932  21.441  0.00  0.00    +0.102 HD
ENDBRANCH  13  14
ENDBRANCH  12  13
ENDBRANCH   9  12
ENDBRANCH   7   8
ENDBRANCH   6   7
ENDBRANCH   3   6
ENDBRANCH   1   2
BRANCH   1  16
ATOM     16  C   UNL     1       9.284   1.104  23.228  0.00  0.00    +0.034 C 
ATOM     17  C   UNL     1       9.878   1.540  21.871  0.00  0.00    +0.017 C 
ATOM     18  C   UNL     1       8.995   2.360  24.080  0.00  0.00    +0.017 C 
BRANCH  16  19
ATOM     19  C   UNL     1       7.941   0.368  22.968  0.00  0.00    +0.241 C 
BRANCH  19  20
ATOM     20  O   UNL     1       7.175   0.234  24.184  0.00  0.00    -0.464 OA
BRANCH  20  21
ATOM     21  C   UNL     1       6.477  -0.927  24.348  0.00  0.00    +0.313 C 
ATOM     22  O   UNL     1       6.375  -1.799  23.495  0.00  0.00    -0.250 OA
BRANCH  21  23
ATOM     23  C   UNL     1       5.814  -0.988  25.727  0.00  0.00    +0.059 C 
ATOM     24  C   UNL     1       4.719  -2.063  25.741  0.00  0.00    +0.022 C 
ATOM     25  C   UNL     1       5.174   0.377  26.035  0.00  0.00    +0.022 C 
ATOM     26  C   UNL     1       6.873  -1.296  26.794  0.00  0.00    +0.022 C 
ENDBRANCH  21  23
ENDBRANCH  20  21
ENDBRANCH  19  20
ENDBRANCH  16  19
ENDBRANCH   1  16
BRANCH   1  27
ATOM     27  O   UNL     1      10.075   0.253  25.423  0.00  0.00    -0.382 OA
ATOM     28  H   UNL     1       9.378  -0.372  25.693  0.00  0.00    +0.210 HD
ENDBRANCH   1  27
TORSDOF 13
ENDMDL
MODEL 6
REMARK VINA RESULT:      -5.4      1.897      2.916
REMARK  Name = 
REMARK  18 active torsions:
REMARK  status: ('A' for Active; 'I' for Inactive)
REMARK    1  A    between atoms: C_2  and  O_3
REMARK    2  A    between atoms: C_2  and  C_4
REMARK    3  A    between atoms: C_2  and  C_15
REMARK    4  A    between atoms: N_6  and  C_7
REMARK    5  A    between atoms: C_7  and  C_8
REMARK    6  A    between atoms: C_8  and  C_9
REMARK    7  A    between atoms: N_11  and  C_12
REMARK    8  A    between atoms: C_12  and  C_13
REMARK    9  A    between atoms: C_13  and  S_14
REMARK   10  A    between atoms: C_15  and  C_16
REMARK   11  A    between atoms: C_15  and  C_17
REMARK   12  A    between atoms: C_15  and  C_18
REMARK   13  A    between atoms: C_18  and  O_19
REMARK   14  A    between atoms: O_19  and  C_20
REMARK   15  A    between atoms: C_20  and  C_22
REMARK   16  A    between atoms: C_22  and  C_23
REMARK   17  A    between atoms: C_22  and  C_24
REMARK   18  A    between atoms: C_22  and  C_25
REMARK                            x       y       z     vdW  Elec       q    Type
REMARK                         _______ _______ _______ _____ _____    ______ ____
ROOT
ATOM      1  C   UNL     1       9.914  -1.365  22.480  0.00  0.00    +0.209 C 
ENDROOT
BRANCH   1   2
ATOM      2  C   UNL     1      10.283   0.040  23.010  0.00  0.00    +0.242 C 
ATOM      3  N   UNL     1       9.888   1.071  22.178  0.00  0.00    -0.313 N 
ATOM      4  H   UNL     1       9.139   0.853  21.527  0.00  0.00    +0.149 HD
ATOM      5  O   UNL     1      10.893   0.243  24.054  0.00  0.00    -0.273 OA
BRANCH   3   6
ATOM      6  C   UNL     1      10.077   2.451  22.594  0.00  0.00    +0.113 C 
BRANCH   6   7
ATOM      7  C   UNL     1       8.852   3.027  23.305  0.00  0.00    +0.114 C 
BRANCH   7   8
ATOM      8  C   UNL     1       9.224   4.233  24.135  0.00  0.00    +0.215 C 
ATOM      9  N   UNL     1      10.178   5.028  23.536  0.00  0.00    -0.314 N 
ATOM     10  H   UNL     1      10.633   4.709  22.688  0.00  0.00    +0.149 HD
ATOM     11  O   UNL     1       8.728   4.486  25.225  0.00  0.00    -0.276 OA
BRANCH   9  12
ATOM     12  C   UNL     1      10.700   6.214  24.192  0.00  0.00    +0.114 C 
BRANCH  12  13
ATOM     13  C   UNL     1      12.226   6.232  24.292  0.00  0.00    +0.084 C 
BRANCH  13  14
ATOM     14  S   UNL     1      12.995   5.204  22.997  0.00  0.00    -0.177 S 
ATOM     15  H   UNL     1      13.078   6.172  22.073  0.00  0.00    +0.102 HD
ENDBRANCH  13  14
ENDBRANCH  12  13
ENDBRANCH   9  12
ENDBRANCH   7   8
ENDBRANCH   6   7
ENDBRANCH   3   6
ENDBRANCH   1   2
BRANCH   1  16
ATOM     16  C   UNL     1       8.789  -2.096  23.276  0.00  0.00    +0.034 C 
ATOM     17  C   UNL     1       7.937  -3.013  22.371  0.00  0.00    +0.017 C 
ATOM     18  C   UNL     1       7.867  -1.061  23.958  0.00  0.00    +0.017 C 
BRANCH  16  19
ATOM     19  C   UNL     1       9.451  -2.966  24.380  0.00  0.00    +0.241 C 
BRANCH  19  20
ATOM     20  O   UNL     1       8.683  -2.931  25.602  0.00  0.00    -0.464 OA
BRANCH  20  21
ATOM     21  C   UNL     1       8.496  -4.118  26.247  0.00  0.00    +0.313 C 
ATOM     22  O   UNL     1       9.401  -4.830  26.662  0.00  0.00    -0.250 OA
BRANCH  21  23
ATOM     23  C   UNL     1       7.008  -4.462  26.361  0.00  0.00    +0.059 C 
ATOM     24  C   UNL     1       6.187  -3.186  26.588  0.00  0.00    +0.022 C 
ATOM     25  C   UNL     1       6.802  -5.405  27.558  0.00  0.00    +0.022 C 
ATOM     26  C   UNL     1       6.545  -5.171  25.081  0.00  0.00    +0.022 C 
ENDBRANCH  21  23
ENDBRANCH  20  21
ENDBRANCH  19  20
ENDBRANCH  16  19
ENDBRANCH   1  16
BRANCH   1  27
ATOM     27  O   UNL     1       9.607  -1.259  21.086  0.00  0.00    -0.382 OA
ATOM     28  H   UNL     1      10.450  -1.181  20.602  0.00  0.00    +0.210 HD
ENDBRANCH   1  27
TORSDOF 13
ENDMDL
MODEL 7
REMARK VINA RESULT:      -5.4      1.929      2.587
REMARK  Name = 
REMARK  18 active torsions:
REMARK  status: ('A' for Active; 'I' for Inactive)
REMARK    1  A    between atoms: C_2  and  O_3
REMARK    2  A    between atoms: C_2  and  C_4
REMARK    3  A    between atoms: C_2  and  C_15
REMARK    4  A    between atoms: N_6  and  C_7
REMARK    5  A    between atoms: C_7  and  C_8
REMARK    6  A    between atoms: C_8  and  C_9
REMARK    7  A    between atoms: N_11  and  C_12
REMARK    8  A    between atoms: C_12  and  C_13
REMARK    9  A    between atoms: C_13  and  S_14
REMARK   10  A    between atoms: C_15  and  C_16
REMARK   11  A    between atoms: C_15  and  C_17
REMARK   12  A    between atoms: C_15  and  C_18
REMARK   13  A    between atoms: C_18  and  O_19
REMARK   14  A    between atoms: O_19  and  C_20
REMARK   15  A    between atoms: C_20  and  C_22
REMARK   16  A    between atoms: C_22  and  C_23
REMARK   17  A    between atoms: C_22  and  C_24
REMARK   18  A    between atoms: C_22  and  C_25
REMARK                            x       y       z     vdW  Elec       q    Type
REMARK                         _______ _______ _______ _____ _____    ______ ____
ROOT
ATOM      1  C   UNL     1       8.447  -2.530  26.317  0.00  0.00    +0.209 C 
ENDROOT
BRANCH   1   2
ATOM      2  C   UNL     1       9.205  -1.694  25.260  0.00  0.00    +0.242 C 
ATOM      3  N   UNL     1       9.688  -2.440  24.201  0.00  0.00    -0.313 N 
ATOM      4  H   UNL     1       9.231  -3.334  24.043  0.00  0.00    +0.149 HD
ATOM      5  O   UNL     1       9.397  -0.486  25.347  0.00  0.00    -0.273 OA
BRANCH   3   6
ATOM      6  C   UNL     1      10.333  -1.775  23.081  0.00  0.00    +0.113 C 
BRANCH   6   7
ATOM      7  C   UNL     1       9.340  -1.316  22.013  0.00  0.00    +0.114 C 
BRANCH   7   8
ATOM      8  C   UNL     1       9.382   0.184  21.841  0.00  0.00    +0.215 C 
ATOM      9  N   UNL     1      10.180   0.812  22.774  0.00  0.00    -0.314 N 
ATOM     10  H   UNL     1      10.566   0.277  23.543  0.00  0.00    +0.149 HD
ATOM     11  O   UNL     1       8.776   0.784  20.963  0.00  0.00    -0.276 OA
BRANCH   9  12
ATOM     12  C   UNL     1      10.320   2.259  22.803  0.00  0.00    +0.114 C 
BRANCH  12  13
ATOM     13  C   UNL     1       9.440   2.932  23.857  0.00  0.00    +0.084 C 
BRANCH  13  14
ATOM     14  S   UNL     1       7.944   3.665  23.113  0.00  0.00    -0.177 S 
ATOM     15  H   UNL     1       7.490   2.533  22.556  0.00  0.00    +0.102 HD
ENDBRANCH  13  14
ENDBRANCH  12  13
ENDBRANCH   9  12
ENDBRANCH   7   8
ENDBRANCH   6   7
ENDBRANCH   3   6
ENDBRANCH   1   2
BRANCH   1  16
ATOM     16  C   UNL     1       6.892  -2.446  26.233  0.00  0.00    +0.034 C 
ATOM     17  C   UNL     1       6.360  -1.054  26.642  0.00  0.00    +0.017 C 
ATOM     18  C   UNL     1       6.256  -3.517  27.148  0.00  0.00    +0.017 C 
BRANCH  16  19
ATOM     19  C   UNL     1       6.460  -2.732  24.769  0.00  0.00    +0.241 C 
BRANCH  19  20
ATOM     20  O   UNL     1       6.328  -4.149  24.531  0.00  0.00    -0.464 OA
BRANCH  20  21
ATOM     21  C   UNL     1       7.040  -4.668  23.489  0.00  0.00    +0.313 C 
ATOM     22  O   UNL     1       8.248  -4.862  23.505  0.00  0.00    -0.250 OA
BRANCH  21  23
ATOM     23  C   UNL     1       6.137  -4.950  22.284  0.00  0.00    +0.059 C 
ATOM     24  C   UNL     1       6.809  -5.959  21.344  0.00  0.00    +0.022 C 
ATOM     25  C   UNL     1       5.902  -3.637  21.517  0.00  0.00    +0.022 C 
ATOM     26  C   UNL     1       4.786  -5.494  22.769  0.00  0.00    +0.022 C 
ENDBRANCH  21  23
ENDBRANCH  20  21
ENDBRANCH  19  20
ENDBRANCH  16  19
ENDBRANCH   1  16
BRANCH   1  27
ATOM     27  O   UNL     1       8.919  -3.880  26.253  0.00  0.00    -0.382 OA
ATOM     28  H   UNL     1       8.303  -4.434  26.767  0.00  0.00    +0.210 HD
ENDBRANCH   1  27
TORSDOF 13
ENDMDL
MODEL 8
REMARK VINA RESULT:      -5.4      1.531      2.407
REMARK  Name = 
REMARK  18 active torsions:
REMARK  status: ('A' for Active; 'I' for Inactive)
REMARK    1  A    between atoms: C_2  and  O_3
REMARK    2  A    between atoms: C_2  and  C_4
REMARK    3  A    between atoms: C_2  and  C_15
REMARK    4  A    between atoms: N_6  and  C_7
REMARK    5  A    between atoms: C_7  and  C_8
REMARK    6  A    between atoms: C_8  and  C_9
REMARK    7  A    between atoms: N_11  and  C_12
REMARK    8  A    between atoms: C_12  and  C_13
REMARK    9  A    between atoms: C_13  and  S_14
REMARK   10  A    between atoms: C_15  and  C_16
REMARK   11  A    between atoms: C_15  and  C_17
REMARK   12  A    between atoms: C_15  and  C_18
REMARK   13  A    between atoms: C_18  and  O_19
REMARK   14  A    between atoms: O_19  and  C_20
REMARK   15  A    between atoms: C_20  and  C_22
REMARK   16  A    between atoms: C_22  and  C_23
REMARK   17  A    between atoms: C_22  and  C_24
REMARK   18  A    between atoms: C_22  and  C_25
REMARK                            x       y       z     vdW  Elec       q    Type
REMARK                         _______ _______ _______ _____ _____    ______ ____
ROOT
ATOM      1  C   UNL     1       9.849   0.048  22.381  0.00  0.00    +0.209 C 
ENDROOT
BRANCH   1   2
ATOM      2  C   UNL     1       9.434   1.533  22.263  0.00  0.00    +0.242 C 
ATOM      3  N   UNL     1       8.146   1.718  21.797  0.00  0.00    -0.313 N 
ATOM      4  H   UNL     1       7.517   0.927  21.907  0.00  0.00    +0.149 HD
ATOM      5  O   UNL     1      10.173   2.476  22.525  0.00  0.00    -0.273 OA
BRANCH   3   6
ATOM      6  C   UNL     1       7.584   3.057  21.731  0.00  0.00    +0.113 C 
BRANCH   6   7
ATOM      7  C   UNL     1       6.888   3.471  23.027  0.00  0.00    +0.114 C 
BRANCH   7   8
ATOM      8  C   UNL     1       7.426   4.787  23.536  0.00  0.00    +0.215 C 
ATOM      9  N   UNL     1       8.636   5.130  22.971  0.00  0.00    -0.314 N 
ATOM     10  H   UNL     1       9.118   4.463  22.380  0.00  0.00    +0.149 HD
ATOM     11  O   UNL     1       6.850   5.483  24.362  0.00  0.00    -0.276 OA
BRANCH   9  12
ATOM     12  C   UNL     1       9.340   6.341  23.359  0.00  0.00    +0.114 C 
BRANCH  12  13
ATOM     13  C   UNL     1      10.448   6.097  24.385  0.00  0.00    +0.084 C 
BRANCH  13  14
ATOM     14  S   UNL     1      12.000   5.573  23.584  0.00  0.00    -0.177 S 
ATOM     15  H   UNL     1      11.432   5.084  22.473  0.00  0.00    +0.102 HD
ENDBRANCH  13  14
ENDBRANCH  12  13
ENDBRANCH   9  12
ENDBRANCH   7   8
ENDBRANCH   6   7
ENDBRANCH   3   6
ENDBRANCH   1   2
BRANCH   1  16
ATOM     16  C   UNL     1       9.414  -0.655  23.703  0.00  0.00    +0.034 C 
ATOM     17  C   UNL     1       7.921  -0.423  24.023  0.00  0.00    +0.017 C 
ATOM     18  C   UNL     1      10.269  -0.138  24.882  0.00  0.00    +0.017 C 
BRANCH  16  19
ATOM     19  C   UNL     1       9.657  -2.182  23.553  0.00  0.00    +0.241 C 
BRANCH  19  20
ATOM     20  O   UNL     1       8.485  -2.850  23.042  0.00  0.00    -0.464 OA
BRANCH  20  21
ATOM     21  C   UNL     1       8.242  -4.110  23.505  0.00  0.00    +0.313 C 
ATOM     22  O   UNL     1       8.977  -4.720  24.270  0.00  0.00    -0.250 OA
BRANCH  21  23
ATOM     23  C   UNL     1       6.943  -4.677  22.922  0.00  0.00    +0.059 C 
ATOM     24  C   UNL     1       6.250  -3.622  22.051  0.00  0.00    +0.022 C 
ATOM     25  C   UNL     1       6.004  -5.064  24.077  0.00  0.00    +0.022 C 
ATOM     26  C   UNL     1       7.257  -5.929  22.092  0.00  0.00    +0.022 C 
ENDBRANCH  21  23
ENDBRANCH  20  21
ENDBRANCH  19  20
ENDBRANCH  16  19
ENDBRANCH   1  16
BRANCH   1  27
ATOM     27  O   UNL     1       9.381  -0.648  21.220  0.00  0.00    -0.382 OA
ATOM     28  H   UNL     1       8.419  -0.770  21.315  0.00  0.00    +0.210 HD
ENDBRANCH   1  27
TORSDOF 13
ENDMDL
MODEL 9
REMARK VINA RESULT:      -5.2      2.338      2.725
REMARK  Name = 
REMARK  18 active torsions:
REMARK  status: ('A' for Active; 'I' for Inactive)
REMARK    1  A    between atoms: C_2  and  O_3
REMARK    2  A    between atoms: C_2  and  C_4
REMARK    3  A    between atoms: C_2  and  C_15
REMARK    4  A    between atoms: N_6  and  C_7
REMARK    5  A    between atoms: C_7  and  C_8
REMARK    6  A    between atoms: C_8  and  C_9
REMARK    7  A    between atoms: N_11  and  C_12
REMARK    8  A    between atoms: C_12  and  C_13
REMARK    9  A    between atoms: C_13  and  S_14
REMARK   10  A    between atoms: C_15  and  C_16
REMARK   11  A    between atoms: C_15  and  C_17
REMARK   12  A    between atoms: C_15  and  C_18
REMARK   13  A    between atoms: C_18  and  O_19
REMARK   14  A    between atoms: O_19  and  C_20
REMARK   15  A    between atoms: C_20  and  C_22
REMARK   16  A    between atoms: C_22  and  C_23
REMARK   17  A    between atoms: C_22  and  C_24
REMARK   18  A    between atoms: C_22  and  C_25
REMARK                            x       y       z     vdW  Elec       q    Type
REMARK                         _______ _______ _______ _____ _____    ______ ____
ROOT
ATOM      1  C   UNL     1       9.542  -2.420  24.470  0.00  0.00    +0.209 C 
ENDROOT
BRANCH   1   2
ATOM      2  C   UNL     1       9.263  -1.724  23.119  0.00  0.00    +0.242 C 
ATOM      3  N   UNL     1       9.671  -0.403  23.075  0.00  0.00    -0.313 N 
ATOM      4  H   UNL     1      10.381  -0.137  23.752  0.00  0.00    +0.149 HD
ATOM      5  O   UNL     1       8.708  -2.265  22.168  0.00  0.00    -0.273 OA
BRANCH   3   6
ATOM      6  C   UNL     1       9.566   0.348  21.836  0.00  0.00    +0.113 C 
BRANCH   6   7
ATOM      7  C   UNL     1      10.141   1.760  21.949  0.00  0.00    +0.114 C 
BRANCH   7   8
ATOM      8  C   UNL     1       9.567   2.486  23.143  0.00  0.00    +0.215 C 
ATOM      9  N   UNL     1       8.744   3.535  22.792  0.00  0.00    -0.314 N 
ATOM     10  H   UNL     1       8.678   3.815  21.821  0.00  0.00    +0.149 HD
ATOM     11  O   UNL     1       9.800   2.175  24.303  0.00  0.00    -0.276 OA
BRANCH   9  12
ATOM     12  C   UNL     1       8.127   4.385  23.797  0.00  0.00    +0.114 C 
BRANCH  12  13
ATOM     13  C   UNL     1       6.611   4.211  23.891  0.00  0.00    +0.084 C 
BRANCH  13  14
ATOM     14  S   UNL     1       5.956   3.253  22.484  0.00  0.00    -0.177 S 
ATOM     15  H   UNL     1       6.674   3.874  21.539  0.00  0.00    +0.102 HD
ENDBRANCH  13  14
ENDBRANCH  12  13
ENDBRANCH   9  12
ENDBRANCH   7   8
ENDBRANCH   6   7
ENDBRANCH   3   6
ENDBRANCH   1   2
BRANCH   1  16
ATOM     16  C   UNL     1       8.432  -2.235  25.550  0.00  0.00    +0.034 C 
ATOM     17  C   UNL     1       7.030  -2.073  24.922  0.00  0.00    +0.017 C 
ATOM     18  C   UNL     1       8.742  -0.995  26.419  0.00  0.00    +0.017 C 
BRANCH  16  19
ATOM     19  C   UNL     1       8.421  -3.488  26.468  0.00  0.00    +0.241 C 
BRANCH  19  20
ATOM     20  O   UNL     1       7.635  -4.552  25.891  0.00  0.00    -0.464 OA
BRANCH  20  21
ATOM     21  C   UNL     1       6.953  -5.354  26.758  0.00  0.00    +0.313 C 
ATOM     22  O   UNL     1       7.442  -5.866  27.757  0.00  0.00    -0.250 OA
BRANCH  21  23
ATOM     23  C   UNL     1       5.504  -5.558  26.307  0.00  0.00    +0.059 C 
ATOM     24  C   UNL     1       5.444  -5.736  24.784  0.00  0.00    +0.022 C 
ATOM     25  C   UNL     1       4.681  -4.317  26.695  0.00  0.00    +0.022 C 
ATOM     26  C   UNL     1       4.915  -6.788  27.009  0.00  0.00    +0.022 C 
ENDBRANCH  21  23
ENDBRANCH  20  21
ENDBRANCH  19  20
ENDBRANCH  16  19
ENDBRANCH   1  16
BRANCH   1  27
ATOM     27  O   UNL     1       9.828  -3.800  24.220  0.00  0.00    -0.382 OA
ATOM     28  H   UNL     1      10.511  -3.840  23.526  0.00  0.00    +0.210 HD
ENDBRANCH   1  27
TORSDOF 13
ENDMDL
