MODEL 1
REMARK VINA RESULT:      -6.8      0.000      0.000
REMARK  Name = 
REMARK  13 active torsions:
REMARK  status: ('A' for Active; 'I' for Inactive)
REMARK    1  A    between atoms: C_1  and  C_2
REMARK    2  A    between atoms: C_2  and  C_3
REMARK    3  A    between atoms: C_3  and  C_4
REMARK    4  A    between atoms: C_8  and  C_31
REMARK    5  A    between atoms: C_12  and  O_13
REMARK    6  A    between atoms: O_13  and  C_14
REMARK    7  A    between atoms: C_14  and  C_15
REMARK    8  A    between atoms: C_15  and  C_16
REMARK    9  A    between atoms: C_16  and  O_17
REMARK   10  A    between atoms: O_17  and  C_18
REMARK   11  A    between atoms: N_24  and  C_25
REMARK   12  A    between atoms: C_25  and  C_26
REMARK   13  A    between atoms: C_26  and  O_27
REMARK                            x       y       z     vdW  Elec       q    Type
REMARK                         _______ _______ _______ _____ _____    ______ ____
ROOT
ATOM      1  C   UNL     1       9.522   1.781  24.196  0.00  0.00    +0.232 C 
ENDROOT
BRANCH   1   2
ATOM      2  O   UNL     1      10.324   0.803  24.857  0.00  0.00    -0.491 OA
BRANCH   2   4
ATOM      3  C   UNL     1       9.825  -1.395  24.173  0.00  0.00    +0.040 A 
ATOM      4  C   UNL     1       9.739  -0.398  25.174  0.00  0.00    +0.127 A 
ATOM      5  C   UNL     1       9.098  -0.644  26.397  0.00  0.00    +0.047 A 
ATOM      6  C   UNL     1       8.506  -1.880  26.676  0.00  0.00    +0.017 A 
ATOM      7  C   UNL     1       8.569  -2.880  25.699  0.00  0.00    +0.054 A 
ATOM      8  C   UNL     1       8.124  -4.221  25.573  0.00  0.00    +0.193 A 
ATOM      9  N   UNL     1       8.465  -4.733  24.379  0.00  0.00    -0.073 NA
ATOM     10  O   UNL     1       9.144  -3.723  23.716  0.00  0.00    -0.354 OA
ATOM     11  C   UNL     1       9.210  -2.612  24.503  0.00  0.00    +0.174 A 
BRANCH   8  12
ATOM     12  C   UNL     1       7.382  -4.997  26.603  0.00  0.00    +0.438 C 
ATOM     13  F   UNL     1       8.230  -5.646  27.447  0.00  0.00    -0.164 F 
ATOM     14  F   UNL     1       6.605  -5.962  26.037  0.00  0.00    -0.164 F 
ATOM     15  F   UNL     1       6.560  -4.245  27.379  0.00  0.00    -0.164 F 
ENDBRANCH   8  12
BRANCH   3  16
ATOM     16  C   UNL     1      10.517  -1.167  22.850  0.00  0.00    +0.042 C 
BRANCH  16  18
ATOM     17  C   UNL     1       9.144   0.330  21.302  0.00  0.00    +0.004 C 
ATOM     18  C   UNL     1       9.588  -1.087  21.632  0.00  0.00    +0.001 C 
ENDBRANCH  16  18
ENDBRANCH   3  16
ENDBRANCH   2   4
ENDBRANCH   1   2
BRANCH   1  19
ATOM     19  C   UNL     1       8.369   2.168  25.115  0.00  0.00    +0.082 C 
BRANCH  19  20
ATOM     20  C   UNL     1       7.014   1.971  24.440  0.00  0.00    +0.232 C 
BRANCH  20  21
ATOM     21  O   UNL     1       6.161   1.231  25.319  0.00  0.00    -0.492 OA
BRANCH  21  22
ATOM     22  C   UNL     1       5.867  -0.058  24.963  0.00  0.00    +0.121 A 
ATOM     23  C   UNL     1       5.124  -0.780  25.897  0.00  0.00    +0.048 A 
ATOM     24  C   UNL     1       4.727  -2.108  25.666  0.00  0.00    +0.030 A 
ATOM     25  C   UNL     1       5.102  -2.706  24.450  0.00  0.00    +0.050 A 
ATOM     26  N   UNL     1       4.852  -3.952  23.910  0.00  0.00    -0.336 N 
ATOM     27  C   UNL     1       5.440  -4.055  22.669  0.00  0.00    +0.087 A 
ATOM     28  C   UNL     1       6.058  -2.860  22.394  0.00  0.00    +0.028 A 
ATOM     29  C   UNL     1       5.855  -1.998  23.503  0.00  0.00    +0.003 A 
ATOM     30  C   UNL     1       6.235  -0.665  23.760  0.00  0.00    +0.055 A 
BRANCH  26  31
ATOM     31  C   UNL     1       4.008  -5.000  24.473  0.00  0.00    +0.242 C 
BRANCH  31  32
ATOM     32  C   UNL     1       3.593  -6.101  23.529  0.00  0.00    +0.325 C 
ATOM     33  O   UNL     1       2.754  -5.912  22.654  0.00  0.00    -0.249 OA
BRANCH  32  34
ATOM     34  O   UNL     1       4.161  -7.315  23.685  0.00  0.00    -0.479 OA
ATOM     35  H   UNL     1       3.862  -7.838  24.455  0.00  0.00    +0.295 HD
ENDBRANCH  32  34
ENDBRANCH  31  32
ENDBRANCH  26  31
ENDBRANCH  21  22
ENDBRANCH  20  21
ENDBRANCH  19  20
ENDBRANCH   1  19
TORSDOF 12
ENDMDL
MODEL 2
REMARK VINA RESULT:      -6.7      1.730      3.666
REMARK  Name = 
REMARK  13 active torsions:
REMARK  status: ('A' for Active; 'I' for Inactive)
REMARK    1  A    between atoms: C_1  and  C_2
REMARK    2  A    between atoms: C_2  and  C_3
REMARK    3  A    between atoms: C_3  and  C_4
REMARK    4  A    between atoms: C_8  and  C_31
REMARK    5  A    between atoms: C_12  and  O_13
REMARK    6  A    between atoms: O_13  and  C_14
REMARK    7  A    between atoms: C_14  and  C_15
REMARK    8  A    between atoms: C_15  and  C_16
REMARK    9  A    between atoms: C_16  and  O_17
REMARK   10  A    between atoms: O_17  and  C_18
REMARK   11  A    between atoms: N_24  and  C_25
REMARK   12  A    between atoms: C_25  and  C_26
REMARK   13  A    between atoms: C_26  and  O_27
REMARK                            x       y       z     vdW  Elec       q    Type
REMARK                         _______ _______ _______ _____ _____    ______ ____
ROOT
ATOM      1  C   UNL     1      10.419   1.563  24.134  0.00  0.00    +0.232 C 
ENDROOT
BRANCH   1   2
ATOM      2  O   UNL     1       9.248   1.911  24.870  0.00  0.00    -0.491 OA
BRANCH   2   4
ATOM      3  C   UNL     1       7.077   1.002  24.981  0.00  0.00    +0.040 A 
ATOM      4  C   UNL     1       8.447   0.891  25.320  0.00  0.00    +0.127 A 
ATOM      5  C   UNL     1       8.929  -0.197  26.063  0.00  0.00    +0.047 A 
ATOM      6  C   UNL     1       8.078  -1.212  26.511  0.00  0.00    +0.017 A 
ATOM      7  C   UNL     1       6.717  -1.121  26.196  0.00  0.00    +0.054 A 
ATOM      8  C   UNL     1       5.553  -1.896  26.438  0.00  0.00    +0.193 A 
ATOM      9  N   UNL     1       4.469  -1.323  25.890  0.00  0.00    -0.073 NA
ATOM     10  O   UNL     1       4.922  -0.165  25.280  0.00  0.00    -0.354 OA
ATOM     11  C   UNL     1       6.268  -0.040  25.459  0.00  0.00    +0.174 A 
BRANCH   8  12
ATOM     12  C   UNL     1       5.498  -3.181  27.185  0.00  0.00    +0.438 C 
ATOM     13  F   UNL     1       4.920  -3.024  28.408  0.00  0.00    -0.164 F 
ATOM     14  F   UNL     1       6.746  -3.675  27.421  0.00  0.00    -0.164 F 
ATOM     15  F   UNL     1       4.807  -4.162  26.551  0.00  0.00    -0.164 F 
ENDBRANCH   8  12
BRANCH   3  16
ATOM     16  C   UNL     1       6.527   2.153  24.172  0.00  0.00    +0.042 C 
BRANCH  16  18
ATOM     17  C   UNL     1       6.831   3.128  21.831  0.00  0.00    +0.004 C 
ATOM     18  C   UNL     1       6.452   1.910  22.659  0.00  0.00    +0.001 C 
ENDBRANCH  16  18
ENDBRANCH   3  16
ENDBRANCH   2   4
ENDBRANCH   1   2
BRANCH   1  19
ATOM     19  C   UNL     1      10.195   1.916  22.668  0.00  0.00    +0.082 C 
BRANCH  19  20
ATOM     20  C   UNL     1       9.751   0.702  21.853  0.00  0.00    +0.232 C 
BRANCH  20  21
ATOM     21  O   UNL     1      10.454  -0.452  22.322  0.00  0.00    -0.492 OA
BRANCH  21  22
ATOM     22  C   UNL     1       9.700  -1.486  22.808  0.00  0.00    +0.121 A 
ATOM     23  C   UNL     1       8.404  -1.571  22.296  0.00  0.00    +0.048 A 
ATOM     24  C   UNL     1       7.517  -2.589  22.683  0.00  0.00    +0.030 A 
ATOM     25  C   UNL     1       7.970  -3.540  23.614  0.00  0.00    +0.050 A 
ATOM     26  N   UNL     1       7.377  -4.659  24.166  0.00  0.00    -0.336 N 
ATOM     27  C   UNL     1       8.248  -5.274  25.037  0.00  0.00    +0.087 A 
ATOM     28  C   UNL     1       9.421  -4.561  25.035  0.00  0.00    +0.028 A 
ATOM     29  C   UNL     1       9.265  -3.466  24.144  0.00  0.00    +0.003 A 
ATOM     30  C   UNL     1      10.135  -2.436  23.735  0.00  0.00    +0.055 A 
BRANCH  26  31
ATOM     31  C   UNL     1       6.071  -5.215  23.831  0.00  0.00    +0.242 C 
BRANCH  31  32
ATOM     32  C   UNL     1       5.974  -5.943  22.513  0.00  0.00    +0.325 C 
ATOM     33  O   UNL     1       6.975  -6.363  21.939  0.00  0.00    -0.249 OA
BRANCH  32  34
ATOM     34  O   UNL     1       4.751  -6.104  21.967  0.00  0.00    -0.479 OA
ATOM     35  H   UNL     1       4.589  -5.643  21.121  0.00  0.00    +0.295 HD
ENDBRANCH  32  34
ENDBRANCH  31  32
ENDBRANCH  26  31
ENDBRANCH  21  22
ENDBRANCH  20  21
ENDBRANCH  19  20
ENDBRANCH   1  19
TORSDOF 12
ENDMDL
MODEL 3
REMARK VINA RESULT:      -6.7      2.970      4.679
REMARK  Name = 
REMARK  13 active torsions:
REMARK  status: ('A' for Active; 'I' for Inactive)
REMARK    1  A    between atoms: C_1  and  C_2
REMARK    2  A    between atoms: C_2  and  C_3
REMARK    3  A    between atoms: C_3  and  C_4
REMARK    4  A    between atoms: C_8  and  C_31
REMARK    5  A    between atoms: C_12  and  O_13
REMARK    6  A    between atoms: O_13  and  C_14
REMARK    7  A    between atoms: C_14  and  C_15
REMARK    8  A    between atoms: C_15  and  C_16
REMARK    9  A    between atoms: C_16  and  O_17
REMARK   10  A    between atoms: O_17  and  C_18
REMARK   11  A    between atoms: N_24  and  C_25
REMARK   12  A    between atoms: C_25  and  C_26
REMARK   13  A    between atoms: C_26  and  O_27
REMARK                            x       y       z     vdW  Elec       q    Type
REMARK                         _______ _______ _______ _____ _____    ______ ____
ROOT
ATOM      1  C   UNL     1       6.040   4.569  22.444  0.00  0.00    +0.232 C 
ENDROOT
BRANCH   1   2
ATOM      2  O   UNL     1       7.460   4.462  22.350  0.00  0.00    -0.491 OA
BRANCH   2   4
ATOM      3  C   UNL     1       8.992   3.132  23.547  0.00  0.00    +0.040 A 
ATOM      4  C   UNL     1       8.023   3.222  22.519  0.00  0.00    +0.127 A 
ATOM      5  C   UNL     1       7.677   2.106  21.742  0.00  0.00    +0.047 A 
ATOM      6  C   UNL     1       8.282   0.861  21.941  0.00  0.00    +0.017 A 
ATOM      7  C   UNL     1       9.250   0.748  22.946  0.00  0.00    +0.054 A 
ATOM      8  C   UNL     1      10.075  -0.283  23.465  0.00  0.00    +0.193 A 
ATOM      9  N   UNL     1      10.848   0.174  24.463  0.00  0.00    -0.073 NA
ATOM     10  O   UNL     1      10.527   1.515  24.605  0.00  0.00    -0.354 OA
ATOM     11  C   UNL     1       9.569   1.863  23.699  0.00  0.00    +0.174 A 
BRANCH   8  12
ATOM     12  C   UNL     1      10.105  -1.696  23.001  0.00  0.00    +0.438 C 
ATOM     13  F   UNL     1      10.301  -2.559  24.037  0.00  0.00    -0.164 F 
ATOM     14  F   UNL     1      11.132  -1.915  22.132  0.00  0.00    -0.164 F 
ATOM     15  F   UNL     1       8.972  -2.097  22.370  0.00  0.00    -0.164 F 
ENDBRANCH   8  12
BRANCH   3  16
ATOM     16  C   UNL     1       9.379   4.310  24.410  0.00  0.00    +0.042 C 
BRANCH  16  18
ATOM     17  C   UNL     1      11.707   4.652  23.416  0.00  0.00    +0.004 C 
ATOM     18  C   UNL     1      10.372   5.289  23.769  0.00  0.00    +0.001 C 
ENDBRANCH  16  18
ENDBRANCH   3  16
ENDBRANCH   2   4
ENDBRANCH   1   2
BRANCH   1  19
ATOM     19  C   UNL     1       5.646   4.528  23.916  0.00  0.00    +0.082 C 
BRANCH  19  20
ATOM     20  C   UNL     1       5.190   3.134  24.344  0.00  0.00    +0.232 C 
BRANCH  20  21
ATOM     21  O   UNL     1       6.002   2.697  25.437  0.00  0.00    -0.492 OA
BRANCH  21  22
ATOM     22  C   UNL     1       6.383   1.381  25.443  0.00  0.00    +0.121 A 
ATOM     23  C   UNL     1       7.366   1.049  26.376  0.00  0.00    +0.048 A 
ATOM     24  C   UNL     1       7.845  -0.264  26.516  0.00  0.00    +0.030 A 
ATOM     25  C   UNL     1       7.303  -1.256  25.681  0.00  0.00    +0.050 A 
ATOM     26  N   UNL     1       7.523  -2.617  25.586  0.00  0.00    -0.336 N 
ATOM     27  C   UNL     1       6.728  -3.156  24.600  0.00  0.00    +0.087 A 
ATOM     28  C   UNL     1       5.973  -2.143  24.064  0.00  0.00    +0.028 A 
ATOM     29  C   UNL     1       6.319  -0.940  24.733  0.00  0.00    +0.003 A 
ATOM     30  C   UNL     1       5.855   0.386  24.618  0.00  0.00    +0.055 A 
BRANCH  26  31
ATOM     31  C   UNL     1       8.373  -3.430  26.449  0.00  0.00    +0.242 C 
BRANCH  31  32
ATOM     32  C   UNL     1       7.788  -4.738  26.920  0.00  0.00    +0.325 C 
ATOM     33  O   UNL     1       6.884  -4.772  27.749  0.00  0.00    -0.249 OA
BRANCH  32  34
ATOM     34  O   UNL     1       8.302  -5.879  26.417  0.00  0.00    -0.479 OA
ATOM     35  H   UNL     1       8.057  -6.096  25.496  0.00  0.00    +0.295 HD
ENDBRANCH  32  34
ENDBRANCH  31  32
ENDBRANCH  26  31
ENDBRANCH  21  22
ENDBRANCH  20  21
ENDBRANCH  19  20
ENDBRANCH   1  19
TORSDOF 12
ENDMDL
MODEL 4
REMARK VINA RESULT:      -6.7      3.231      6.644
REMARK  Name = 
REMARK  13 active torsions:
REMARK  status: ('A' for Active; 'I' for Inactive)
REMARK    1  A    between atoms: C_1  and  C_2
REMARK    2  A    between atoms: C_2  and  C_3
REMARK    3  A    between atoms: C_3  and  C_4
REMARK    4  A    between atoms: C_8  and  C_31
REMARK    5  A    between atoms: C_12  and  O_13
REMARK    6  A    between atoms: O_13  and  C_14
REMARK    7  A    between atoms: C_14  and  C_15
REMARK    8  A    between atoms: C_15  and  C_16
REMARK    9  A    between atoms: C_16  and  O_17
REMARK   10  A    between atoms: O_17  and  C_18
REMARK   11  A    between atoms: N_24  and  C_25
REMARK   12  A    between atoms: C_25  and  C_26
REMARK   13  A    between atoms: C_26  and  O_27
REMARK                            x       y       z     vdW  Elec       q    Type
REMARK                         _______ _______ _______ _____ _____    ______ ____
ROOT
ATOM      1  C   UNL     1       4.344  -4.724  24.702  0.00  0.00    +0.232 C 
ENDROOT
BRANCH   1   2
ATOM      2  O   UNL     1       5.656  -5.063  24.255  0.00  0.00    -0.491 OA
BRANCH   2   4
ATOM      3  C   UNL     1       7.808  -4.166  23.920  0.00  0.00    +0.040 A 
ATOM      4  C   UNL     1       6.416  -4.071  23.687  0.00  0.00    +0.127 A 
ATOM      5  C   UNL     1       5.874  -3.027  22.922  0.00  0.00    +0.047 A 
ATOM      6  C   UNL     1       6.683  -2.030  22.368  0.00  0.00    +0.017 A 
ATOM      7  C   UNL     1       8.063  -2.097  22.592  0.00  0.00    +0.054 A 
ATOM      8  C   UNL     1       9.200  -1.330  22.230  0.00  0.00    +0.193 A 
ATOM      9  N   UNL     1      10.324  -1.865  22.734  0.00  0.00    -0.073 NA
ATOM     10  O   UNL     1       9.925  -2.995  23.429  0.00  0.00    -0.354 OA
ATOM     11  C   UNL     1       8.572  -3.139  23.346  0.00  0.00    +0.174 A 
BRANCH   8  12
ATOM     12  C   UNL     1       9.194  -0.097  21.397  0.00  0.00    +0.438 C 
ATOM     13  F   UNL     1       8.091   0.665  21.640  0.00  0.00    -0.164 F 
ATOM     14  F   UNL     1       9.160  -0.392  20.068  0.00  0.00    -0.164 F 
ATOM     15  F   UNL     1      10.271   0.706  21.588  0.00  0.00    -0.164 F 
ENDBRANCH   8  12
BRANCH   3  16
ATOM     16  C   UNL     1       8.427  -5.283  24.728  0.00  0.00    +0.042 C 
BRANCH  16  18
ATOM     17  C   UNL     1       7.664  -5.293  27.166  0.00  0.00    +0.004 C 
ATOM     18  C   UNL     1       8.764  -4.927  26.182  0.00  0.00    +0.001 C 
ENDBRANCH  16  18
ENDBRANCH   3  16
ENDBRANCH   2   4
ENDBRANCH   1   2
BRANCH   1  19
ATOM     19  C   UNL     1       4.418  -4.321  26.170  0.00  0.00    +0.082 C 
BRANCH  19  20
ATOM     20  C   UNL     1       4.403  -2.804  26.345  0.00  0.00    +0.232 C 
BRANCH  20  21
ATOM     21  O   UNL     1       5.617  -2.399  26.985  0.00  0.00    -0.492 OA
BRANCH  21  22
ATOM     22  C   UNL     1       6.354  -1.427  26.363  0.00  0.00    +0.121 A 
ATOM     23  C   UNL     1       5.613  -0.450  25.698  0.00  0.00    +0.048 A 
ATOM     24  C   UNL     1       6.227   0.623  25.031  0.00  0.00    +0.030 A 
ATOM     25  C   UNL     1       7.631   0.693  25.047  0.00  0.00    +0.050 A 
ATOM     26  N   UNL     1       8.523   1.613  24.530  0.00  0.00    -0.336 N 
ATOM     27  C   UNL     1       9.814   1.233  24.824  0.00  0.00    +0.087 A 
ATOM     28  C   UNL     1       9.758   0.071  25.552  0.00  0.00    +0.028 A 
ATOM     29  C   UNL     1       8.392  -0.283  25.705  0.00  0.00    +0.003 A 
ATOM     30  C   UNL     1       7.748  -1.347  26.369  0.00  0.00    +0.055 A 
BRANCH  26  31
ATOM     31  C   UNL     1       8.201   2.870  23.864  0.00  0.00    +0.242 C 
BRANCH  31  32
ATOM     32  C   UNL     1       8.969   4.084  24.325  0.00  0.00    +0.325 C 
ATOM     33  O   UNL     1       8.672   4.674  25.359  0.00  0.00    -0.249 OA
BRANCH  32  34
ATOM     34  O   UNL     1       9.986   4.519  23.553  0.00  0.00    -0.479 OA
ATOM     35  H   UNL     1       9.773   4.701  22.617  0.00  0.00    +0.295 HD
ENDBRANCH  32  34
ENDBRANCH  31  32
ENDBRANCH  26  31
ENDBRANCH  21  22
ENDBRANCH  20  21
ENDBRANCH  19  20
ENDBRANCH   1  19
TORSDOF 12
ENDMDL
MODEL 5
REMARK VINA RESULT:      -6.5      3.363      6.304
REMARK  Name = 
REMARK  13 active torsions:
REMARK  status: ('A' for Active; 'I' for Inactive)
REMARK    1  A    between atoms: C_1  and  C_2
REMARK    2  A    between atoms: C_2  and  C_3
REMARK    3  A    between atoms: C_3  and  C_4
REMARK    4  A    between atoms: C_8  and  C_31
REMARK    5  A    between atoms: C_12  and  O_13
REMARK    6  A    between atoms: O_13  and  C_14
REMARK    7  A    between atoms: C_14  and  C_15
REMARK    8  A    between atoms: C_15  and  C_16
REMARK    9  A    between atoms: C_16  and  O_17
REMARK   10  A    between atoms: O_17  and  C_18
REMARK   11  A    between atoms: N_24  and  C_25
REMARK   12  A    between atoms: C_25  and  C_26
REMARK   13  A    between atoms: C_26  and  O_27
REMARK                            x       y       z     vdW  Elec       q    Type
REMARK                         _______ _______ _______ _____ _____    ______ ____
ROOT
ATOM      1  C   UNL     1       6.280  -4.178  27.288  0.00  0.00    +0.232 C 
ENDROOT
BRANCH   1   2
ATOM      2  O   UNL     1       7.504  -4.458  26.609  0.00  0.00    -0.491 OA
BRANCH   2   4
ATOM      3  C   UNL     1       8.650  -3.624  24.728  0.00  0.00    +0.040 A 
ATOM      4  C   UNL     1       8.179  -3.405  26.044  0.00  0.00    +0.127 A 
ATOM      5  C   UNL     1       8.399  -2.187  26.704  0.00  0.00    +0.047 A 
ATOM      6  C   UNL     1       9.100  -1.141  26.096  0.00  0.00    +0.017 A 
ATOM      7  C   UNL     1       9.583  -1.336  24.797  0.00  0.00    +0.054 A 
ATOM      8  C   UNL     1      10.312  -0.574  23.848  0.00  0.00    +0.193 A 
ATOM      9  N   UNL     1      10.514  -1.273  22.720  0.00  0.00    -0.073 NA
ATOM     10  O   UNL     1       9.910  -2.503  22.925  0.00  0.00    -0.354 OA
ATOM     11  C   UNL     1       9.351  -2.545  24.168  0.00  0.00    +0.174 A 
BRANCH   8  12
ATOM     12  C   UNL     1      10.799   0.820  24.034  0.00  0.00    +0.438 C 
ATOM     13  F   UNL     1      12.045   0.846  24.582  0.00  0.00    -0.164 F 
ATOM     14  F   UNL     1       9.999   1.518  24.888  0.00  0.00    -0.164 F 
ATOM     15  F   UNL     1      10.864   1.542  22.887  0.00  0.00    -0.164 F 
ENDBRANCH   8  12
BRANCH   3  16
ATOM     16  C   UNL     1       8.421  -4.919  23.983  0.00  0.00    +0.042 C 
BRANCH  16  18
ATOM     17  C   UNL     1       6.168  -5.737  23.102  0.00  0.00    +0.004 C 
ATOM     18  C   UNL     1       7.379  -4.850  22.860  0.00  0.00    +0.001 C 
ENDBRANCH  16  18
ENDBRANCH   3  16
ENDBRANCH   2   4
ENDBRANCH   1   2
BRANCH   1  19
ATOM     19  C   UNL     1       5.168  -4.051  26.253  0.00  0.00    +0.082 C 
BRANCH  19  20
ATOM     20  C   UNL     1       4.919  -2.595  25.864  0.00  0.00    +0.232 C 
BRANCH  20  21
ATOM     21  O   UNL     1       5.345  -2.399  24.512  0.00  0.00    -0.492 OA
BRANCH  21  22
ATOM     22  C   UNL     1       5.850  -1.167  24.191  0.00  0.00    +0.121 A 
ATOM     23  C   UNL     1       5.669  -0.178  25.160  0.00  0.00    +0.048 A 
ATOM     24  C   UNL     1       6.148   1.131  24.984  0.00  0.00    +0.030 A 
ATOM     25  C   UNL     1       6.827   1.430  23.790  0.00  0.00    +0.050 A 
ATOM     26  N   UNL     1       7.438   2.580  23.328  0.00  0.00    -0.336 N 
ATOM     27  C   UNL     1       7.978   2.360  22.081  0.00  0.00    +0.087 A 
ATOM     28  C   UNL     1       7.733   1.053  21.740  0.00  0.00    +0.028 A 
ATOM     29  C   UNL     1       7.012   0.451  22.803  0.00  0.00    +0.003 A 
ATOM     30  C   UNL     1       6.523  -0.855  23.008  0.00  0.00    +0.055 A 
BRANCH  26  31
ATOM     31  C   UNL     1       7.612   3.833  24.055  0.00  0.00    +0.242 C 
BRANCH  31  32
ATOM     32  C   UNL     1       8.745   4.718  23.597  0.00  0.00    +0.325 C 
ATOM     33  O   UNL     1       9.888   4.561  24.015  0.00  0.00    -0.249 OA
BRANCH  32  34
ATOM     34  O   UNL     1       8.462   5.705  22.722  0.00  0.00    -0.479 OA
ATOM     35  H   UNL     1       9.198   6.306  22.494  0.00  0.00    +0.295 HD
ENDBRANCH  32  34
ENDBRANCH  31  32
ENDBRANCH  26  31
ENDBRANCH  21  22
ENDBRANCH  20  21
ENDBRANCH  19  20
ENDBRANCH   1  19
TORSDOF 12
ENDMDL
MODEL 6
REMARK VINA RESULT:      -6.5      2.768      6.794
REMARK  Name = 
REMARK  13 active torsions:
REMARK  status: ('A' for Active; 'I' for Inactive)
REMARK    1  A    between atoms: C_1  and  C_2
REMARK    2  A    between atoms: C_2  and  C_3
REMARK    3  A    between atoms: C_3  and  C_4
REMARK    4  A    between atoms: C_8  and  C_31
REMARK    5  A    between atoms: C_12  and  O_13
REMARK    6  A    between atoms: O_13  and  C_14
REMARK    7  A    between atoms: C_14  and  C_15
REMARK    8  A    between atoms: C_15  and  C_16
REMARK    9  A    between atoms: C_16  and  O_17
REMARK   10  A    between atoms: O_17  and  C_18
REMARK   11  A    between atoms: N_24  and  C_25
REMARK   12  A    between atoms: C_25  and  C_26
REMARK   13  A    between atoms: C_26  and  O_27
REMARK                            x       y       z     vdW  Elec       q    Type
REMARK                         _______ _______ _______ _____ _____    ______ ____
ROOT
ATOM      1  C   UNL     1       3.573  -5.868  28.546  0.00  0.00    +0.232 C 
ENDROOT
BRANCH   1   2
ATOM      2  O   UNL     1       2.868  -6.075  27.323  0.00  0.00    -0.491 OA
BRANCH   2   4
ATOM      3  C   UNL     1       3.506  -4.700  25.519  0.00  0.00    +0.040 A 
ATOM      4  C   UNL     1       3.573  -5.965  26.151  0.00  0.00    +0.127 A 
ATOM      5  C   UNL     1       4.318  -7.018  25.598  0.00  0.00    +0.047 A 
ATOM      6  C   UNL     1       5.016  -6.867  24.396  0.00  0.00    +0.017 A 
ATOM      7  C   UNL     1       4.957  -5.629  23.747  0.00  0.00    +0.054 A 
ATOM      8  C   UNL     1       5.493  -5.065  22.560  0.00  0.00    +0.193 A 
ATOM      9  N   UNL     1       5.102  -3.789  22.412  0.00  0.00    -0.073 NA
ATOM     10  O   UNL     1       4.307  -3.508  23.512  0.00  0.00    -0.354 OA
ATOM     11  C   UNL     1       4.219  -4.607  24.314  0.00  0.00    +0.174 A 
BRANCH   8  12
ATOM     12  C   UNL     1       6.380  -5.757  21.586  0.00  0.00    +0.438 C 
ATOM     13  F   UNL     1       6.666  -7.028  21.984  0.00  0.00    -0.164 F 
ATOM     14  F   UNL     1       7.580  -5.123  21.466  0.00  0.00    -0.164 F 
ATOM     15  F   UNL     1       5.864  -5.849  20.334  0.00  0.00    -0.164 F 
ENDBRANCH   8  12
BRANCH   3  16
ATOM     16  C   UNL     1       2.723  -3.542  26.092  0.00  0.00    +0.042 C 
BRANCH  16  18
ATOM     17  C   UNL     1       3.170  -1.218  27.052  0.00  0.00    +0.004 C 
ATOM     18  C   UNL     1       3.468  -2.707  27.141  0.00  0.00    +0.001 C 
ENDBRANCH  16  18
ENDBRANCH   3  16
ENDBRANCH   2   4
ENDBRANCH   1   2
BRANCH   1  19
ATOM     19  C   UNL     1       4.879  -6.653  28.494  0.00  0.00    +0.082 C 
BRANCH  19  20
ATOM     20  C   UNL     1       6.076  -5.789  28.884  0.00  0.00    +0.232 C 
BRANCH  20  21
ATOM     21  O   UNL     1       7.138  -6.024  27.955  0.00  0.00    -0.492 OA
BRANCH  21  22
ATOM     22  C   UNL     1       7.329  -5.084  26.977  0.00  0.00    +0.121 A 
ATOM     23  C   UNL     1       8.156  -5.480  25.924  0.00  0.00    +0.048 A 
ATOM     24  C   UNL     1       8.430  -4.633  24.837  0.00  0.00    +0.030 A 
ATOM     25  C   UNL     1       7.844  -3.356  24.831  0.00  0.00    +0.050 A 
ATOM     26  N   UNL     1       7.882  -2.318  23.920  0.00  0.00    -0.336 N 
ATOM     27  C   UNL     1       7.126  -1.262  24.376  0.00  0.00    +0.087 A 
ATOM     28  C   UNL     1       6.578  -1.624  25.582  0.00  0.00    +0.028 A 
ATOM     29  C   UNL     1       7.017  -2.939  25.884  0.00  0.00    +0.003 A 
ATOM     30  C   UNL     1       6.756  -3.811  26.960  0.00  0.00    +0.055 A 
BRANCH  26  31
ATOM     31  C   UNL     1       8.518  -2.325  22.607  0.00  0.00    +0.242 C 
BRANCH  31  32
ATOM     32  C   UNL     1       9.682  -1.383  22.425  0.00  0.00    +0.325 C 
ATOM     33  O   UNL     1      10.333  -0.978  23.383  0.00  0.00    -0.249 OA
BRANCH  32  34
ATOM     34  O   UNL     1       9.980  -0.982  21.172  0.00  0.00    -0.479 OA
ATOM     35  H   UNL     1      10.746  -1.416  20.748  0.00  0.00    +0.295 HD
ENDBRANCH  32  34
ENDBRANCH  31  32
ENDBRANCH  26  31
ENDBRANCH  21  22
ENDBRANCH  20  21
ENDBRANCH  19  20
ENDBRANCH   1  19
TORSDOF 12
ENDMDL
MODEL 7
REMARK VINA RESULT:      -6.4      3.097      7.200
REMARK  Name = 
REMARK  13 active torsions:
REMARK  status: ('A' for Active; 'I' for Inactive)
REMARK    1  A    between atoms: C_1  and  C_2
REMARK    2  A    between atoms: C_2  and  C_3
REMARK    3  A    between atoms: C_3  and  C_4
REMARK    4  A    between atoms: C_8  and  C_31
REMARK    5  A    between atoms: C_12  and  O_13
REMARK    6  A    between atoms: O_13  and  C_14
REMARK    7  A    between atoms: C_14  and  C_15
REMARK    8  A    between atoms: C_15  and  C_16
REMARK    9  A    between atoms: C_16  and  O_17
REMARK   10  A    between atoms: O_17  and  C_18
REMARK   11  A    between atoms: N_24  and  C_25
REMARK   12  A    between atoms: C_25  and  C_26
REMARK   13  A    between atoms: C_26  and  O_27
REMARK                            x       y       z     vdW  Elec       q    Type
REMARK                         _______ _______ _______ _____ _____    ______ ____
ROOT
ATOM      1  C   UNL     1       9.677  -2.429  24.073  0.00  0.00    +0.232 C 
ENDROOT
BRANCH   1   2
ATOM      2  O   UNL     1       9.449  -3.832  23.941  0.00  0.00    -0.491 OA
BRANCH   2   4
ATOM      3  C   UNL     1       7.388  -4.971  24.001  0.00  0.00    +0.040 A 
ATOM      4  C   UNL     1       8.467  -4.398  24.715  0.00  0.00    +0.127 A 
ATOM      5  C   UNL     1       8.508  -4.420  26.117  0.00  0.00    +0.047 A 
ATOM      6  C   UNL     1       7.481  -4.999  26.869  0.00  0.00    +0.017 A 
ATOM      7  C   UNL     1       6.399  -5.565  26.187  0.00  0.00    +0.054 A 
ATOM      8  C   UNL     1       5.196  -6.229  26.540  0.00  0.00    +0.193 A 
ATOM      9  N   UNL     1       4.495  -6.573  25.448  0.00  0.00    -0.073 NA
ATOM     10  O   UNL     1       5.243  -6.135  24.367  0.00  0.00    -0.354 OA
ATOM     11  C   UNL     1       6.384  -5.532  24.804  0.00  0.00    +0.174 A 
BRANCH   8  12
ATOM     12  C   UNL     1       4.739  -6.533  27.923  0.00  0.00    +0.438 C 
ATOM     13  F   UNL     1       4.688  -5.410  28.692  0.00  0.00    -0.164 F 
ATOM     14  F   UNL     1       5.595  -7.382  28.557  0.00  0.00    -0.164 F 
ATOM     15  F   UNL     1       3.509  -7.104  27.988  0.00  0.00    -0.164 F 
ENDBRANCH   8  12
BRANCH   3  16
ATOM     16  C   UNL     1       7.317  -4.974  22.491  0.00  0.00    +0.042 C 
BRANCH  16  18
ATOM     17  C   UNL     1       6.116  -2.723  22.608  0.00  0.00    +0.004 C 
ATOM     18  C   UNL     1       6.248  -4.055  21.887  0.00  0.00    +0.001 C 
ENDBRANCH  16  18
ENDBRANCH   3  16
ENDBRANCH   2   4
ENDBRANCH   1   2
BRANCH   1  19
ATOM     19  C   UNL     1      10.236  -1.901  22.757  0.00  0.00    +0.082 C 
BRANCH  19  20
ATOM     20  C   UNL     1       9.300  -0.881  22.112  0.00  0.00    +0.232 C 
BRANCH  20  21
ATOM     21  O   UNL     1       8.564  -0.212  23.141  0.00  0.00    -0.492 OA
BRANCH  21  22
ATOM     22  C   UNL     1       8.919   1.080  23.421  0.00  0.00    +0.121 A 
ATOM     23  C   UNL     1      10.022   1.562  22.715  0.00  0.00    +0.048 A 
ATOM     24  C   UNL     1      10.495   2.875  22.879  0.00  0.00    +0.030 A 
ATOM     25  C   UNL     1       9.821   3.709  23.788  0.00  0.00    +0.050 A 
ATOM     26  N   UNL     1      10.003   5.030  24.151  0.00  0.00    -0.336 N 
ATOM     27  C   UNL     1       9.064   5.394  25.090  0.00  0.00    +0.087 A 
ATOM     28  C   UNL     1       8.256   4.310  25.323  0.00  0.00    +0.028 A 
ATOM     29  C   UNL     1       8.716   3.240  24.511  0.00  0.00    +0.003 A 
ATOM     30  C   UNL     1       8.261   1.919  24.323  0.00  0.00    +0.055 A 
BRANCH  26  31
ATOM     31  C   UNL     1      10.956   5.974  23.578  0.00  0.00    +0.242 C 
BRANCH  31  32
ATOM     32  C   UNL     1      12.381   5.857  24.058  0.00  0.00    +0.325 C 
ATOM     33  O   UNL     1      13.171   5.077  23.535  0.00  0.00    -0.249 OA
BRANCH  32  34
ATOM     34  O   UNL     1      12.763   6.625  25.100  0.00  0.00    -0.479 OA
ATOM     35  H   UNL     1      12.652   7.590  24.991  0.00  0.00    +0.295 HD
ENDBRANCH  32  34
ENDBRANCH  31  32
ENDBRANCH  26  31
ENDBRANCH  21  22
ENDBRANCH  20  21
ENDBRANCH  19  20
ENDBRANCH   1  19
TORSDOF 12
ENDMDL
MODEL 8
REMARK VINA RESULT:      -6.4      1.682      3.491
REMARK  Name = 
REMARK  13 active torsions:
REMARK  status: ('A' for Active; 'I' for Inactive)
REMARK    1  A    between atoms: C_1  and  C_2
REMARK    2  A    between atoms: C_2  and  C_3
REMARK    3  A    between atoms: C_3  and  C_4
REMARK    4  A    between atoms: C_8  and  C_31
REMARK    5  A    between atoms: C_12  and  O_13
REMARK    6  A    between atoms: O_13  and  C_14
REMARK    7  A    between atoms: C_14  and  C_15
REMARK    8  A    between atoms: C_15  and  C_16
REMARK    9  A    between atoms: C_16  and  O_17
REMARK   10  A    between atoms: O_17  and  C_18
REMARK   11  A    between atoms: N_24  and  C_25
REMARK   12  A    between atoms: C_25  and  C_26
REMARK   13  A    between atoms: C_26  and  O_27
REMARK                            x       y       z     vdW  Elec       q    Type
REMARK                         _______ _______ _______ _____ _____    ______ ____
ROOT
ATOM      1  C   UNL     1      10.572   1.032  23.757  0.00  0.00    +0.232 C 
ENDROOT
BRANCH   1   2
ATOM      2  O   UNL     1       9.578   1.561  24.633  0.00  0.00    -0.491 OA
BRANCH   2   4
ATOM      3  C   UNL     1       7.339   0.830  24.661  0.00  0.00    +0.040 A 
ATOM      4  C   UNL     1       8.656   0.689  25.157  0.00  0.00    +0.127 A 
ATOM      5  C   UNL     1       8.975  -0.283  26.117  0.00  0.00    +0.047 A 
ATOM      6  C   UNL     1       8.004  -1.147  26.633  0.00  0.00    +0.017 A 
ATOM      7  C   UNL     1       6.691  -1.022  26.165  0.00  0.00    +0.054 A 
ATOM      8  C   UNL     1       5.449  -1.665  26.405  0.00  0.00    +0.193 A 
ATOM      9  N   UNL     1       4.472  -1.125  25.658  0.00  0.00    -0.073 NA
ATOM     10  O   UNL     1       5.076  -0.122  24.917  0.00  0.00    -0.354 OA
ATOM     11  C   UNL     1       6.404  -0.057  25.216  0.00  0.00    +0.174 A 
BRANCH   8  12
ATOM     12  C   UNL     1       5.217  -2.795  27.344  0.00  0.00    +0.438 C 
ATOM     13  F   UNL     1       4.201  -3.597  26.921  0.00  0.00    -0.164 F 
ATOM     14  F   UNL     1       4.854  -2.351  28.580  0.00  0.00    -0.164 F 
ATOM     15  F   UNL     1       6.297  -3.598  27.524  0.00  0.00    -0.164 F 
ENDBRANCH   8  12
BRANCH   3  16
ATOM     16  C   UNL     1       6.964   1.859  23.620  0.00  0.00    +0.042 C 
BRANCH  16  18
ATOM     17  C   UNL     1       7.511   4.350  23.491  0.00  0.00    +0.004 C 
ATOM     18  C   UNL     1       6.684   3.266  24.163  0.00  0.00    +0.001 C 
ENDBRANCH  16  18
ENDBRANCH   3  16
ENDBRANCH   2   4
ENDBRANCH   1   2
BRANCH   1  19
ATOM     19  C   UNL     1      10.093   1.201  22.319  0.00  0.00    +0.082 C 
BRANCH  19  20
ATOM     20  C   UNL     1       9.770  -0.142  21.668  0.00  0.00    +0.232 C 
BRANCH  20  21
ATOM     21  O   UNL     1      10.104  -1.192  22.581  0.00  0.00    -0.492 OA
BRANCH  21  22
ATOM     22  C   UNL     1       9.101  -2.056  22.930  0.00  0.00    +0.121 A 
ATOM     23  C   UNL     1       9.457  -3.040  23.854  0.00  0.00    +0.048 A 
ATOM     24  C   UNL     1       8.531  -3.987  24.325  0.00  0.00    +0.030 A 
ATOM     25  C   UNL     1       7.215  -3.921  23.837  0.00  0.00    +0.050 A 
ATOM     26  N   UNL     1       6.081  -4.662  24.113  0.00  0.00    -0.336 N 
ATOM     27  C   UNL     1       5.020  -4.195  23.370  0.00  0.00    +0.087 A 
ATOM     28  C   UNL     1       5.463  -3.133  22.622  0.00  0.00    +0.028 A 
ATOM     29  C   UNL     1       6.842  -2.944  22.904  0.00  0.00    +0.003 A 
ATOM     30  C   UNL     1       7.790  -2.005  22.452  0.00  0.00    +0.055 A 
BRANCH  26  31
ATOM     31  C   UNL     1       5.944  -5.715  25.112  0.00  0.00    +0.242 C 
BRANCH  31  32
ATOM     32  C   UNL     1       4.711  -6.579  25.005  0.00  0.00    +0.325 C 
ATOM     33  O   UNL     1       3.816  -6.524  25.843  0.00  0.00    -0.249 OA
BRANCH  32  34
ATOM     34  O   UNL     1       4.627  -7.434  23.965  0.00  0.00    -0.479 OA
ATOM     35  H   UNL     1       4.276  -8.325  24.163  0.00  0.00    +0.295 HD
ENDBRANCH  32  34
ENDBRANCH  31  32
ENDBRANCH  26  31
ENDBRANCH  21  22
ENDBRANCH  20  21
ENDBRANCH  19  20
ENDBRANCH   1  19
TORSDOF 12
ENDMDL
MODEL 9
REMARK VINA RESULT:      -6.3      2.382      3.147
REMARK  Name = 
REMARK  13 active torsions:
REMARK  status: ('A' for Active; 'I' for Inactive)
REMARK    1  A    between atoms: C_1  and  C_2
REMARK    2  A    between atoms: C_2  and  C_3
REMARK    3  A    between atoms: C_3  and  C_4
REMARK    4  A    between atoms: C_8  and  C_31
REMARK    5  A    between atoms: C_12  and  O_13
REMARK    6  A    between atoms: O_13  and  C_14
REMARK    7  A    between atoms: C_14  and  C_15
REMARK    8  A    between atoms: C_15  and  C_16
REMARK    9  A    between atoms: C_16  and  O_17
REMARK   10  A    between atoms: O_17  and  C_18
REMARK   11  A    between atoms: N_24  and  C_25
REMARK   12  A    between atoms: C_25  and  C_26
REMARK   13  A    between atoms: C_26  and  O_27
REMARK                            x       y       z     vdW  Elec       q    Type
REMARK                         _______ _______ _______ _____ _____    ______ ____
ROOT
ATOM      1  C   UNL     1       7.185   2.084  26.185  0.00  0.00    +0.232 C 
ENDROOT
BRANCH   1   2
ATOM      2  O   UNL     1       8.083   1.506  25.238  0.00  0.00    -0.491 OA
BRANCH   2   4
ATOM      3  C   UNL     1       8.239  -0.523  24.052  0.00  0.00    +0.040 A 
ATOM      4  C   UNL     1       8.290   0.151  25.295  0.00  0.00    +0.127 A 
ATOM      5  C   UNL     1       8.539  -0.541  26.490  0.00  0.00    +0.047 A 
ATOM      6  C   UNL     1       8.735  -1.925  26.507  0.00  0.00    +0.017 A 
ATOM      7  C   UNL     1       8.681  -2.616  25.290  0.00  0.00    +0.054 A 
ATOM      8  C   UNL     1       8.820  -3.963  24.868  0.00  0.00    +0.193 A 
ATOM      9  N   UNL     1       8.666  -4.070  23.538  0.00  0.00    -0.073 NA
ATOM     10  O   UNL     1       8.428  -2.784  23.081  0.00  0.00    -0.354 OA
ATOM     11  C   UNL     1       8.438  -1.910  24.127  0.00  0.00    +0.174 A 
BRANCH   8  12
ATOM     12  C   UNL     1       9.107  -5.130  25.745  0.00  0.00    +0.438 C 
ATOM     13  F   UNL     1       8.081  -5.370  26.610  0.00  0.00    -0.164 F 
ATOM     14  F   UNL     1      10.206  -4.914  26.520  0.00  0.00    -0.164 F 
ATOM     15  F   UNL     1       9.328  -6.288  25.074  0.00  0.00    -0.164 F 
ENDBRANCH   8  12
BRANCH   3  16
ATOM     16  C   UNL     1       7.985   0.193  22.745  0.00  0.00    +0.042 C 
BRANCH  16  18
ATOM     17  C   UNL     1       9.981   1.624  22.047  0.00  0.00    +0.004 C 
ATOM     18  C   UNL     1       9.209   0.333  21.830  0.00  0.00    +0.001 C 
ENDBRANCH  16  18
ENDBRANCH   3  16
ENDBRANCH   2   4
ENDBRANCH   1   2
BRANCH   1  19
ATOM     19  C   UNL     1       5.764   1.954  25.650  0.00  0.00    +0.082 C 
BRANCH  19  20
ATOM     20  C   UNL     1       5.039   0.749  26.249  0.00  0.00    +0.232 C 
BRANCH  20  21
ATOM     21  O   UNL     1       4.953  -0.278  25.257  0.00  0.00    -0.492 OA
BRANCH  21  22
ATOM     22  C   UNL     1       4.974  -1.574  25.699  0.00  0.00    +0.121 A 
ATOM     23  C   UNL     1       4.878  -1.733  27.083  0.00  0.00    +0.048 A 
ATOM     24  C   UNL     1       4.865  -3.002  27.686  0.00  0.00    +0.030 A 
ATOM     25  C   UNL     1       4.952  -4.130  26.851  0.00  0.00    +0.050 A 
ATOM     26  N   UNL     1       4.933  -5.486  27.113  0.00  0.00    -0.336 N 
ATOM     27  C   UNL     1       5.043  -6.195  25.939  0.00  0.00    +0.087 A 
ATOM     28  C   UNL     1       5.113  -5.294  24.906  0.00  0.00    +0.028 A 
ATOM     29  C   UNL     1       5.056  -3.989  25.460  0.00  0.00    +0.003 A 
ATOM     30  C   UNL     1       5.063  -2.703  24.883  0.00  0.00    +0.055 A 
BRANCH  26  31
ATOM     31  C   UNL     1       4.720  -6.127  28.406  0.00  0.00    +0.242 C 
BRANCH  31  32
ATOM     32  C   UNL     1       5.942  -6.300  29.274  0.00  0.00    +0.325 C 
ATOM     33  O   UNL     1       6.677  -7.275  29.156  0.00  0.00    -0.249 OA
BRANCH  32  34
ATOM     34  O   UNL     1       6.196  -5.356  30.204  0.00  0.00    -0.479 OA
ATOM     35  H   UNL     1       7.137  -5.195  30.413  0.00  0.00    +0.295 HD
ENDBRANCH  32  34
ENDBRANCH  31  32
ENDBRANCH  26  31
ENDBRANCH  21  22
ENDBRANCH  20  21
ENDBRANCH  19  20
ENDBRANCH   1  19
TORSDOF 12
ENDMDL
