MODEL 1
REMARK VINA RESULT:      -5.4      0.000      0.000
REMARK  Name = 
REMARK  9 active torsions:
REMARK  status: ('A' for Active; 'I' for Inactive)
REMARK    1  A    between atoms: O_1  and  C_2
REMARK    2  A    between atoms: C_2  and  C_4
REMARK    3  A    between atoms: C_4  and  C_5
REMARK    4  A    between atoms: C_5  and  C_6
REMARK    5  A    between atoms: C_6  and  C_7
REMARK    6  A    between atoms: C_7  and  C_8
REMARK    7  A    between atoms: C_8  and  C_9
REMARK    8  A    between atoms: C_9  and  N_10
REMARK    9  A    between atoms: N_13  and  C_14
REMARK                            x       y       z     vdW  Elec       q    Type
REMARK                         _______ _______ _______ _____ _____    ______ ____
ROOT
ATOM      1  N   UNL     1       7.603  -3.207  22.139  0.00  0.00    -0.299 N 
ATOM      2  H   UNL     1       8.592  -3.400  22.198  0.00  0.00    +0.150 HD
ATOM      3  C   UNL     1       7.186  -2.068  22.782  0.00  0.00    +0.300 C 
ATOM      4  N   UNL     1       8.224  -1.186  22.949  0.00  0.00    -0.297 N 
ATOM      5  H   UNL     1       8.940  -1.239  22.239  0.00  0.00    +0.151 HD
ATOM      6  O   UNL     1       6.045  -1.877  23.176  0.00  0.00    -0.253 OA
ENDROOT
BRANCH   4   7
ATOM      7  C   UNL     1       8.026   0.101  23.606  0.00  0.00    +0.074 C 
ATOM      8  C   UNL     1       8.623   1.257  22.791  0.00  0.00    +0.022 C 
ATOM      9  C   UNL     1      10.152   1.252  22.795  0.00  0.00    +0.002 C 
ATOM     10  C   UNL     1      10.726   1.191  24.208  0.00  0.00    +0.000 C 
ATOM     11  C   UNL     1      10.138   0.041  25.022  0.00  0.00    +0.002 C 
ATOM     12  C   UNL     1       8.611   0.080  25.024  0.00  0.00    +0.022 C 
ENDBRANCH   4   7
BRANCH   1  13
ATOM     13  C   UNL     1       6.716  -4.346  22.010  0.00  0.00    +0.106 C 
BRANCH  13  14
ATOM     14  C   UNL     1       7.080  -5.469  22.980  0.00  0.00    +0.019 C 
BRANCH  14  15
ATOM     15  C   UNL     1       6.061  -5.555  24.117  0.00  0.00    +0.002 C 
BRANCH  15  16
ATOM     16  C   UNL     1       6.397  -4.597  25.262  0.00  0.00    +0.001 C 
BRANCH  16  17
ATOM     17  C   UNL     1       7.446  -5.206  26.194  0.00  0.00    +0.011 C 
BRANCH  17  18
ATOM     18  C   UNL     1       8.660  -4.295  26.358  0.00  0.00    +0.120 C 
BRANCH  18  19
ATOM     19  C   UNL     1       9.634  -4.451  25.212  0.00  0.00    +0.305 C 
ATOM     20  O   UNL     1       9.800  -3.649  24.306  0.00  0.00    -0.251 OA
BRANCH  19  21
ATOM     21  O   UNL     1      10.329  -5.610  25.283  0.00  0.00    -0.481 OA
ATOM     22  H   UNL     1      10.816  -5.827  24.466  0.00  0.00    +0.295 HD
ENDBRANCH  19  21
ENDBRANCH  18  19
ENDBRANCH  17  18
ENDBRANCH  16  17
ENDBRANCH  15  16
ENDBRANCH  14  15
ENDBRANCH  13  14
ENDBRANCH   1  13
TORSDOF 9
ENDMDL
MODEL 2
REMARK VINA RESULT:      -5.4      2.084      6.327
REMARK  Name = 
REMARK  9 active torsions:
REMARK  status: ('A' for Active; 'I' for Inactive)
REMARK    1  A    between atoms: O_1  and  C_2
REMARK    2  A    between atoms: C_2  and  C_4
REMARK    3  A    between atoms: C_4  and  C_5
REMARK    4  A    between atoms: C_5  and  C_6
REMARK    5  A    between atoms: C_6  and  C_7
REMARK    6  A    between atoms: C_7  and  C_8
REMARK    7  A    between atoms: C_8  and  C_9
REMARK    8  A    between atoms: C_9  and  N_10
REMARK    9  A    between atoms: N_13  and  C_14
REMARK                            x       y       z     vdW  Elec       q    Type
REMARK                         _______ _______ _______ _____ _____    ______ ____
ROOT
ATOM      1  N   UNL     1       9.006  -1.746  23.684  0.00  0.00    -0.299 N 
ATOM      2  H   UNL     1       8.090  -1.328  23.623  0.00  0.00    +0.150 HD
ATOM      3  C   UNL     1       9.021  -3.103  23.893  0.00  0.00    +0.300 C 
ATOM      4  N   UNL     1       7.839  -3.678  23.496  0.00  0.00    -0.297 N 
ATOM      5  H   UNL     1       7.370  -3.198  22.742  0.00  0.00    +0.151 HD
ATOM      6  O   UNL     1       9.955  -3.714  24.391  0.00  0.00    -0.253 OA
ENDROOT
BRANCH   4   7
ATOM      7  C   UNL     1       7.617  -5.115  23.618  0.00  0.00    +0.074 C 
ATOM      8  C   UNL     1       7.388  -5.775  22.251  0.00  0.00    +0.022 C 
ATOM      9  C   UNL     1       6.037  -5.405  21.638  0.00  0.00    +0.002 C 
ATOM     10  C   UNL     1       4.878  -5.657  22.599  0.00  0.00    +0.000 C 
ATOM     11  C   UNL     1       5.099  -4.999  23.958  0.00  0.00    +0.002 C 
ATOM     12  C   UNL     1       6.444  -5.402  24.562  0.00  0.00    +0.022 C 
ENDBRANCH   4   7
BRANCH   1  13
ATOM     13  C   UNL     1      10.080  -0.913  24.188  0.00  0.00    +0.106 C 
BRANCH  13  14
ATOM     14  C   UNL     1       9.553   0.297  24.958  0.00  0.00    +0.019 C 
BRANCH  14  15
ATOM     15  C   UNL     1       8.024   0.318  24.955  0.00  0.00    +0.002 C 
BRANCH  15  16
ATOM     16  C   UNL     1       7.470   1.541  24.222  0.00  0.00    +0.001 C 
BRANCH  16  17
ATOM     17  C   UNL     1       6.996   1.167  22.816  0.00  0.00    +0.011 C 
BRANCH  17  18
ATOM     18  C   UNL     1       7.757   1.932  21.736  0.00  0.00    +0.120 C 
BRANCH  18  19
ATOM     19  C   UNL     1       9.092   1.289  21.432  0.00  0.00    +0.305 C 
ATOM     20  O   UNL     1       9.262   0.124  21.110  0.00  0.00    -0.251 OA
BRANCH  19  21
ATOM     21  O   UNL     1      10.121   2.159  21.560  0.00  0.00    -0.481 OA
ATOM     22  H   UNL     1       9.994   2.992  21.068  0.00  0.00    +0.295 HD
ENDBRANCH  19  21
ENDBRANCH  18  19
ENDBRANCH  17  18
ENDBRANCH  16  17
ENDBRANCH  15  16
ENDBRANCH  14  15
ENDBRANCH  13  14
ENDBRANCH   1  13
TORSDOF 9
ENDMDL
MODEL 3
REMARK VINA RESULT:      -5.3      1.778      5.988
REMARK  Name = 
REMARK  9 active torsions:
REMARK  status: ('A' for Active; 'I' for Inactive)
REMARK    1  A    between atoms: O_1  and  C_2
REMARK    2  A    between atoms: C_2  and  C_4
REMARK    3  A    between atoms: C_4  and  C_5
REMARK    4  A    between atoms: C_5  and  C_6
REMARK    5  A    between atoms: C_6  and  C_7
REMARK    6  A    between atoms: C_7  and  C_8
REMARK    7  A    between atoms: C_8  and  C_9
REMARK    8  A    between atoms: C_9  and  N_10
REMARK    9  A    between atoms: N_13  and  C_14
REMARK                            x       y       z     vdW  Elec       q    Type
REMARK                         _______ _______ _______ _____ _____    ______ ____
ROOT
ATOM      1  N   UNL     1       9.108  -1.393  21.791  0.00  0.00    -0.299 N 
ATOM      2  H   UNL     1       8.231  -1.123  21.371  0.00  0.00    +0.150 HD
ATOM      3  C   UNL     1       9.025  -2.376  22.747  0.00  0.00    +0.300 C 
ATOM      4  N   UNL     1       7.881  -3.118  22.595  0.00  0.00    -0.297 N 
ATOM      5  H   UNL     1       7.544  -3.183  21.645  0.00  0.00    +0.151 HD
ATOM      6  O   UNL     1       9.849  -2.549  23.632  0.00  0.00    -0.253 OA
ENDROOT
BRANCH   4   7
ATOM      7  C   UNL     1       7.571  -4.225  23.493  0.00  0.00    +0.074 C 
ATOM      8  C   UNL     1       7.444  -5.556  22.738  0.00  0.00    +0.022 C 
ATOM      9  C   UNL     1       6.183  -5.626  21.877  0.00  0.00    +0.002 C 
ATOM     10  C   UNL     1       4.922  -5.294  22.670  0.00  0.00    +0.000 C 
ATOM     11  C   UNL     1       5.041  -3.970  23.420  0.00  0.00    +0.002 C 
ATOM     12  C   UNL     1       6.295  -3.932  24.292  0.00  0.00    +0.022 C 
ENDBRANCH   4   7
BRANCH   1  13
ATOM     13  C   UNL     1      10.144  -0.382  21.864  0.00  0.00    +0.106 C 
BRANCH  13  14
ATOM     14  C   UNL     1       9.568   1.032  21.823  0.00  0.00    +0.019 C 
BRANCH  14  15
ATOM     15  C   UNL     1      10.121   1.876  22.973  0.00  0.00    +0.002 C 
BRANCH  15  16
ATOM     16  C   UNL     1       9.822   1.251  24.337  0.00  0.00    +0.001 C 
BRANCH  16  17
ATOM     17  C   UNL     1       8.337   1.375  24.682  0.00  0.00    +0.011 C 
BRANCH  17  18
ATOM     18  C   UNL     1       7.704   0.017  24.974  0.00  0.00    +0.120 C 
BRANCH  18  19
ATOM     19  C   UNL     1       6.345  -0.117  24.324  0.00  0.00    +0.305 C 
ATOM     20  O   UNL     1       5.273  -0.069  24.903  0.00  0.00    -0.251 OA
BRANCH  19  21
ATOM     21  O   UNL     1       6.433  -0.306  22.986  0.00  0.00    -0.481 OA
ATOM     22  H   UNL     1       5.591  -0.573  22.571  0.00  0.00    +0.295 HD
ENDBRANCH  19  21
ENDBRANCH  18  19
ENDBRANCH  17  18
ENDBRANCH  16  17
ENDBRANCH  15  16
ENDBRANCH  14  15
ENDBRANCH  13  14
ENDBRANCH   1  13
TORSDOF 9
ENDMDL
MODEL 4
REMARK VINA RESULT:      -5.3      1.319      1.898
REMARK  Name = 
REMARK  9 active torsions:
REMARK  status: ('A' for Active; 'I' for Inactive)
REMARK    1  A    between atoms: O_1  and  C_2
REMARK    2  A    between atoms: C_2  and  C_4
REMARK    3  A    between atoms: C_4  and  C_5
REMARK    4  A    between atoms: C_5  and  C_6
REMARK    5  A    between atoms: C_6  and  C_7
REMARK    6  A    between atoms: C_7  and  C_8
REMARK    7  A    between atoms: C_8  and  C_9
REMARK    8  A    between atoms: C_9  and  N_10
REMARK    9  A    between atoms: N_13  and  C_14
REMARK                            x       y       z     vdW  Elec       q    Type
REMARK                         _______ _______ _______ _____ _____    ______ ____
ROOT
ATOM      1  N   UNL     1       6.201  -1.961  23.026  0.00  0.00    -0.299 N 
ATOM      2  H   UNL     1       5.770  -1.051  23.084  0.00  0.00    +0.150 HD
ATOM      3  C   UNL     1       7.534  -1.961  22.696  0.00  0.00    +0.300 C 
ATOM      4  N   UNL     1       8.115  -0.752  22.986  0.00  0.00    -0.297 N 
ATOM      5  H   UNL     1       7.695  -0.257  23.759  0.00  0.00    +0.151 HD
ATOM      6  O   UNL     1       8.119  -2.906  22.187  0.00  0.00    -0.253 OA
ENDROOT
BRANCH   4   7
ATOM      7  C   UNL     1       9.530  -0.510  22.725  0.00  0.00    +0.074 C 
ATOM      8  C   UNL     1      10.290  -0.128  24.003  0.00  0.00    +0.022 C 
ATOM      9  C   UNL     1       9.928   1.269  24.507  0.00  0.00    +0.002 C 
ATOM     10  C   UNL     1      10.065   2.331  23.420  0.00  0.00    +0.000 C 
ATOM     11  C   UNL     1       9.309   1.957  22.148  0.00  0.00    +0.002 C 
ATOM     12  C   UNL     1       9.704   0.569  21.649  0.00  0.00    +0.022 C 
ENDBRANCH   4   7
BRANCH   1  13
ATOM     13  C   UNL     1       5.350  -3.072  22.648  0.00  0.00    +0.106 C 
BRANCH  13  14
ATOM     14  C   UNL     1       4.752  -3.775  23.865  0.00  0.00    +0.019 C 
BRANCH  14  15
ATOM     15  C   UNL     1       5.252  -5.218  23.958  0.00  0.00    +0.002 C 
BRANCH  15  16
ATOM     16  C   UNL     1       6.751  -5.287  24.255  0.00  0.00    +0.001 C 
BRANCH  16  17
ATOM     17  C   UNL     1       7.012  -5.229  25.762  0.00  0.00    +0.011 C 
BRANCH  17  18
ATOM     18  C   UNL     1       8.224  -4.364  26.096  0.00  0.00    +0.120 C 
BRANCH  18  19
ATOM     19  C   UNL     1       9.449  -4.796  25.322  0.00  0.00    +0.305 C 
ATOM     20  O   UNL     1      10.051  -4.116  24.506  0.00  0.00    -0.251 OA
BRANCH  19  21
ATOM     21  O   UNL     1       9.830  -6.059  25.626  0.00  0.00    -0.481 OA
ATOM     22  H   UNL     1      10.695  -6.309  25.252  0.00  0.00    +0.295 HD
ENDBRANCH  19  21
ENDBRANCH  18  19
ENDBRANCH  17  18
ENDBRANCH  16  17
ENDBRANCH  15  16
ENDBRANCH  14  15
ENDBRANCH  13  14
ENDBRANCH   1  13
TORSDOF 9
ENDMDL
MODEL 5
REMARK VINA RESULT:      -5.3      3.815      7.651
REMARK  Name = 
REMARK  9 active torsions:
REMARK  status: ('A' for Active; 'I' for Inactive)
REMARK    1  A    between atoms: O_1  and  C_2
REMARK    2  A    between atoms: C_2  and  C_4
REMARK    3  A    between atoms: C_4  and  C_5
REMARK    4  A    between atoms: C_5  and  C_6
REMARK    5  A    between atoms: C_6  and  C_7
REMARK    6  A    between atoms: C_7  and  C_8
REMARK    7  A    between atoms: C_8  and  C_9
REMARK    8  A    between atoms: C_9  and  N_10
REMARK    9  A    between atoms: N_13  and  C_14
REMARK                            x       y       z     vdW  Elec       q    Type
REMARK                         _______ _______ _______ _____ _____    ______ ____
ROOT
ATOM      1  N   UNL     1       9.109  -1.547  22.731  0.00  0.00    -0.299 N 
ATOM      2  H   UNL     1       8.204  -1.170  22.492  0.00  0.00    +0.150 HD
ATOM      3  C   UNL     1       9.095  -2.799  23.295  0.00  0.00    +0.300 C 
ATOM      4  N   UNL     1       7.941  -3.471  22.979  0.00  0.00    -0.297 N 
ATOM      5  H   UNL     1       7.534  -3.215  22.091  0.00  0.00    +0.151 HD
ATOM      6  O   UNL     1       9.984  -3.245  24.005  0.00  0.00    -0.253 OA
ENDROOT
BRANCH   4   7
ATOM      7  C   UNL     1       7.697  -4.826  23.463  0.00  0.00    +0.074 C 
ATOM      8  C   UNL     1       7.392  -5.797  22.313  0.00  0.00    +0.022 C 
ATOM      9  C   UNL     1       6.022  -5.550  21.683  0.00  0.00    +0.002 C 
ATOM     10  C   UNL     1       4.903  -5.521  22.721  0.00  0.00    +0.000 C 
ATOM     11  C   UNL     1       5.200  -4.554  23.864  0.00  0.00    +0.002 C 
ATOM     12  C   UNL     1       6.563  -4.835  24.495  0.00  0.00    +0.022 C 
ENDBRANCH   4   7
BRANCH   1  13
ATOM     13  C   UNL     1      10.150  -0.598  23.072  0.00  0.00    +0.106 C 
BRANCH  13  14
ATOM     14  C   UNL     1       9.893   0.778  22.462  0.00  0.00    +0.019 C 
BRANCH  14  15
ATOM     15  C   UNL     1       9.716   1.832  23.555  0.00  0.00    +0.002 C 
BRANCH  15  16
ATOM     16  C   UNL     1      10.144   3.224  23.085  0.00  0.00    +0.001 C 
BRANCH  16  17
ATOM     17  C   UNL     1      11.585   3.523  23.505  0.00  0.00    +0.011 C 
BRANCH  17  18
ATOM     18  C   UNL     1      11.897   5.016  23.443  0.00  0.00    +0.120 C 
BRANCH  18  19
ATOM     19  C   UNL     1      13.141   5.293  22.630  0.00  0.00    +0.305 C 
ATOM     20  O   UNL     1      13.163   5.702  21.481  0.00  0.00    -0.251 OA
BRANCH  19  21
ATOM     21  O   UNL     1      14.275   5.032  23.323  0.00  0.00    -0.481 OA
ATOM     22  H   UNL     1      14.987   4.647  22.778  0.00  0.00    +0.295 HD
ENDBRANCH  19  21
ENDBRANCH  18  19
ENDBRANCH  17  18
ENDBRANCH  16  17
ENDBRANCH  15  16
ENDBRANCH  14  15
ENDBRANCH  13  14
ENDBRANCH   1  13
TORSDOF 9
ENDMDL
MODEL 6
REMARK VINA RESULT:      -5.2      1.678      3.507
REMARK  Name = 
REMARK  9 active torsions:
REMARK  status: ('A' for Active; 'I' for Inactive)
REMARK    1  A    between atoms: O_1  and  C_2
REMARK    2  A    between atoms: C_2  and  C_4
REMARK    3  A    between atoms: C_4  and  C_5
REMARK    4  A    between atoms: C_5  and  C_6
REMARK    5  A    between atoms: C_6  and  C_7
REMARK    6  A    between atoms: C_7  and  C_8
REMARK    7  A    between atoms: C_8  and  C_9
REMARK    8  A    between atoms: C_9  and  N_10
REMARK    9  A    between atoms: N_13  and  C_14
REMARK                            x       y       z     vdW  Elec       q    Type
REMARK                         _______ _______ _______ _____ _____    ______ ____
ROOT
ATOM      1  N   UNL     1       8.403  -2.985  24.276  0.00  0.00    -0.299 N 
ATOM      2  H   UNL     1       7.497  -2.563  24.138  0.00  0.00    +0.150 HD
ATOM      3  C   UNL     1       9.456  -2.324  23.692  0.00  0.00    +0.300 C 
ATOM      4  N   UNL     1       9.148  -1.006  23.466  0.00  0.00    -0.297 N 
ATOM      5  H   UNL     1       8.486  -0.611  24.118  0.00  0.00    +0.151 HD
ATOM      6  O   UNL     1      10.517  -2.849  23.391  0.00  0.00    -0.253 OA
ENDROOT
BRANCH   4   7
ATOM      7  C   UNL     1      10.112  -0.098  22.854  0.00  0.00    +0.074 C 
ATOM      8  C   UNL     1      10.602   0.967  23.845  0.00  0.00    +0.022 C 
ATOM      9  C   UNL     1       9.525   1.999  24.179  0.00  0.00    +0.002 C 
ATOM     10  C   UNL     1       8.909   2.620  22.928  0.00  0.00    +0.000 C 
ATOM     11  C   UNL     1       8.417   1.564  21.941  0.00  0.00    +0.002 C 
ATOM     12  C   UNL     1       9.516   0.559  21.603  0.00  0.00    +0.022 C 
ENDBRANCH   4   7
BRANCH   1  13
ATOM     13  C   UNL     1       8.441  -4.424  24.447  0.00  0.00    +0.106 C 
BRANCH  13  14
ATOM     14  C   UNL     1       7.642  -4.878  25.667  0.00  0.00    +0.019 C 
BRANCH  14  15
ATOM     15  C   UNL     1       6.163  -5.049  25.314  0.00  0.00    +0.002 C 
BRANCH  15  16
ATOM     16  C   UNL     1       5.321  -3.862  25.785  0.00  0.00    +0.001 C 
BRANCH  16  17
ATOM     17  C   UNL     1       4.726  -3.108  24.594  0.00  0.00    +0.011 C 
BRANCH  17  18
ATOM     18  C   UNL     1       4.813  -3.920  23.305  0.00  0.00    +0.120 C 
BRANCH  18  19
ATOM     19  C   UNL     1       5.526  -3.157  22.211  0.00  0.00    +0.305 C 
ATOM     20  O   UNL     1       5.629  -3.512  21.048  0.00  0.00    -0.251 OA
BRANCH  19  21
ATOM     21  O   UNL     1       6.065  -2.000  22.662  0.00  0.00    -0.481 OA
ATOM     22  H   UNL     1       5.768  -1.751  23.557  0.00  0.00    +0.295 HD
ENDBRANCH  19  21
ENDBRANCH  18  19
ENDBRANCH  17  18
ENDBRANCH  16  17
ENDBRANCH  15  16
ENDBRANCH  14  15
ENDBRANCH  13  14
ENDBRANCH   1  13
TORSDOF 9
ENDMDL
MODEL 7
REMARK VINA RESULT:      -5.2      1.760      6.059
REMARK  Name = 
REMARK  9 active torsions:
REMARK  status: ('A' for Active; 'I' for Inactive)
REMARK    1  A    between atoms: O_1  and  C_2
REMARK    2  A    between atoms: C_2  and  C_4
REMARK    3  A    between atoms: C_4  and  C_5
REMARK    4  A    between atoms: C_5  and  C_6
REMARK    5  A    between atoms: C_6  and  C_7
REMARK    6  A    between atoms: C_7  and  C_8
REMARK    7  A    between atoms: C_8  and  C_9
REMARK    8  A    between atoms: C_9  and  N_10
REMARK    9  A    between atoms: N_13  and  C_14
REMARK                            x       y       z     vdW  Elec       q    Type
REMARK                         _______ _______ _______ _____ _____    ______ ____
ROOT
ATOM      1  N   UNL     1       8.335  -1.394  24.854  0.00  0.00    -0.299 N 
ATOM      2  H   UNL     1       7.565  -1.013  24.325  0.00  0.00    +0.150 HD
ATOM      3  C   UNL     1       8.237  -2.729  25.157  0.00  0.00    +0.300 C 
ATOM      4  N   UNL     1       7.388  -3.372  24.292  0.00  0.00    -0.297 N 
ATOM      5  H   UNL     1       7.344  -2.968  23.368  0.00  0.00    +0.151 HD
ATOM      6  O   UNL     1       8.812  -3.268  26.092  0.00  0.00    -0.253 OA
ENDROOT
BRANCH   4   7
ATOM      7  C   UNL     1       7.124  -4.802  24.412  0.00  0.00    +0.074 C 
ATOM      8  C   UNL     1       7.793  -5.603  23.287  0.00  0.00    +0.022 C 
ATOM      9  C   UNL     1       7.127  -5.381  21.929  0.00  0.00    +0.002 C 
ATOM     10  C   UNL     1       5.619  -5.613  21.980  0.00  0.00    +0.000 C 
ATOM     11  C   UNL     1       4.948  -4.815  23.095  0.00  0.00    +0.002 C 
ATOM     12  C   UNL     1       5.615  -5.071  24.446  0.00  0.00    +0.022 C 
ENDBRANCH   4   7
BRANCH   1  13
ATOM     13  C   UNL     1       9.041  -0.488  25.739  0.00  0.00    +0.106 C 
BRANCH  13  14
ATOM     14  C   UNL     1      10.011   0.416  24.980  0.00  0.00    +0.019 C 
BRANCH  14  15
ATOM     15  C   UNL     1       9.337   1.733  24.596  0.00  0.00    +0.002 C 
BRANCH  15  16
ATOM     16  C   UNL     1       9.087   1.831  23.089  0.00  0.00    +0.001 C 
BRANCH  16  17
ATOM     17  C   UNL     1      10.087   0.971  22.313  0.00  0.00    +0.011 C 
BRANCH  17  18
ATOM     18  C   UNL     1       9.390   0.049  21.316  0.00  0.00    +0.120 C 
BRANCH  18  19
ATOM     19  C   UNL     1       9.335  -1.377  21.819  0.00  0.00    +0.305 C 
ATOM     20  O   UNL     1       8.359  -2.108  21.777  0.00  0.00    -0.251 OA
BRANCH  19  21
ATOM     21  O   UNL     1      10.516  -1.780  22.345  0.00  0.00    -0.481 OA
ATOM     22  H   UNL     1      10.897  -2.560  21.899  0.00  0.00    +0.295 HD
ENDBRANCH  19  21
ENDBRANCH  18  19
ENDBRANCH  17  18
ENDBRANCH  16  17
ENDBRANCH  15  16
ENDBRANCH  14  15
ENDBRANCH  13  14
ENDBRANCH   1  13
TORSDOF 9
ENDMDL
MODEL 8
REMARK VINA RESULT:      -5.2      1.670      6.177
REMARK  Name = 
REMARK  9 active torsions:
REMARK  status: ('A' for Active; 'I' for Inactive)
REMARK    1  A    between atoms: O_1  and  C_2
REMARK    2  A    between atoms: C_2  and  C_4
REMARK    3  A    between atoms: C_4  and  C_5
REMARK    4  A    between atoms: C_5  and  C_6
REMARK    5  A    between atoms: C_6  and  C_7
REMARK    6  A    between atoms: C_7  and  C_8
REMARK    7  A    between atoms: C_8  and  C_9
REMARK    8  A    between atoms: C_9  and  N_10
REMARK    9  A    between atoms: N_13  and  C_14
REMARK                            x       y       z     vdW  Elec       q    Type
REMARK                         _______ _______ _______ _____ _____    ______ ____
ROOT
ATOM      1  N   UNL     1       9.489  -0.877  24.248  0.00  0.00    -0.299 N 
ATOM      2  H   UNL     1       8.906  -0.704  25.053  0.00  0.00    +0.150 HD
ATOM      3  C   UNL     1       9.564  -2.188  23.846  0.00  0.00    +0.300 C 
ATOM      4  N   UNL     1       8.482  -2.904  24.292  0.00  0.00    -0.297 N 
ATOM      5  H   UNL     1       7.636  -2.364  24.404  0.00  0.00    +0.151 HD
ATOM      6  O   UNL     1      10.486  -2.659  23.196  0.00  0.00    -0.253 OA
ENDROOT
BRANCH   4   7
ATOM      7  C   UNL     1       8.336  -4.324  23.988  0.00  0.00    +0.074 C 
ATOM      8  C   UNL     1       6.869  -4.709  23.750  0.00  0.00    +0.022 C 
ATOM      9  C   UNL     1       6.039  -4.684  25.033  0.00  0.00    +0.002 C 
ATOM     10  C   UNL     1       6.674  -5.507  26.151  0.00  0.00    +0.000 C 
ATOM     11  C   UNL     1       8.132  -5.125  26.393  0.00  0.00    +0.002 C 
ATOM     12  C   UNL     1       8.947  -5.181  25.103  0.00  0.00    +0.022 C 
ENDBRANCH   4   7
BRANCH   1  13
ATOM     13  C   UNL     1      10.607   0.022  24.038  0.00  0.00    +0.106 C 
BRANCH  13  14
ATOM     14  C   UNL     1      10.207   1.254  23.228  0.00  0.00    +0.019 C 
BRANCH  14  15
ATOM     15  C   UNL     1       9.758   0.857  21.821  0.00  0.00    +0.002 C 
BRANCH  15  16
ATOM     16  C   UNL     1       8.496   1.605  21.390  0.00  0.00    +0.001 C 
BRANCH  16  17
ATOM     17  C   UNL     1       7.820   2.273  22.590  0.00  0.00    +0.011 C 
BRANCH  17  18
ATOM     18  C   UNL     1       6.464   1.645  22.902  0.00  0.00    +0.120 C 
BRANCH  18  19
ATOM     19  C   UNL     1       6.601   0.446  23.813  0.00  0.00    +0.305 C 
ATOM     20  O   UNL     1       6.856   0.485  25.006  0.00  0.00    -0.251 OA
BRANCH  19  21
ATOM     21  O   UNL     1       6.410  -0.722  23.155  0.00  0.00    -0.481 OA
ATOM     22  H   UNL     1       7.239  -1.149  22.866  0.00  0.00    +0.295 HD
ENDBRANCH  19  21
ENDBRANCH  18  19
ENDBRANCH  17  18
ENDBRANCH  16  17
ENDBRANCH  15  16
ENDBRANCH  14  15
ENDBRANCH  13  14
ENDBRANCH   1  13
TORSDOF 9
ENDMDL
MODEL 9
REMARK VINA RESULT:      -5.0      1.743      6.603
REMARK  Name = 
REMARK  9 active torsions:
REMARK  status: ('A' for Active; 'I' for Inactive)
REMARK    1  A    between atoms: O_1  and  C_2
REMARK    2  A    between atoms: C_2  and  C_4
REMARK    3  A    between atoms: C_4  and  C_5
REMARK    4  A    between atoms: C_5  and  C_6
REMARK    5  A    between atoms: C_6  and  C_7
REMARK    6  A    between atoms: C_7  and  C_8
REMARK    7  A    between atoms: C_8  and  C_9
REMARK    8  A    between atoms: C_9  and  N_10
REMARK    9  A    between atoms: N_13  and  C_14
REMARK                            x       y       z     vdW  Elec       q    Type
REMARK                         _______ _______ _______ _____ _____    ______ ____
ROOT
ATOM      1  N   UNL     1       9.071  -1.475  23.242  0.00  0.00    -0.299 N 
ATOM      2  H   UNL     1       8.164  -1.034  23.270  0.00  0.00    +0.150 HD
ATOM      3  C   UNL     1       9.094  -2.796  23.618  0.00  0.00    +0.300 C 
ATOM      4  N   UNL     1       7.855  -3.370  23.483  0.00  0.00    -0.297 N 
ATOM      5  H   UNL     1       7.282  -2.969  22.755  0.00  0.00    +0.151 HD
ATOM      6  O   UNL     1      10.084  -3.375  24.041  0.00  0.00    -0.253 OA
ENDROOT
BRANCH   4   7
ATOM      7  C   UNL     1       7.629  -4.772  23.820  0.00  0.00    +0.074 C 
ATOM      8  C   UNL     1       7.525  -5.650  22.566  0.00  0.00    +0.022 C 
ATOM      9  C   UNL     1       6.232  -5.411  21.786  0.00  0.00    +0.002 C 
ATOM     10  C   UNL     1       4.993  -5.525  22.670  0.00  0.00    +0.000 C 
ATOM     11  C   UNL     1       5.091  -4.650  23.917  0.00  0.00    +0.002 C 
ATOM     12  C   UNL     1       6.378  -4.922  24.693  0.00  0.00    +0.022 C 
ENDBRANCH   4   7
BRANCH   1  13
ATOM     13  C   UNL     1      10.225  -0.627  23.465  0.00  0.00    +0.106 C 
BRANCH  13  14
ATOM     14  C   UNL     1      10.181   0.054  24.832  0.00  0.00    +0.019 C 
BRANCH  14  15
ATOM     15  C   UNL     1       9.308   1.309  24.785  0.00  0.00    +0.002 C 
BRANCH  15  16
ATOM     16  C   UNL     1       9.886   2.374  23.851  0.00  0.00    +0.001 C 
BRANCH  16  17
ATOM     17  C   UNL     1       8.780   3.040  23.031  0.00  0.00    +0.011 C 
BRANCH  17  18
ATOM     18  C   UNL     1       8.157   2.075  22.025  0.00  0.00    +0.120 C 
BRANCH  18  19
ATOM     19  C   UNL     1       6.742   1.706  22.408  0.00  0.00    +0.305 C 
ATOM     20  O   UNL     1       5.807   2.484  22.505  0.00  0.00    -0.251 OA
BRANCH  19  21
ATOM     21  O   UNL     1       6.604   0.381  22.646  0.00  0.00    -0.481 OA
ATOM     22  H   UNL     1       7.377  -0.149  22.375  0.00  0.00    +0.295 HD
ENDBRANCH  19  21
ENDBRANCH  18  19
ENDBRANCH  17  18
ENDBRANCH  16  17
ENDBRANCH  15  16
ENDBRANCH  14  15
ENDBRANCH  13  14
ENDBRANCH   1  13
TORSDOF 9
ENDMDL
