MODEL 1
REMARK VINA RESULT:      -6.2      0.000      0.000
REMARK  Name = 
REMARK  11 active torsions:
REMARK  status: ('A' for Active; 'I' for Inactive)
REMARK    1  A    between atoms: C_1  and  C_2
REMARK    2  A    between atoms: N_4  and  C_5
REMARK    3  A    between atoms: C_7  and  O_9
REMARK    4  A    between atoms: C_13  and  C_26
REMARK    5  A    between atoms: C_16  and  C_18
REMARK    6  A    between atoms: C_18  and  O_20
REMARK    7  A    between atoms: C_18  and  C_21
REMARK    8  A    between atoms: C_21  and  O_23
REMARK    9  A    between atoms: C_21  and  C_24
REMARK   10  A    between atoms: C_24  and  O_25
REMARK   11  A    between atoms: C_26  and  O_27
REMARK                            x       y       z     vdW  Elec       q    Type
REMARK                         _______ _______ _______ _____ _____    ______ ____
ROOT
ATOM      1  C   UNL     1       8.434  -4.032  23.950  0.00  0.00    +0.136 C 
ATOM      2  C   UNL     1       6.998  -4.628  24.004  0.00  0.00    +0.173 C 
ATOM      3  O   UNL     1       6.251  -4.074  25.109  0.00  0.00    -0.355 OA
ATOM      4  C   UNL     1       6.852  -4.266  26.407  0.00  0.00    +0.263 C 
ATOM      5  C   UNL     1       8.290  -3.750  26.466  0.00  0.00    +0.236 C 
ATOM      6  F   UNL     1       8.266  -2.388  26.433  0.00  0.00    -0.239 F 
ATOM      7  C   UNL     1       9.125  -4.293  25.312  0.00  0.00    +0.174 C 
ENDROOT
BRANCH   1  10
ATOM      8  C   UNL     1       9.168  -0.470  22.811  0.00  0.00    +0.109 C 
ATOM      9  C   UNL     1       9.461  -1.923  23.081  0.00  0.00    +0.210 C 
ATOM     10  N   UNL     1       8.402  -2.603  23.626  0.00  0.00    -0.308 N 
ATOM     11  H   UNL     1       7.475  -2.188  23.513  0.00  0.00    +0.149 HD
ATOM     12  O   UNL     1      10.545  -2.437  22.834  0.00  0.00    -0.276 OA
ENDBRANCH   1  10
BRANCH   4  13
ATOM     13  C   UNL     1       6.735  -5.710  26.905  0.00  0.00    +0.337 C 
ATOM     14  O   UNL     1       5.868  -6.492  26.523  0.00  0.00    -0.248 OA
BRANCH  13  15
ATOM     15  O   UNL     1       7.610  -6.067  27.874  0.00  0.00    -0.479 OA
ATOM     16  H   UNL     1       8.391  -6.582  27.595  0.00  0.00    +0.295 HD
ENDBRANCH  13  15
ENDBRANCH   4  13
BRANCH   7  17
ATOM     17  O   UNL     1       9.324  -5.692  25.570  0.00  0.00    -0.387 OA
ATOM     18  H   UNL     1       9.135  -5.899  26.502  0.00  0.00    +0.210 HD
ENDBRANCH   7  17
BRANCH   2  19
ATOM     19  C   UNL     1       6.204  -4.386  22.690  0.00  0.00    +0.176 C 
BRANCH  19  20
ATOM     20  O   UNL     1       5.291  -3.288  22.878  0.00  0.00    -0.387 OA
ATOM     21  H   UNL     1       4.891  -3.432  23.764  0.00  0.00    +0.210 HD
ENDBRANCH  19  20
BRANCH  19  22
ATOM     22  C   UNL     1       5.403  -5.625  22.230  0.00  0.00    +0.171 C 
BRANCH  22  23
ATOM     23  O   UNL     1       6.280  -6.744  22.045  0.00  0.00    -0.387 OA
ATOM     24  H   UNL     1       6.575  -6.730  21.110  0.00  0.00    +0.210 HD
ENDBRANCH  22  23
BRANCH  22  25
ATOM     25  C   UNL     1       4.349  -6.026  23.282  0.00  0.00    +0.189 C 
BRANCH  25  26
ATOM     26  O   UNL     1       4.609  -7.310  23.851  0.00  0.00    -0.392 OA
ATOM     27  H   UNL     1       4.035  -7.420  24.630  0.00  0.00    +0.210 HD
ENDBRANCH  25  26
ENDBRANCH  22  25
ENDBRANCH  19  22
ENDBRANCH   2  19
TORSDOF 10
ENDMDL
MODEL 2
REMARK VINA RESULT:      -5.7      2.322      4.620
REMARK  Name = 
REMARK  11 active torsions:
REMARK  status: ('A' for Active; 'I' for Inactive)
REMARK    1  A    between atoms: C_1  and  C_2
REMARK    2  A    between atoms: N_4  and  C_5
REMARK    3  A    between atoms: C_7  and  O_9
REMARK    4  A    between atoms: C_13  and  C_26
REMARK    5  A    between atoms: C_16  and  C_18
REMARK    6  A    between atoms: C_18  and  O_20
REMARK    7  A    between atoms: C_18  and  C_21
REMARK    8  A    between atoms: C_21  and  O_23
REMARK    9  A    between atoms: C_21  and  C_24
REMARK   10  A    between atoms: C_24  and  O_25
REMARK   11  A    between atoms: C_26  and  O_27
REMARK                            x       y       z     vdW  Elec       q    Type
REMARK                         _______ _______ _______ _____ _____    ______ ____
ROOT
ATOM      1  C   UNL     1       6.592  -1.794  23.798  0.00  0.00    +0.136 C 
ATOM      2  C   UNL     1       7.384  -2.428  22.620  0.00  0.00    +0.173 C 
ATOM      3  O   UNL     1       8.604  -3.042  23.090  0.00  0.00    -0.355 OA
ATOM      4  C   UNL     1       9.501  -2.154  23.791  0.00  0.00    +0.263 C 
ATOM      5  C   UNL     1       8.819  -1.439  24.957  0.00  0.00    +0.236 C 
ATOM      6  F   UNL     1       8.585  -2.344  25.948  0.00  0.00    -0.239 F 
ATOM      7  C   UNL     1       7.515  -0.781  24.521  0.00  0.00    +0.174 C 
ENDROOT
BRANCH   1  10
ATOM      8  C   UNL     1       4.669  -3.875  26.347  0.00  0.00    +0.109 C 
ATOM      9  C   UNL     1       4.993  -2.661  25.516  0.00  0.00    +0.210 C 
ATOM     10  N   UNL     1       6.096  -2.823  24.716  0.00  0.00    -0.308 N 
ATOM     11  H   UNL     1       6.390  -3.781  24.521  0.00  0.00    +0.149 HD
ATOM     12  O   UNL     1       4.330  -1.632  25.560  0.00  0.00    -0.276 OA
ENDBRANCH   1  10
BRANCH   4  13
ATOM     13  C   UNL     1      10.220  -1.179  22.854  0.00  0.00    +0.337 C 
ATOM     14  O   UNL     1      10.633  -0.077  23.207  0.00  0.00    -0.248 OA
BRANCH  13  15
ATOM     15  O   UNL     1      10.309  -1.569  21.561  0.00  0.00    -0.479 OA
ATOM     16  H   UNL     1      10.464  -0.870  20.898  0.00  0.00    +0.295 HD
ENDBRANCH  13  15
ENDBRANCH   4  13
BRANCH   7  17
ATOM     17  O   UNL     1       7.873   0.332  23.686  0.00  0.00    -0.387 OA
ATOM     18  H   UNL     1       7.550   1.166  24.070  0.00  0.00    +0.210 HD
ENDBRANCH   7  17
BRANCH   2  19
ATOM     19  C   UNL     1       6.553  -3.492  21.848  0.00  0.00    +0.176 C 
BRANCH  19  20
ATOM     20  O   UNL     1       5.163  -3.359  22.199  0.00  0.00    -0.387 OA
ATOM     21  H   UNL     1       5.039  -3.929  22.991  0.00  0.00    +0.210 HD
ENDBRANCH  19  20
BRANCH  19  22
ATOM     22  C   UNL     1       7.004  -4.941  22.142  0.00  0.00    +0.171 C 
BRANCH  22  23
ATOM     23  O   UNL     1       6.752  -5.272  23.514  0.00  0.00    -0.387 OA
ATOM     24  H   UNL     1       5.937  -5.816  23.536  0.00  0.00    +0.210 HD
ENDBRANCH  22  23
BRANCH  22  25
ATOM     25  C   UNL     1       6.233  -5.950  21.267  0.00  0.00    +0.189 C 
BRANCH  25  26
ATOM     26  O   UNL     1       4.933  -6.236  21.784  0.00  0.00    -0.392 OA
ATOM     27  H   UNL     1       5.013  -6.398  22.741  0.00  0.00    +0.210 HD
ENDBRANCH  25  26
ENDBRANCH  22  25
ENDBRANCH  19  22
ENDBRANCH   2  19
TORSDOF 10
ENDMDL
MODEL 3
REMARK VINA RESULT:      -5.7      3.578      6.535
REMARK  Name = 
REMARK  11 active torsions:
REMARK  status: ('A' for Active; 'I' for Inactive)
REMARK    1  A    between atoms: C_1  and  C_2
REMARK    2  A    between atoms: N_4  and  C_5
REMARK    3  A    between atoms: C_7  and  O_9
REMARK    4  A    between atoms: C_13  and  C_26
REMARK    5  A    between atoms: C_16  and  C_18
REMARK    6  A    between atoms: C_18  and  O_20
REMARK    7  A    between atoms: C_18  and  C_21
REMARK    8  A    between atoms: C_21  and  O_23
REMARK    9  A    between atoms: C_21  and  C_24
REMARK   10  A    between atoms: C_24  and  O_25
REMARK   11  A    between atoms: C_26  and  O_27
REMARK                            x       y       z     vdW  Elec       q    Type
REMARK                         _______ _______ _______ _____ _____    ______ ____
ROOT
ATOM      1  C   UNL     1       9.064  -1.190  24.242  0.00  0.00    +0.136 C 
ATOM      2  C   UNL     1       8.119   0.035  24.404  0.00  0.00    +0.173 C 
ATOM      3  O   UNL     1       7.548   0.417  23.134  0.00  0.00    -0.355 OA
ATOM      4  C   UNL     1       8.510   0.740  22.107  0.00  0.00    +0.263 C 
ATOM      5  C   UNL     1       9.523  -0.382  21.883  0.00  0.00    +0.236 C 
ATOM      6  F   UNL     1       8.892  -1.424  21.273  0.00  0.00    -0.239 F 
ATOM      7  C   UNL     1      10.150  -0.837  23.196  0.00  0.00    +0.174 C 
ENDROOT
BRANCH   1  10
ATOM      8  C   UNL     1       7.811  -4.729  23.586  0.00  0.00    +0.109 C 
ATOM      9  C   UNL     1       8.781  -3.667  24.033  0.00  0.00    +0.210 C 
ATOM     10  N   UNL     1       8.314  -2.389  23.858  0.00  0.00    -0.308 N 
ATOM     11  H   UNL     1       7.304  -2.275  23.753  0.00  0.00    +0.149 HD
ATOM     12  O   UNL     1       9.881  -3.931  24.504  0.00  0.00    -0.276 OA
ENDBRANCH   1  10
BRANCH   4  13
ATOM     13  C   UNL     1       9.188   2.095  22.337  0.00  0.00    +0.337 C 
ATOM     14  O   UNL     1       8.728   2.970  23.067  0.00  0.00    -0.248 OA
BRANCH  13  15
ATOM     15  O   UNL     1      10.310   2.316  21.614  0.00  0.00    -0.479 OA
ATOM     16  H   UNL     1      10.600   1.600  21.018  0.00  0.00    +0.295 HD
ENDBRANCH  13  15
ENDBRANCH   4  13
BRANCH   7  17
ATOM     17  O   UNL     1      11.011   0.228  23.632  0.00  0.00    -0.387 OA
ATOM     18  H   UNL     1      10.487   1.000  23.910  0.00  0.00    +0.210 HD
ENDBRANCH   7  17
BRANCH   2  19
ATOM     19  C   UNL     1       6.966  -0.232  25.412  0.00  0.00    +0.176 C 
BRANCH  19  20
ATOM     20  O   UNL     1       5.911  -0.955  24.751  0.00  0.00    -0.387 OA
ATOM     21  H   UNL     1       5.078  -0.515  25.033  0.00  0.00    +0.210 HD
ENDBRANCH  19  20
BRANCH  19  22
ATOM     22  C   UNL     1       6.378   1.064  26.016  0.00  0.00    +0.171 C 
BRANCH  22  23
ATOM     23  O   UNL     1       7.179   2.194  25.643  0.00  0.00    -0.387 OA
ATOM     24  H   UNL     1       7.978   1.848  25.194  0.00  0.00    +0.210 HD
ENDBRANCH  22  23
BRANCH  22  25
ATOM     25  C   UNL     1       4.947   1.315  25.503  0.00  0.00    +0.189 C 
BRANCH  25  26
ATOM     26  O   UNL     1       4.913   1.618  24.108  0.00  0.00    -0.392 OA
ATOM     27  H   UNL     1       5.678   2.182  23.899  0.00  0.00    +0.210 HD
ENDBRANCH  25  26
ENDBRANCH  22  25
ENDBRANCH  19  22
ENDBRANCH   2  19
TORSDOF 10
ENDMDL
MODEL 4
REMARK VINA RESULT:      -5.7      2.888      5.597
REMARK  Name = 
REMARK  11 active torsions:
REMARK  status: ('A' for Active; 'I' for Inactive)
REMARK    1  A    between atoms: C_1  and  C_2
REMARK    2  A    between atoms: N_4  and  C_5
REMARK    3  A    between atoms: C_7  and  O_9
REMARK    4  A    between atoms: C_13  and  C_26
REMARK    5  A    between atoms: C_16  and  C_18
REMARK    6  A    between atoms: C_18  and  O_20
REMARK    7  A    between atoms: C_18  and  C_21
REMARK    8  A    between atoms: C_21  and  O_23
REMARK    9  A    between atoms: C_21  and  C_24
REMARK   10  A    between atoms: C_24  and  O_25
REMARK   11  A    between atoms: C_26  and  O_27
REMARK                            x       y       z     vdW  Elec       q    Type
REMARK                         _______ _______ _______ _____ _____    ______ ____
ROOT
ATOM      1  C   UNL     1       7.084  -1.957  23.048  0.00  0.00    +0.136 C 
ATOM      2  C   UNL     1       8.426  -1.201  23.269  0.00  0.00    +0.173 C 
ATOM      3  O   UNL     1       9.239  -1.873  24.256  0.00  0.00    -0.355 OA
ATOM      4  C   UNL     1       8.614  -2.040  25.547  0.00  0.00    +0.263 C 
ATOM      5  C   UNL     1       7.260  -2.742  25.453  0.00  0.00    +0.236 C 
ATOM      6  F   UNL     1       7.469  -4.051  25.137  0.00  0.00    -0.239 F 
ATOM      7  C   UNL     1       6.361  -2.083  24.412  0.00  0.00    +0.174 C 
ENDROOT
BRANCH   1  10
ATOM      8  C   UNL     1       6.801  -5.340  21.314  0.00  0.00    +0.109 C 
ATOM      9  C   UNL     1       6.309  -4.050  21.918  0.00  0.00    +0.210 C 
ATOM     10  N   UNL     1       7.311  -3.268  22.434  0.00  0.00    -0.308 N 
ATOM     11  H   UNL     1       8.260  -3.454  22.105  0.00  0.00    +0.149 HD
ATOM     12  O   UNL     1       5.124  -3.740  21.942  0.00  0.00    -0.276 OA
ENDBRANCH   1  10
BRANCH   4  13
ATOM     13  C   UNL     1       8.533  -0.731  26.339  0.00  0.00    +0.337 C 
ATOM     14  O   UNL     1       7.595  -0.442  27.078  0.00  0.00    -0.248 OA
BRANCH  13  15
ATOM     15  O   UNL     1       9.536   0.150  26.116  0.00  0.00    -0.479 OA
ATOM     16  H   UNL     1       9.394   1.067  26.418  0.00  0.00    +0.295 HD
ENDBRANCH  13  15
ENDBRANCH   4  13
BRANCH   7  17
ATOM     17  O   UNL     1       5.974  -0.809  24.950  0.00  0.00    -0.387 OA
ATOM     18  H   UNL     1       6.750  -0.329  25.288  0.00  0.00    +0.210 HD
ENDBRANCH   7  17
BRANCH   2  19
ATOM     19  C   UNL     1       9.248  -1.054  21.958  0.00  0.00    +0.176 C 
BRANCH  19  20
ATOM     20  O   UNL     1      10.398  -1.919  22.015  0.00  0.00    -0.387 OA
ATOM     21  H   UNL     1      10.976  -1.539  22.714  0.00  0.00    +0.210 HD
ENDBRANCH  19  20
BRANCH  19  22
ATOM     22  C   UNL     1       9.728   0.394  21.705  0.00  0.00    +0.171 C 
BRANCH  22  23
ATOM     23  O   UNL     1       8.740   1.123  20.964  0.00  0.00    -0.387 OA
ATOM     24  H   UNL     1       9.218   1.744  20.375  0.00  0.00    +0.210 HD
ENDBRANCH  22  23
BRANCH  22  25
ATOM     25  C   UNL     1       9.962   1.141  23.033  0.00  0.00    +0.189 C 
BRANCH  25  26
ATOM     26  O   UNL     1      11.032   0.578  23.793  0.00  0.00    -0.392 OA
ATOM     27  H   UNL     1      11.712   0.258  23.174  0.00  0.00    +0.210 HD
ENDBRANCH  25  26
ENDBRANCH  22  25
ENDBRANCH  19  22
ENDBRANCH   2  19
TORSDOF 10
ENDMDL
MODEL 5
REMARK VINA RESULT:      -5.5      2.160      4.517
REMARK  Name = 
REMARK  11 active torsions:
REMARK  status: ('A' for Active; 'I' for Inactive)
REMARK    1  A    between atoms: C_1  and  C_2
REMARK    2  A    between atoms: N_4  and  C_5
REMARK    3  A    between atoms: C_7  and  O_9
REMARK    4  A    between atoms: C_13  and  C_26
REMARK    5  A    between atoms: C_16  and  C_18
REMARK    6  A    between atoms: C_18  and  O_20
REMARK    7  A    between atoms: C_18  and  C_21
REMARK    8  A    between atoms: C_21  and  O_23
REMARK    9  A    between atoms: C_21  and  C_24
REMARK   10  A    between atoms: C_24  and  O_25
REMARK   11  A    between atoms: C_26  and  O_27
REMARK                            x       y       z     vdW  Elec       q    Type
REMARK                         _______ _______ _______ _____ _____    ______ ____
ROOT
ATOM      1  C   UNL     1       8.455  -3.996  24.391  0.00  0.00    +0.136 C 
ATOM      2  C   UNL     1       8.411  -3.635  25.903  0.00  0.00    +0.173 C 
ATOM      3  O   UNL     1       7.463  -2.574  26.152  0.00  0.00    -0.355 OA
ATOM      4  C   UNL     1       7.707  -1.355  25.419  0.00  0.00    +0.263 C 
ATOM      5  C   UNL     1       7.809  -1.591  23.912  0.00  0.00    +0.236 C 
ATOM      6  F   UNL     1       6.569  -1.892  23.433  0.00  0.00    -0.239 F 
ATOM      7  C   UNL     1       8.789  -2.713  23.589  0.00  0.00    +0.174 C 
ENDROOT
BRANCH   1  10
ATOM      8  C   UNL     1       5.688  -6.005  22.706  0.00  0.00    +0.109 C 
ATOM      9  C   UNL     1       7.094  -5.522  22.948  0.00  0.00    +0.210 C 
ATOM     10  N   UNL     1       7.190  -4.592  23.953  0.00  0.00    -0.308 N 
ATOM     11  H   UNL     1       6.417  -4.548  24.619  0.00  0.00    +0.149 HD
ATOM     12  O   UNL     1       8.054  -5.925  22.302  0.00  0.00    -0.276 OA
ENDBRANCH   1  10
BRANCH   4  13
ATOM     13  C   UNL     1       8.903  -0.566  25.963  0.00  0.00    +0.337 C 
ATOM     14  O   UNL     1       9.672   0.076  25.253  0.00  0.00    -0.248 OA
BRANCH  13  15
ATOM     15  O   UNL     1       9.121  -0.681  27.293  0.00  0.00    -0.479 OA
ATOM     16  H   UNL     1       9.542  -1.505  27.603  0.00  0.00    +0.295 HD
ENDBRANCH  13  15
ENDBRANCH   4  13
BRANCH   7  17
ATOM     17  O   UNL     1      10.103  -2.209  23.878  0.00  0.00    -0.387 OA
ATOM     18  H   UNL     1      10.422  -2.553  24.730  0.00  0.00    +0.210 HD
ENDBRANCH   7  17
BRANCH   2  19
ATOM     19  C   UNL     1       8.046  -4.853  26.796  0.00  0.00    +0.176 C 
BRANCH  19  20
ATOM     20  O   UNL     1       8.596  -6.052  26.217  0.00  0.00    -0.387 OA
ATOM     21  H   UNL     1       8.945  -6.570  26.976  0.00  0.00    +0.210 HD
ENDBRANCH  19  20
BRANCH  19  22
ATOM     22  C   UNL     1       6.521  -5.040  26.970  0.00  0.00    +0.171 C 
BRANCH  22  23
ATOM     23  O   UNL     1       6.058  -6.130  26.161  0.00  0.00    -0.387 OA
ATOM     24  H   UNL     1       5.244  -6.478  26.581  0.00  0.00    +0.210 HD
ENDBRANCH  22  23
BRANCH  22  25
ATOM     25  C   UNL     1       6.166  -5.361  28.435  0.00  0.00    +0.189 C 
BRANCH  25  26
ATOM     26  O   UNL     1       6.873  -6.498  28.931  0.00  0.00    -0.392 OA
ATOM     27  H   UNL     1       6.300  -7.279  28.836  0.00  0.00    +0.210 HD
ENDBRANCH  25  26
ENDBRANCH  22  25
ENDBRANCH  19  22
ENDBRANCH   2  19
TORSDOF 10
ENDMDL
MODEL 6
REMARK VINA RESULT:      -5.5      1.757      2.401
REMARK  Name = 
REMARK  11 active torsions:
REMARK  status: ('A' for Active; 'I' for Inactive)
REMARK    1  A    between atoms: C_1  and  C_2
REMARK    2  A    between atoms: N_4  and  C_5
REMARK    3  A    between atoms: C_7  and  O_9
REMARK    4  A    between atoms: C_13  and  C_26
REMARK    5  A    between atoms: C_16  and  C_18
REMARK    6  A    between atoms: C_18  and  O_20
REMARK    7  A    between atoms: C_18  and  C_21
REMARK    8  A    between atoms: C_21  and  O_23
REMARK    9  A    between atoms: C_21  and  C_24
REMARK   10  A    between atoms: C_24  and  O_25
REMARK   11  A    between atoms: C_26  and  O_27
REMARK                            x       y       z     vdW  Elec       q    Type
REMARK                         _______ _______ _______ _____ _____    ______ ____
ROOT
ATOM      1  C   UNL     1       8.428  -1.958  22.843  0.00  0.00    +0.136 C 
ATOM      2  C   UNL     1       7.681  -3.314  22.985  0.00  0.00    +0.173 C 
ATOM      3  O   UNL     1       7.203  -3.500  24.336  0.00  0.00    -0.355 OA
ATOM      4  C   UNL     1       8.224  -3.455  25.354  0.00  0.00    +0.263 C 
ATOM      5  C   UNL     1       9.056  -2.175  25.290  0.00  0.00    +0.236 C 
ATOM      6  F   UNL     1       8.285  -1.132  25.705  0.00  0.00    -0.239 F 
ATOM      7  C   UNL     1       9.578  -1.920  23.880  0.00  0.00    +0.174 C 
ENDROOT
BRANCH   1  10
ATOM      8  C   UNL     1       6.638   1.407  22.791  0.00  0.00    +0.109 C 
ATOM      9  C   UNL     1       7.747   0.426  22.510  0.00  0.00    +0.210 C 
ATOM     10  N   UNL     1       7.510  -0.828  23.012  0.00  0.00    -0.308 N 
ATOM     11  H   UNL     1       6.541  -1.064  23.234  0.00  0.00    +0.149 HD
ATOM     12  O   UNL     1       8.759   0.731  21.891  0.00  0.00    -0.276 OA
ENDBRANCH   1  10
BRANCH   4  13
ATOM     13  C   UNL     1       9.098  -4.713  25.371  0.00  0.00    +0.337 C 
ATOM     14  O   UNL     1       9.215  -5.472  24.411  0.00  0.00    -0.248 OA
BRANCH  13  15
ATOM     15  O   UNL     1       9.690  -4.998  26.554  0.00  0.00    -0.479 OA
ATOM     16  H   UNL     1      10.566  -4.600  26.718  0.00  0.00    +0.295 HD
ENDBRANCH  13  15
ENDBRANCH   4  13
BRANCH   7  17
ATOM     17  O   UNL     1      10.583  -2.914  23.626  0.00  0.00    -0.387 OA
ATOM     18  H   UNL     1      10.814  -2.934  22.681  0.00  0.00    +0.210 HD
ENDBRANCH   7  17
BRANCH   2  19
ATOM     19  C   UNL     1       6.479  -3.437  22.007  0.00  0.00    +0.176 C 
BRANCH  19  20
ATOM     20  O   UNL     1       5.405  -2.592  22.460  0.00  0.00    -0.387 OA
ATOM     21  H   UNL     1       5.537  -1.734  21.999  0.00  0.00    +0.210 HD
ENDBRANCH  19  20
BRANCH  19  22
ATOM     22  C   UNL     1       5.952  -4.885  21.876  0.00  0.00    +0.171 C 
BRANCH  22  23
ATOM     23  O   UNL     1       6.944  -5.819  22.323  0.00  0.00    -0.387 OA
ATOM     24  H   UNL     1       7.239  -6.326  21.538  0.00  0.00    +0.210 HD
ENDBRANCH  22  23
BRANCH  22  25
ATOM     25  C   UNL     1       4.690  -5.095  22.736  0.00  0.00    +0.189 C 
BRANCH  25  26
ATOM     26  O   UNL     1       3.990  -6.292  22.393  0.00  0.00    -0.392 OA
ATOM     27  H   UNL     1       4.633  -7.023  22.360  0.00  0.00    +0.210 HD
ENDBRANCH  25  26
ENDBRANCH  22  25
ENDBRANCH  19  22
ENDBRANCH   2  19
TORSDOF 10
ENDMDL
MODEL 7
REMARK VINA RESULT:      -5.5      2.458      5.565
REMARK  Name = 
REMARK  11 active torsions:
REMARK  status: ('A' for Active; 'I' for Inactive)
REMARK    1  A    between atoms: C_1  and  C_2
REMARK    2  A    between atoms: N_4  and  C_5
REMARK    3  A    between atoms: C_7  and  O_9
REMARK    4  A    between atoms: C_13  and  C_26
REMARK    5  A    between atoms: C_16  and  C_18
REMARK    6  A    between atoms: C_18  and  O_20
REMARK    7  A    between atoms: C_18  and  C_21
REMARK    8  A    between atoms: C_21  and  O_23
REMARK    9  A    between atoms: C_21  and  C_24
REMARK   10  A    between atoms: C_24  and  O_25
REMARK   11  A    between atoms: C_26  and  O_27
REMARK                            x       y       z     vdW  Elec       q    Type
REMARK                         _______ _______ _______ _____ _____    ______ ____
ROOT
ATOM      1  C   UNL     1       8.220  -1.752  22.811  0.00  0.00    +0.136 C 
ATOM      2  C   UNL     1       9.304  -1.869  23.920  0.00  0.00    +0.173 C 
ATOM      3  O   UNL     1       9.027  -0.961  25.009  0.00  0.00    -0.355 OA
ATOM      4  C   UNL     1       8.935   0.430  24.633  0.00  0.00    +0.263 C 
ATOM      5  C   UNL     1       7.919   0.665  23.515  0.00  0.00    +0.236 C 
ATOM      6  F   UNL     1       6.666   0.489  24.019  0.00  0.00    -0.239 F 
ATOM      7  C   UNL     1       8.155  -0.278  22.340  0.00  0.00    +0.174 C 
ENDROOT
BRANCH   1  10
ATOM      8  C   UNL     1       4.849  -3.456  23.321  0.00  0.00    +0.109 C 
ATOM      9  C   UNL     1       6.124  -3.102  22.601  0.00  0.00    +0.210 C 
ATOM     10  N   UNL     1       6.918  -2.223  23.293  0.00  0.00    -0.308 N 
ATOM     11  H   UNL     1       6.752  -2.139  24.297  0.00  0.00    +0.149 HD
ATOM     12  O   UNL     1       6.413  -3.561  21.503  0.00  0.00    -0.276 OA
ENDBRANCH   1  10
BRANCH   4  13
ATOM     13  C   UNL     1      10.300   1.049  24.315  0.00  0.00    +0.337 C 
ATOM     14  O   UNL     1      11.361   0.614  24.755  0.00  0.00    -0.248 OA
BRANCH  13  15
ATOM     15  O   UNL     1      10.269   2.177  23.569  0.00  0.00    -0.479 OA
ATOM     16  H   UNL     1      10.821   2.190  22.764  0.00  0.00    +0.295 HD
ENDBRANCH  13  15
ENDBRANCH   4  13
BRANCH   7  17
ATOM     17  O   UNL     1       9.370   0.152  21.705  0.00  0.00    -0.387 OA
ATOM     18  H   UNL     1       9.214   0.951  21.172  0.00  0.00    +0.210 HD
ENDBRANCH   7  17
BRANCH   2  19
ATOM     19  C   UNL     1       9.423  -3.311  24.487  0.00  0.00    +0.176 C 
BRANCH  19  20
ATOM     20  O   UNL     1       8.756  -4.230  23.601  0.00  0.00    -0.387 OA
ATOM     21  H   UNL     1       8.101  -3.688  23.109  0.00  0.00    +0.210 HD
ENDBRANCH  19  20
BRANCH  19  22
ATOM     22  C   UNL     1       8.816  -3.456  25.902  0.00  0.00    +0.171 C 
BRANCH  22  23
ATOM     23  O   UNL     1       7.393  -3.283  25.852  0.00  0.00    -0.387 OA
ATOM     24  H   UNL     1       7.120  -2.882  26.704  0.00  0.00    +0.210 HD
ENDBRANCH  22  23
BRANCH  22  25
ATOM     25  C   UNL     1       9.098  -4.855  26.485  0.00  0.00    +0.189 C 
BRANCH  25  26
ATOM     26  O   UNL     1      10.199  -5.500  25.845  0.00  0.00    -0.392 OA
ATOM     27  H   UNL     1      10.064  -5.451  24.882  0.00  0.00    +0.210 HD
ENDBRANCH  25  26
ENDBRANCH  22  25
ENDBRANCH  19  22
ENDBRANCH   2  19
TORSDOF 10
ENDMDL
MODEL 8
REMARK VINA RESULT:      -5.5      2.541      5.186
REMARK  Name = 
REMARK  11 active torsions:
REMARK  status: ('A' for Active; 'I' for Inactive)
REMARK    1  A    between atoms: C_1  and  C_2
REMARK    2  A    between atoms: N_4  and  C_5
REMARK    3  A    between atoms: C_7  and  O_9
REMARK    4  A    between atoms: C_13  and  C_26
REMARK    5  A    between atoms: C_16  and  C_18
REMARK    6  A    between atoms: C_18  and  O_20
REMARK    7  A    between atoms: C_18  and  C_21
REMARK    8  A    between atoms: C_21  and  O_23
REMARK    9  A    between atoms: C_21  and  C_24
REMARK   10  A    between atoms: C_24  and  O_25
REMARK   11  A    between atoms: C_26  and  O_27
REMARK                            x       y       z     vdW  Elec       q    Type
REMARK                         _______ _______ _______ _____ _____    ______ ____
ROOT
ATOM      1  C   UNL     1       8.666  -1.512  24.580  0.00  0.00    +0.136 C 
ATOM      2  C   UNL     1       7.560  -1.079  23.575  0.00  0.00    +0.173 C 
ATOM      3  O   UNL     1       8.042  -1.152  22.215  0.00  0.00    -0.355 OA
ATOM      4  C   UNL     1       9.215  -0.357  21.942  0.00  0.00    +0.263 C 
ATOM      5  C   UNL     1      10.366  -0.669  22.898  0.00  0.00    +0.236 C 
ATOM      6  F   UNL     1      10.860  -1.903  22.598  0.00  0.00    -0.239 F 
ATOM      7  C   UNL     1       9.912  -0.620  24.353  0.00  0.00    +0.174 C 
ENDROOT
BRANCH   1  10
ATOM      8  C   UNL     1       9.320  -5.236  25.063  0.00  0.00    +0.109 C 
ATOM      9  C   UNL     1       8.990  -3.825  25.476  0.00  0.00    +0.210 C 
ATOM     10  N   UNL     1       8.986  -2.935  24.432  0.00  0.00    -0.308 N 
ATOM     11  H   UNL     1       8.893  -3.322  23.492  0.00  0.00    +0.149 HD
ATOM     12  O   UNL     1       8.751  -3.514  26.637  0.00  0.00    -0.276 OA
ENDBRANCH   1  10
BRANCH   4  13
ATOM     13  C   UNL     1       8.911   1.143  21.873  0.00  0.00    +0.337 C 
ATOM     14  O   UNL     1       7.806   1.624  22.114  0.00  0.00    -0.248 OA
BRANCH  13  15
ATOM     15  O   UNL     1       9.928   1.926  21.445  0.00  0.00    -0.479 OA
ATOM     16  H   UNL     1      10.741   1.472  21.151  0.00  0.00    +0.295 HD
ENDBRANCH  13  15
ENDBRANCH   4  13
BRANCH   7  17
ATOM     17  O   UNL     1       9.665   0.761  24.661  0.00  0.00    -0.387 OA
ATOM     18  H   UNL     1       9.496   0.874  25.612  0.00  0.00    +0.210 HD
ENDBRANCH   7  17
BRANCH   2  19
ATOM     19  C   UNL     1       6.273  -1.941  23.698  0.00  0.00    +0.176 C 
BRANCH  19  20
ATOM     20  O   UNL     1       6.311  -2.684  24.932  0.00  0.00    -0.387 OA
ATOM     21  H   UNL     1       7.265  -2.816  25.127  0.00  0.00    +0.210 HD
ENDBRANCH  19  20
BRANCH  19  22
ATOM     22  C   UNL     1       6.096  -2.934  22.526  0.00  0.00    +0.171 C 
BRANCH  22  23
ATOM     23  O   UNL     1       7.276  -3.733  22.368  0.00  0.00    -0.387 OA
ATOM     24  H   UNL     1       7.854  -3.274  21.723  0.00  0.00    +0.210 HD
ENDBRANCH  22  23
BRANCH  22  25
ATOM     25  C   UNL     1       4.914  -3.889  22.782  0.00  0.00    +0.189 C 
BRANCH  25  26
ATOM     26  O   UNL     1       5.025  -5.104  22.040  0.00  0.00    -0.392 OA
ATOM     27  H   UNL     1       5.928  -5.160  21.680  0.00  0.00    +0.210 HD
ENDBRANCH  25  26
ENDBRANCH  22  25
ENDBRANCH  19  22
ENDBRANCH   2  19
TORSDOF 10
ENDMDL
MODEL 9
REMARK VINA RESULT:      -5.4      2.078      4.170
REMARK  Name = 
REMARK  11 active torsions:
REMARK  status: ('A' for Active; 'I' for Inactive)
REMARK    1  A    between atoms: C_1  and  C_2
REMARK    2  A    between atoms: N_4  and  C_5
REMARK    3  A    between atoms: C_7  and  O_9
REMARK    4  A    between atoms: C_13  and  C_26
REMARK    5  A    between atoms: C_16  and  C_18
REMARK    6  A    between atoms: C_18  and  O_20
REMARK    7  A    between atoms: C_18  and  C_21
REMARK    8  A    between atoms: C_21  and  O_23
REMARK    9  A    between atoms: C_21  and  C_24
REMARK   10  A    between atoms: C_24  and  O_25
REMARK   11  A    between atoms: C_26  and  O_27
REMARK                            x       y       z     vdW  Elec       q    Type
REMARK                         _______ _______ _______ _____ _____    ______ ____
ROOT
ATOM      1  C   UNL     1       6.287  -2.335  23.996  0.00  0.00    +0.136 C 
ATOM      2  C   UNL     1       6.213  -3.743  24.653  0.00  0.00    +0.173 C 
ATOM      3  O   UNL     1       7.362  -4.541  24.292  0.00  0.00    -0.355 OA
ATOM      4  C   UNL     1       7.549  -4.731  22.874  0.00  0.00    +0.263 C 
ATOM      5  C   UNL     1       7.599  -3.408  22.110  0.00  0.00    +0.236 C 
ATOM      6  F   UNL     1       8.771  -2.778  22.406  0.00  0.00    -0.239 F 
ATOM      7  C   UNL     1       6.415  -2.516  22.463  0.00  0.00    +0.174 C 
ENDROOT
BRANCH   1  10
ATOM      8  C   UNL     1       8.647   0.380  25.253  0.00  0.00    +0.109 C 
ATOM      9  C   UNL     1       7.400  -0.185  24.625  0.00  0.00    +0.210 C 
ATOM     10  N   UNL     1       7.400  -1.555  24.543  0.00  0.00    -0.308 N 
ATOM     11  H   UNL     1       8.044  -2.056  25.157  0.00  0.00    +0.149 HD
ATOM     12  O   UNL     1       6.481   0.520  24.227  0.00  0.00    -0.276 OA
ENDBRANCH   1  10
BRANCH   4  13
ATOM     13  C   UNL     1       6.538  -5.710  22.269  0.00  0.00    +0.337 C 
ATOM     14  O   UNL     1       5.872  -6.498  22.937  0.00  0.00    -0.248 OA
BRANCH  13  15
ATOM     15  O   UNL     1       6.471  -5.720  20.918  0.00  0.00    -0.479 OA
ATOM     16  H   UNL     1       7.317  -5.684  20.433  0.00  0.00    +0.295 HD
ENDBRANCH  13  15
ENDBRANCH   4  13
BRANCH   7  17
ATOM     17  O   UNL     1       5.252  -3.125  21.881  0.00  0.00    -0.387 OA
ATOM     18  H   UNL     1       5.363  -3.227  20.919  0.00  0.00    +0.210 HD
ENDBRANCH   7  17
BRANCH   2  19
ATOM     19  C   UNL     1       6.119  -3.672  26.203  0.00  0.00    +0.176 C 
BRANCH  19  20
ATOM     20  O   UNL     1       7.398  -3.288  26.743  0.00  0.00    -0.387 OA
ATOM     21  H   UNL     1       7.450  -3.724  27.623  0.00  0.00    +0.210 HD
ENDBRANCH  19  20
BRANCH  19  22
ATOM     22  C   UNL     1       5.690  -5.012  26.845  0.00  0.00    +0.171 C 
BRANCH  22  23
ATOM     23  O   UNL     1       5.388  -5.977  25.828  0.00  0.00    -0.387 OA
ATOM     24  H   UNL     1       6.173  -6.040  25.245  0.00  0.00    +0.210 HD
ENDBRANCH  22  23
BRANCH  22  25
ATOM     25  C   UNL     1       6.817  -5.593  27.721  0.00  0.00    +0.189 C 
BRANCH  25  26
ATOM     26  O   UNL     1       7.943  -6.017  26.951  0.00  0.00    -0.392 OA
ATOM     27  H   UNL     1       7.979  -5.477  26.141  0.00  0.00    +0.210 HD
ENDBRANCH  25  26
ENDBRANCH  22  25
ENDBRANCH  19  22
ENDBRANCH   2  19
TORSDOF 10
ENDMDL
