MODEL 1
REMARK VINA RESULT:      -6.5      0.000      0.000
REMARK  Name = 
REMARK  5 active torsions:
REMARK  status: ('A' for Active; 'I' for Inactive)
REMARK    1  A    between atoms: O_1  and  C_2
REMARK    2  A    between atoms: C_4  and  C_5
REMARK    3  A    between atoms: N_19  and  C_20
REMARK    4  A    between atoms: C_20  and  C_21
REMARK    5  A    between atoms: C_21  and  C_22
REMARK                            x       y       z     vdW  Elec       q    Type
REMARK                         _______ _______ _______ _____ _____    ______ ____
ROOT
ATOM      1  C   UNL     1       5.944  -3.459  22.277  0.00  0.00    +0.320 C 
ATOM      2  C   UNL     1       6.392  -4.549  23.305  0.00  0.00    +0.271 C 
ATOM      3  O   UNL     1       6.898  -5.620  22.965  0.00  0.00    -0.270 OA
ATOM      4  N   UNL     1       6.160  -4.237  24.658  0.00  0.00    -0.266 N 
ATOM      5  C   UNL     1       5.776  -2.931  25.100  0.00  0.00    +0.046 A 
ATOM      6  C   UNL     1       4.888  -2.824  26.186  0.00  0.00    +0.025 A 
ATOM      7  C   UNL     1       4.523  -1.583  26.714  0.00  0.00    +0.022 A 
ATOM      8  C   UNL     1       5.029  -0.421  26.151  0.00  0.00    +0.042 A 
ATOM      9  C   UNL     1       5.850  -0.486  25.031  0.00  0.00    +0.032 A 
ATOM     10 CL   UNL     1       4.651   1.105  26.848  0.00  0.00    -0.084 Cl
ATOM     11  C   UNL     1       6.237  -1.735  24.503  0.00  0.00    +0.023 A 
ATOM     12  C   UNL     1       7.153  -1.711  23.316  0.00  0.00    +0.081 C 
ATOM     13  N   UNL     1       7.005  -2.462  22.277  0.00  0.00    -0.243 NA
ENDROOT
BRANCH  12  14
ATOM     14  C   UNL     1       8.293  -0.737  23.276  0.00  0.00    +0.036 A 
ATOM     15  C   UNL     1       9.336  -0.784  24.202  0.00  0.00    +0.133 A 
ATOM     16  F   UNL     1       9.382  -1.739  25.143  0.00  0.00    -0.205 F 
ATOM     17  C   UNL     1      10.363   0.156  24.171  0.00  0.00    +0.039 A 
ATOM     18  C   UNL     1      10.373   1.140  23.183  0.00  0.00    +0.003 A 
ATOM     19  C   UNL     1       9.358   1.176  22.226  0.00  0.00    +0.001 A 
ATOM     20  C   UNL     1       8.320   0.240  22.270  0.00  0.00    +0.013 A 
ENDBRANCH  12  14
BRANCH   1  21
ATOM     21  O   UNL     1       5.736  -3.961  20.973  0.00  0.00    -0.364 OA
ATOM     22  H   UNL     1       6.226  -3.327  20.421  0.00  0.00    +0.212 HD
ENDBRANCH   1  21
BRANCH   4  23
ATOM     23  C   UNL     1       6.501  -5.270  25.663  0.00  0.00    +0.128 C 
BRANCH  23  24
ATOM     24  C   UNL     1       7.720  -4.881  26.503  0.00  0.00    +0.138 C 
BRANCH  24  25
ATOM     25  C   UNL     1       9.003  -4.929  25.689  0.00  0.00    +0.064 C 
ATOM     26  N   UNL     1      10.067  -4.969  25.014  0.00  0.00    -0.197 NA
ENDBRANCH  24  25
ENDBRANCH  23  24
ENDBRANCH   4  23
TORSDOF 5
ENDMDL
MODEL 2
REMARK VINA RESULT:      -6.3      3.253      4.465
REMARK  Name = 
REMARK  5 active torsions:
REMARK  status: ('A' for Active; 'I' for Inactive)
REMARK    1  A    between atoms: O_1  and  C_2
REMARK    2  A    between atoms: C_4  and  C_5
REMARK    3  A    between atoms: N_19  and  C_20
REMARK    4  A    between atoms: C_20  and  C_21
REMARK    5  A    between atoms: C_21  and  C_22
REMARK                            x       y       z     vdW  Elec       q    Type
REMARK                         _______ _______ _______ _____ _____    ______ ____
ROOT
ATOM      1  C   UNL     1       8.657  -4.831  25.982  0.00  0.00    +0.320 C 
ATOM      2  C   UNL     1       7.272  -4.615  26.676  0.00  0.00    +0.271 C 
ATOM      3  O   UNL     1       7.162  -4.253  27.850  0.00  0.00    -0.270 OA
ATOM      4  N   UNL     1       6.146  -4.883  25.876  0.00  0.00    -0.266 N 
ATOM      5  C   UNL     1       6.228  -5.095  24.463  0.00  0.00    +0.046 A 
ATOM      6  C   UNL     1       5.352  -6.024  23.872  0.00  0.00    +0.025 A 
ATOM      7  C   UNL     1       5.331  -6.232  22.490  0.00  0.00    +0.022 A 
ATOM      8  C   UNL     1       6.201  -5.525  21.674  0.00  0.00    +0.042 A 
ATOM      9  C   UNL     1       7.130  -4.655  22.232  0.00  0.00    +0.032 A 
ATOM     10 CL   UNL     1       6.122  -5.716  19.968  0.00  0.00    -0.084 Cl
ATOM     11  C   UNL     1       7.147  -4.425  23.623  0.00  0.00    +0.023 A 
ATOM     12  C   UNL     1       8.159  -3.442  24.133  0.00  0.00    +0.081 C 
ATOM     13  N   UNL     1       8.883  -3.636  25.183  0.00  0.00    -0.243 NA
ENDROOT
BRANCH  12  14
ATOM     14  C   UNL     1       8.406  -2.171  23.377  0.00  0.00    +0.036 A 
ATOM     15  C   UNL     1       7.454  -1.153  23.317  0.00  0.00    +0.133 A 
ATOM     16  F   UNL     1       6.290  -1.255  23.974  0.00  0.00    -0.205 F 
ATOM     17  C   UNL     1       7.689   0.003  22.575  0.00  0.00    +0.039 A 
ATOM     18  C   UNL     1       8.904   0.166  21.910  0.00  0.00    +0.003 A 
ATOM     19  C   UNL     1       9.881  -0.826  21.995  0.00  0.00    +0.001 A 
ATOM     20  C   UNL     1       9.636  -1.992  22.727  0.00  0.00    +0.013 A 
ENDBRANCH  12  14
BRANCH   1  21
ATOM     21  O   UNL     1       9.721  -5.029  26.890  0.00  0.00    -0.364 OA
ATOM     22  H   UNL     1       9.889  -4.129  27.220  0.00  0.00    +0.212 HD
ENDBRANCH   1  21
BRANCH   4  23
ATOM     23  C   UNL     1       4.814  -4.763  26.513  0.00  0.00    +0.128 C 
BRANCH  23  24
ATOM     24  C   UNL     1       4.213  -6.128  26.859  0.00  0.00    +0.138 C 
BRANCH  24  25
ATOM     25  C   UNL     1       5.029  -6.851  27.918  0.00  0.00    +0.064 C 
ATOM     26  N   UNL     1       5.706  -7.452  28.795  0.00  0.00    -0.197 NA
ENDBRANCH  24  25
ENDBRANCH  23  24
ENDBRANCH   4  23
TORSDOF 5
ENDMDL
MODEL 3
REMARK VINA RESULT:      -6.3      2.581      4.912
REMARK  Name = 
REMARK  5 active torsions:
REMARK  status: ('A' for Active; 'I' for Inactive)
REMARK    1  A    between atoms: O_1  and  C_2
REMARK    2  A    between atoms: C_4  and  C_5
REMARK    3  A    between atoms: N_19  and  C_20
REMARK    4  A    between atoms: C_20  and  C_21
REMARK    5  A    between atoms: C_21  and  C_22
REMARK                            x       y       z     vdW  Elec       q    Type
REMARK                         _______ _______ _______ _____ _____    ______ ____
ROOT
ATOM      1  C   UNL     1       9.003  -3.787  25.643  0.00  0.00    +0.320 C 
ATOM      2  C   UNL     1       8.074  -4.303  24.495  0.00  0.00    +0.271 C 
ATOM      3  O   UNL     1       7.411  -5.339  24.587  0.00  0.00    -0.270 OA
ATOM      4  N   UNL     1       8.057  -3.516  23.329  0.00  0.00    -0.266 N 
ATOM      5  C   UNL     1       8.640  -2.209  23.264  0.00  0.00    +0.046 A 
ATOM      6  C   UNL     1       9.250  -1.806  22.063  0.00  0.00    +0.025 A 
ATOM      7  C   UNL     1       9.779  -0.522  21.906  0.00  0.00    +0.022 A 
ATOM      8  C   UNL     1       9.721   0.379  22.958  0.00  0.00    +0.042 A 
ATOM      9  C   UNL     1       9.190  -0.010  24.183  0.00  0.00    +0.032 A 
ATOM     10 CL   UNL     1      10.293   1.985  22.745  0.00  0.00    -0.084 Cl
ATOM     11  C   UNL     1       8.639  -1.298  24.345  0.00  0.00    +0.023 A 
ATOM     12  C   UNL     1       8.057  -1.619  25.690  0.00  0.00    +0.081 C 
ATOM     13  N   UNL     1       8.250  -2.734  26.309  0.00  0.00    -0.243 NA
ENDROOT
BRANCH  12  14
ATOM     14  C   UNL     1       7.235  -0.591  26.408  0.00  0.00    +0.036 A 
ATOM     15  C   UNL     1       5.970  -0.211  25.956  0.00  0.00    +0.133 A 
ATOM     16  F   UNL     1       5.419  -0.789  24.879  0.00  0.00    -0.205 F 
ATOM     17  C   UNL     1       5.241   0.776  26.617  0.00  0.00    +0.039 A 
ATOM     18  C   UNL     1       5.762   1.372  27.765  0.00  0.00    +0.003 A 
ATOM     19  C   UNL     1       7.008   0.974  28.251  0.00  0.00    +0.001 A 
ATOM     20  C   UNL     1       7.744  -0.005  27.577  0.00  0.00    +0.013 A 
ENDBRANCH  12  14
BRANCH   1  21
ATOM     21  O   UNL     1       9.375  -4.790  26.566  0.00  0.00    -0.364 OA
ATOM     22  H   UNL     1       8.528  -5.231  26.753  0.00  0.00    +0.212 HD
ENDBRANCH   1  21
BRANCH   4  23
ATOM     23  C   UNL     1       7.249  -4.005  22.189  0.00  0.00    +0.128 C 
BRANCH  23  24
ATOM     24  C   UNL     1       5.895  -3.296  22.092  0.00  0.00    +0.138 C 
BRANCH  24  25
ATOM     25  C   UNL     1       4.761  -4.175  22.593  0.00  0.00    +0.064 C 
ATOM     26  N   UNL     1       3.821  -4.904  23.009  0.00  0.00    -0.197 NA
ENDBRANCH  24  25
ENDBRANCH  23  24
ENDBRANCH   4  23
TORSDOF 5
ENDMDL
MODEL 4
REMARK VINA RESULT:      -6.2      1.532      1.847
REMARK  Name = 
REMARK  5 active torsions:
REMARK  status: ('A' for Active; 'I' for Inactive)
REMARK    1  A    between atoms: O_1  and  C_2
REMARK    2  A    between atoms: C_4  and  C_5
REMARK    3  A    between atoms: N_19  and  C_20
REMARK    4  A    between atoms: C_20  and  C_21
REMARK    5  A    between atoms: C_21  and  C_22
REMARK                            x       y       z     vdW  Elec       q    Type
REMARK                         _______ _______ _______ _____ _____    ______ ____
ROOT
ATOM      1  C   UNL     1       7.320  -3.575  22.852  0.00  0.00    +0.320 C 
ATOM      2  C   UNL     1       7.902  -4.246  24.140  0.00  0.00    +0.271 C 
ATOM      3  O   UNL     1       8.682  -5.200  24.101  0.00  0.00    -0.270 OA
ATOM      4  N   UNL     1       7.462  -3.700  25.359  0.00  0.00    -0.266 N 
ATOM      5  C   UNL     1       6.734  -2.470  25.443  0.00  0.00    +0.046 A 
ATOM      6  C   UNL     1       5.737  -2.346  26.428  0.00  0.00    +0.025 A 
ATOM      7  C   UNL     1       5.034  -1.152  26.611  0.00  0.00    +0.022 A 
ATOM      8  C   UNL     1       5.306  -0.062  25.798  0.00  0.00    +0.042 A 
ATOM      9  C   UNL     1       6.233  -0.172  24.768  0.00  0.00    +0.032 A 
ATOM     10 CL   UNL     1       4.505   1.434  26.073  0.00  0.00    -0.084 Cl
ATOM     11  C   UNL     1       6.959  -1.368  24.587  0.00  0.00    +0.023 A 
ATOM     12  C   UNL     1       7.963  -1.385  23.473  0.00  0.00    +0.081 C 
ATOM     13  N   UNL     1       8.108  -2.368  22.650  0.00  0.00    -0.243 NA
ENDROOT
BRANCH  12  14
ATOM     14  C   UNL     1       8.837  -0.188  23.242  0.00  0.00    +0.036 A 
ATOM     15  C   UNL     1       9.778   0.231  24.183  0.00  0.00    +0.133 A 
ATOM     16  F   UNL     1       9.970  -0.454  25.320  0.00  0.00    -0.205 F 
ATOM     17  C   UNL     1      10.550   1.370  23.964  0.00  0.00    +0.039 A 
ATOM     18  C   UNL     1      10.410   2.085  22.776  0.00  0.00    +0.003 A 
ATOM     19  C   UNL     1       9.501   1.656  21.808  0.00  0.00    +0.001 A 
ATOM     20  C   UNL     1       8.716   0.522  22.038  0.00  0.00    +0.013 A 
ENDBRANCH  12  14
BRANCH   1  21
ATOM     21  O   UNL     1       7.376  -4.401  21.707  0.00  0.00    -0.364 OA
ATOM     22  H   UNL     1       6.956  -3.848  21.026  0.00  0.00    +0.212 HD
ENDBRANCH   1  21
BRANCH   4  23
ATOM     23  C   UNL     1       7.929  -4.350  26.605  0.00  0.00    +0.128 C 
BRANCH  23  24
ATOM     24  C   UNL     1       7.126  -5.610  26.937  0.00  0.00    +0.138 C 
BRANCH  24  25
ATOM     25  C   UNL     1       6.475  -5.519  28.308  0.00  0.00    +0.064 C 
ATOM     26  N   UNL     1       5.935  -5.442  29.444  0.00  0.00    -0.197 NA
ENDBRANCH  24  25
ENDBRANCH  23  24
ENDBRANCH   4  23
TORSDOF 5
ENDMDL
MODEL 5
REMARK VINA RESULT:      -6.1      3.046      4.464
REMARK  Name = 
REMARK  5 active torsions:
REMARK  status: ('A' for Active; 'I' for Inactive)
REMARK    1  A    between atoms: O_1  and  C_2
REMARK    2  A    between atoms: C_4  and  C_5
REMARK    3  A    between atoms: N_19  and  C_20
REMARK    4  A    between atoms: C_20  and  C_21
REMARK    5  A    between atoms: C_21  and  C_22
REMARK                            x       y       z     vdW  Elec       q    Type
REMARK                         _______ _______ _______ _____ _____    ______ ____
ROOT
ATOM      1  C   UNL     1       8.402  -4.724  26.163  0.00  0.00    +0.320 C 
ATOM      2  C   UNL     1       6.978  -4.597  26.799  0.00  0.00    +0.271 C 
ATOM      3  O   UNL     1       6.798  -4.255  27.970  0.00  0.00    -0.270 OA
ATOM      4  N   UNL     1       5.904  -4.921  25.950  0.00  0.00    -0.266 N 
ATOM      5  C   UNL     1       6.058  -5.113  24.540  0.00  0.00    +0.046 A 
ATOM      6  C   UNL     1       5.264  -6.085  23.904  0.00  0.00    +0.025 A 
ATOM      7  C   UNL     1       5.313  -6.279  22.521  0.00  0.00    +0.022 A 
ATOM      8  C   UNL     1       6.173  -5.514  21.749  0.00  0.00    +0.042 A 
ATOM      9  C   UNL     1       7.026  -4.596  22.353  0.00  0.00    +0.032 A 
ATOM     10 CL   UNL     1       6.178  -5.690  20.039  0.00  0.00    -0.084 Cl
ATOM     11  C   UNL     1       6.970  -4.381  23.745  0.00  0.00    +0.023 A 
ATOM     12  C   UNL     1       7.901  -3.347  24.306  0.00  0.00    +0.081 C 
ATOM     13  N   UNL     1       8.590  -3.509  25.385  0.00  0.00    -0.243 NA
ENDROOT
BRANCH  12  14
ATOM     14  C   UNL     1       8.104  -2.055  23.573  0.00  0.00    +0.036 A 
ATOM     15  C   UNL     1       9.346  -1.691  23.050  0.00  0.00    +0.133 A 
ATOM     16  F   UNL     1      10.403  -2.511  23.145  0.00  0.00    -0.205 F 
ATOM     17  C   UNL     1       9.521  -0.467  22.407  0.00  0.00    +0.039 A 
ATOM     18  C   UNL     1       8.436   0.396  22.252  0.00  0.00    +0.003 A 
ATOM     19  C   UNL     1       7.180   0.028  22.735  0.00  0.00    +0.001 A 
ATOM     20  C   UNL     1       7.012  -1.194  23.392  0.00  0.00    +0.013 A 
ENDBRANCH  12  14
BRANCH   1  21
ATOM     21  O   UNL     1       9.437  -4.869  27.114  0.00  0.00    -0.364 OA
ATOM     22  H   UNL     1       8.950  -4.887  27.956  0.00  0.00    +0.212 HD
ENDBRANCH   1  21
BRANCH   4  23
ATOM     23  C   UNL     1       4.543  -4.887  26.530  0.00  0.00    +0.128 C 
BRANCH  23  24
ATOM     24  C   UNL     1       3.633  -3.884  25.815  0.00  0.00    +0.138 C 
BRANCH  24  25
ATOM     25  C   UNL     1       4.158  -2.462  25.936  0.00  0.00    +0.064 C 
ATOM     26  N   UNL     1       4.593  -1.283  26.036  0.00  0.00    -0.197 NA
ENDBRANCH  24  25
ENDBRANCH  23  24
ENDBRANCH   4  23
TORSDOF 5
ENDMDL
MODEL 6
REMARK VINA RESULT:      -6.0      2.836      5.625
REMARK  Name = 
REMARK  5 active torsions:
REMARK  status: ('A' for Active; 'I' for Inactive)
REMARK    1  A    between atoms: O_1  and  C_2
REMARK    2  A    between atoms: C_4  and  C_5
REMARK    3  A    between atoms: N_19  and  C_20
REMARK    4  A    between atoms: C_20  and  C_21
REMARK    5  A    between atoms: C_21  and  C_22
REMARK                            x       y       z     vdW  Elec       q    Type
REMARK                         _______ _______ _______ _____ _____    ______ ____
ROOT
ATOM      1  C   UNL     1       9.056  -4.526  25.885  0.00  0.00    +0.320 C 
ATOM      2  C   UNL     1       9.329  -3.374  24.862  0.00  0.00    +0.271 C 
ATOM      3  O   UNL     1      10.188  -3.453  23.981  0.00  0.00    -0.270 OA
ATOM      4  N   UNL     1       8.539  -2.221  25.024  0.00  0.00    -0.266 N 
ATOM      5  C   UNL     1       7.398  -2.174  25.888  0.00  0.00    +0.046 A 
ATOM      6  C   UNL     1       7.125  -0.977  26.573  0.00  0.00    +0.025 A 
ATOM      7  C   UNL     1       5.992  -0.838  27.380  0.00  0.00    +0.022 A 
ATOM      8  C   UNL     1       5.118  -1.905  27.528  0.00  0.00    +0.042 A 
ATOM      9  C   UNL     1       5.397  -3.126  26.924  0.00  0.00    +0.032 A 
ATOM     10 CL   UNL     1       3.680  -1.714  28.450  0.00  0.00    -0.084 Cl
ATOM     11  C   UNL     1       6.528  -3.269  26.095  0.00  0.00    +0.023 A 
ATOM     12  C   UNL     1       6.731  -4.611  25.456  0.00  0.00    +0.081 C 
ATOM     13  N   UNL     1       7.871  -5.212  25.392  0.00  0.00    -0.243 NA
ENDROOT
BRANCH  12  14
ATOM     14  C   UNL     1       5.555  -5.349  24.889  0.00  0.00    +0.036 A 
ATOM     15  C   UNL     1       4.983  -6.440  25.545  0.00  0.00    +0.133 A 
ATOM     16  F   UNL     1       5.438  -6.844  26.740  0.00  0.00    -0.205 F 
ATOM     17  C   UNL     1       3.916  -7.135  24.980  0.00  0.00    +0.039 A 
ATOM     18  C   UNL     1       3.387  -6.721  23.758  0.00  0.00    +0.003 A 
ATOM     19  C   UNL     1       3.923  -5.608  23.110  0.00  0.00    +0.001 A 
ATOM     20  C   UNL     1       5.003  -4.921  23.672  0.00  0.00    +0.013 A 
ENDBRANCH  12  14
BRANCH   1  21
ATOM     21  O   UNL     1      10.132  -5.431  26.020  0.00  0.00    -0.364 OA
ATOM     22  H   UNL     1      10.551  -5.395  25.143  0.00  0.00    +0.212 HD
ENDBRANCH   1  21
BRANCH   4  23
ATOM     23  C   UNL     1       8.813  -1.076  24.126  0.00  0.00    +0.128 C 
BRANCH  23  24
ATOM     24  C   UNL     1       9.960  -0.201  24.636  0.00  0.00    +0.138 C 
BRANCH  24  25
ATOM     25  C   UNL     1       9.634   1.280  24.521  0.00  0.00    +0.064 C 
ATOM     26  N   UNL     1       9.365   2.507  24.425  0.00  0.00    -0.197 NA
ENDBRANCH  24  25
ENDBRANCH  23  24
ENDBRANCH   4  23
TORSDOF 5
ENDMDL
MODEL 7
REMARK VINA RESULT:      -5.8      5.428      7.848
REMARK  Name = 
REMARK  5 active torsions:
REMARK  status: ('A' for Active; 'I' for Inactive)
REMARK    1  A    between atoms: O_1  and  C_2
REMARK    2  A    between atoms: C_4  and  C_5
REMARK    3  A    between atoms: N_19  and  C_20
REMARK    4  A    between atoms: C_20  and  C_21
REMARK    5  A    between atoms: C_21  and  C_22
REMARK                            x       y       z     vdW  Elec       q    Type
REMARK                         _______ _______ _______ _____ _____    ______ ____
ROOT
ATOM      1  C   UNL     1       6.697   4.143  22.650  0.00  0.00    +0.320 C 
ATOM      2  C   UNL     1       6.363   4.667  24.086  0.00  0.00    +0.271 C 
ATOM      3  O   UNL     1       5.235   4.593  24.579  0.00  0.00    -0.270 OA
ATOM      4  N   UNL     1       7.436   5.253  24.782  0.00  0.00    -0.266 N 
ATOM      5  C   UNL     1       8.794   5.166  24.334  0.00  0.00    +0.046 A 
ATOM      6  C   UNL     1       9.643   6.266  24.551  0.00  0.00    +0.025 A 
ATOM      7  C   UNL     1      10.996   6.225  24.201  0.00  0.00    +0.022 A 
ATOM      8  C   UNL     1      11.520   5.085  23.612  0.00  0.00    +0.042 A 
ATOM      9  C   UNL     1      10.693   4.007  23.316  0.00  0.00    +0.032 A 
ATOM     10 CL   UNL     1      13.200   4.998  23.257  0.00  0.00    -0.084 Cl
ATOM     11  C   UNL     1       9.331   4.033  23.681  0.00  0.00    +0.023 A 
ATOM     12  C   UNL     1       8.522   2.812  23.355  0.00  0.00    +0.081 C 
ATOM     13  N   UNL     1       7.337   2.850  22.846  0.00  0.00    -0.243 NA
ENDROOT
BRANCH  12  14
ATOM     14  C   UNL     1       9.109   1.451  23.576  0.00  0.00    +0.036 A 
ATOM     15  C   UNL     1       9.620   0.689  22.525  0.00  0.00    +0.133 A 
ATOM     16  F   UNL     1       9.646   1.168  21.272  0.00  0.00    -0.205 F 
ATOM     17  C   UNL     1      10.124  -0.591  22.748  0.00  0.00    +0.039 A 
ATOM     18  C   UNL     1      10.153  -1.109  24.043  0.00  0.00    +0.003 A 
ATOM     19  C   UNL     1       9.683  -0.343  25.109  0.00  0.00    +0.001 A 
ATOM     20  C   UNL     1       9.163   0.935  24.879  0.00  0.00    +0.013 A 
ENDBRANCH  12  14
BRANCH   1  21
ATOM     21  O   UNL     1       5.564   4.014  21.817  0.00  0.00    -0.364 OA
ATOM     22  H   UNL     1       5.724   4.689  21.135  0.00  0.00    +0.212 HD
ENDBRANCH   1  21
BRANCH   4  23
ATOM     23  C   UNL     1       7.150   5.829  26.115  0.00  0.00    +0.128 C 
BRANCH  23  24
ATOM     24  C   UNL     1       7.314   4.801  27.238  0.00  0.00    +0.138 C 
BRANCH  24  25
ATOM     25  C   UNL     1       6.051   4.671  28.072  0.00  0.00    +0.064 C 
ATOM     26  N   UNL     1       5.002   4.562  28.763  0.00  0.00    -0.197 NA
ENDBRANCH  24  25
ENDBRANCH  23  24
ENDBRANCH   4  23
TORSDOF 5
ENDMDL
MODEL 8
REMARK VINA RESULT:      -5.8      2.767      4.927
REMARK  Name = 
REMARK  5 active torsions:
REMARK  status: ('A' for Active; 'I' for Inactive)
REMARK    1  A    between atoms: O_1  and  C_2
REMARK    2  A    between atoms: C_4  and  C_5
REMARK    3  A    between atoms: N_19  and  C_20
REMARK    4  A    between atoms: C_20  and  C_21
REMARK    5  A    between atoms: C_21  and  C_22
REMARK                            x       y       z     vdW  Elec       q    Type
REMARK                         _______ _______ _______ _____ _____    ______ ____
ROOT
ATOM      1  C   UNL     1       7.594  -5.098  26.486  0.00  0.00    +0.320 C 
ATOM      2  C   UNL     1       6.317  -5.642  25.765  0.00  0.00    +0.271 C 
ATOM      3  O   UNL     1       5.552  -6.457  26.286  0.00  0.00    -0.270 OA
ATOM      4  N   UNL     1       6.102  -5.154  24.463  0.00  0.00    -0.266 N 
ATOM      5  C   UNL     1       6.839  -4.057  23.911  0.00  0.00    +0.046 A 
ATOM      6  C   UNL     1       7.150  -4.080  22.540  0.00  0.00    +0.025 A 
ATOM      7  C   UNL     1       7.808  -3.014  21.921  0.00  0.00    +0.022 A 
ATOM      8  C   UNL     1       8.182  -1.908  22.670  0.00  0.00    +0.042 A 
ATOM      9  C   UNL     1       7.956  -1.884  24.042  0.00  0.00    +0.032 A 
ATOM     10 CL   UNL     1       8.915  -0.558  21.899  0.00  0.00    -0.084 Cl
ATOM     11  C   UNL     1       7.277  -2.948  24.671  0.00  0.00    +0.023 A 
ATOM     12  C   UNL     1       7.046  -2.821  26.148  0.00  0.00    +0.081 C 
ATOM     13  N   UNL     1       7.227  -3.782  26.989  0.00  0.00    -0.243 NA
ENDROOT
BRANCH  12  14
ATOM     14  C   UNL     1       6.623  -1.502  26.722  0.00  0.00    +0.036 A 
ATOM     15  C   UNL     1       7.545  -0.600  27.254  0.00  0.00    +0.133 A 
ATOM     16  F   UNL     1       8.860  -0.861  27.230  0.00  0.00    -0.205 F 
ATOM     17  C   UNL     1       7.125   0.602  27.820  0.00  0.00    +0.039 A 
ATOM     18  C   UNL     1       5.770   0.929  27.827  0.00  0.00    +0.003 A 
ATOM     19  C   UNL     1       4.840   0.055  27.263  0.00  0.00    +0.001 A 
ATOM     20  C   UNL     1       5.263  -1.158  26.710  0.00  0.00    +0.013 A 
ENDBRANCH  12  14
BRANCH   1  21
ATOM     21  O   UNL     1       8.046  -5.923  27.539  0.00  0.00    -0.364 OA
ATOM     22  H   UNL     1       7.280  -5.938  28.140  0.00  0.00    +0.212 HD
ENDBRANCH   1  21
BRANCH   4  23
ATOM     23  C   UNL     1       4.945  -5.697  23.714  0.00  0.00    +0.128 C 
BRANCH  23  24
ATOM     24  C   UNL     1       3.758  -4.730  23.701  0.00  0.00    +0.138 C 
BRANCH  24  25
ATOM     25  C   UNL     1       2.482  -5.411  23.235  0.00  0.00    +0.064 C 
ATOM     26  N   UNL     1       1.423  -5.975  22.848  0.00  0.00    -0.197 NA
ENDBRANCH  24  25
ENDBRANCH  23  24
ENDBRANCH   4  23
TORSDOF 5
ENDMDL
MODEL 9
REMARK VINA RESULT:      -5.7      3.299      5.662
REMARK  Name = 
REMARK  5 active torsions:
REMARK  status: ('A' for Active; 'I' for Inactive)
REMARK    1  A    between atoms: O_1  and  C_2
REMARK    2  A    between atoms: C_4  and  C_5
REMARK    3  A    between atoms: N_19  and  C_20
REMARK    4  A    between atoms: C_20  and  C_21
REMARK    5  A    between atoms: C_21  and  C_22
REMARK                            x       y       z     vdW  Elec       q    Type
REMARK                         _______ _______ _______ _____ _____    ______ ____
ROOT
ATOM      1  C   UNL     1       8.754   0.090  26.333  0.00  0.00    +0.320 C 
ATOM      2  C   UNL     1       9.728   0.563  25.204  0.00  0.00    +0.271 C 
ATOM      3  O   UNL     1      10.891   0.164  25.116  0.00  0.00    -0.270 OA
ATOM      4  N   UNL     1       9.196   1.498  24.298  0.00  0.00    -0.266 N 
ATOM      5  C   UNL     1       7.802   1.820  24.240  0.00  0.00    +0.046 A 
ATOM      6  C   UNL     1       7.430   3.143  23.939  0.00  0.00    +0.025 A 
ATOM      7  C   UNL     1       6.090   3.512  23.800  0.00  0.00    +0.022 A 
ATOM      8  C   UNL     1       5.093   2.565  23.977  0.00  0.00    +0.042 A 
ATOM      9  C   UNL     1       5.421   1.265  24.348  0.00  0.00    +0.032 A 
ATOM     10 CL   UNL     1       3.447   2.993  23.725  0.00  0.00    -0.084 Cl
ATOM     11  C   UNL     1       6.772   0.880  24.473  0.00  0.00    +0.023 A 
ATOM     12  C   UNL     1       7.033  -0.551  24.841  0.00  0.00    +0.081 C 
ATOM     13  N   UNL     1       7.905  -0.920  25.718  0.00  0.00    -0.243 NA
ENDROOT
BRANCH  12  14
ATOM     14  C   UNL     1       6.222  -1.641  24.208  0.00  0.00    +0.036 A 
ATOM     15  C   UNL     1       5.226  -2.322  24.910  0.00  0.00    +0.133 A 
ATOM     16  F   UNL     1       4.924  -1.993  26.175  0.00  0.00    -0.205 F 
ATOM     17  C   UNL     1       4.512  -3.359  24.314  0.00  0.00    +0.039 A 
ATOM     18  C   UNL     1       4.768  -3.704  22.987  0.00  0.00    +0.003 A 
ATOM     19  C   UNL     1       5.733  -3.006  22.260  0.00  0.00    +0.001 A 
ATOM     20  C   UNL     1       6.458  -1.976  22.866  0.00  0.00    +0.013 A 
ENDBRANCH  12  14
BRANCH   1  21
ATOM     21  O   UNL     1       9.412  -0.439  27.465  0.00  0.00    -0.364 OA
ATOM     22  H   UNL     1       8.683  -0.557  28.099  0.00  0.00    +0.212 HD
ENDBRANCH   1  21
BRANCH   4  23
ATOM     23  C   UNL     1      10.104   2.030  23.256  0.00  0.00    +0.128 C 
BRANCH  23  24
ATOM     24  C   UNL     1       9.760   1.498  21.862  0.00  0.00    +0.138 C 
BRANCH  24  25
ATOM     25  C   UNL     1       9.772  -0.021  21.819  0.00  0.00    +0.064 C 
ATOM     26  N   UNL     1       9.782  -1.281  21.784  0.00  0.00    -0.197 NA
ENDBRANCH  24  25
ENDBRANCH  23  24
ENDBRANCH   4  23
TORSDOF 5
ENDMDL
