MODEL 1
REMARK VINA RESULT:      -5.9      0.000      0.000
REMARK  Name = 
REMARK  9 active torsions:
REMARK  status: ('A' for Active; 'I' for Inactive)
REMARK    1  A    between atoms: C_1  and  O_2
REMARK    2  A    between atoms: O_2  and  C_3
REMARK    3  A    between atoms: N_5  and  C_6
REMARK    4  A    between atoms: C_6  and  C_21
REMARK    5  A    between atoms: C_8  and  C_10
REMARK    6  A    between atoms: C_10  and  O_11
REMARK    7  A    between atoms: C_12  and  O_14
REMARK    8  A    between atoms: C_15  and  O_17
REMARK    9  A    between atoms: C_18  and  O_20
REMARK                            x       y       z     vdW  Elec       q    Type
REMARK                         _______ _______ _______ _____ _____    ______ ____
ROOT
ATOM      1  C   UNL     1       8.307  -2.435  25.387  0.00  0.00    +0.245 C 
ATOM      2  C   UNL     1       8.772  -3.092  24.048  0.00  0.00    +0.205 C 
ATOM      3  C   UNL     1       8.377  -4.584  24.039  0.00  0.00    +0.179 C 
ATOM      4  C   UNL     1       8.970  -5.305  25.251  0.00  0.00    +0.177 C 
ATOM      5  C   UNL     1       8.636  -4.596  26.575  0.00  0.00    +0.178 C 
ATOM      6  O   UNL     1       8.760  -3.167  26.545  0.00  0.00    -0.338 OA
ENDROOT
BRANCH   1   7
ATOM      7  C   UNL     1       8.949  -1.010  25.612  0.00  0.00    +0.264 C 
ATOM      8  O   UNL     1       9.434  -0.327  24.710  0.00  0.00    -0.271 OA
ATOM      9  N   UNL     1       8.855  -0.486  26.876  0.00  0.00    -0.325 N 
ATOM     10  H   UNL     1       9.345   0.378  27.060  0.00  0.00    +0.145 HD
ATOM     11  H   UNL     1       8.735  -1.141  27.648  0.00  0.00    +0.145 HD
ENDBRANCH   1   7
BRANCH   1  13
ATOM     12  C   UNL     1       6.102  -1.596  24.668  0.00  0.00    +0.403 C 
ATOM     13  N   UNL     1       6.867  -2.320  25.532  0.00  0.00    -0.243 N 
ATOM     14  H   UNL     1       6.509  -2.285  26.476  0.00  0.00    +0.155 HD
ATOM     15  O   UNL     1       6.469  -1.149  23.593  0.00  0.00    -0.226 OA
BRANCH  12  17
ATOM     16  C   UNL     1       4.375  -2.620  25.931  0.00  0.00    +0.282 C 
ATOM     17  O   UNL     1       4.853  -1.500  25.179  0.00  0.00    -0.454 OA
ENDBRANCH  12  17
ENDBRANCH   1  13
BRANCH   2  18
ATOM     18  O   UNL     1      10.198  -2.948  23.844  0.00  0.00    -0.384 OA
ATOM     19  H   UNL     1      10.434  -3.390  23.003  0.00  0.00    +0.210 HD
ENDBRANCH   2  18
BRANCH   3  20
ATOM     20  O   UNL     1       6.970  -4.813  23.972  0.00  0.00    -0.386 OA
ATOM     21  H   UNL     1       6.635  -4.541  23.098  0.00  0.00    +0.210 HD
ENDBRANCH   3  20
BRANCH   4  22
ATOM     22  O   UNL     1      10.395  -5.369  25.071  0.00  0.00    -0.386 OA
ATOM     23  H   UNL     1      10.568  -5.664  24.158  0.00  0.00    +0.210 HD
ENDBRANCH   4  22
BRANCH   5  24
ATOM     24  C   UNL     1       7.278  -5.020  27.157  0.00  0.00    +0.190 C 
BRANCH  24  25
ATOM     25  O   UNL     1       7.428  -6.174  27.985  0.00  0.00    -0.392 OA
ATOM     26  H   UNL     1       8.381  -6.295  28.150  0.00  0.00    +0.210 HD
ENDBRANCH  24  25
ENDBRANCH   5  24
TORSDOF 8
ENDMDL
MODEL 2
REMARK VINA RESULT:      -5.8      2.214      4.616
REMARK  Name = 
REMARK  9 active torsions:
REMARK  status: ('A' for Active; 'I' for Inactive)
REMARK    1  A    between atoms: C_1  and  O_2
REMARK    2  A    between atoms: O_2  and  C_3
REMARK    3  A    between atoms: N_5  and  C_6
REMARK    4  A    between atoms: C_6  and  C_21
REMARK    5  A    between atoms: C_8  and  C_10
REMARK    6  A    between atoms: C_10  and  O_11
REMARK    7  A    between atoms: C_12  and  O_14
REMARK    8  A    between atoms: C_15  and  O_17
REMARK    9  A    between atoms: C_18  and  O_20
REMARK                            x       y       z     vdW  Elec       q    Type
REMARK                         _______ _______ _______ _____ _____    ______ ____
ROOT
ATOM      1  C   UNL     1       8.742  -2.876  24.403  0.00  0.00    +0.245 C 
ATOM      2  C   UNL     1       7.862  -2.040  25.386  0.00  0.00    +0.205 C 
ATOM      3  C   UNL     1       7.646  -0.624  24.811  0.00  0.00    +0.179 C 
ATOM      4  C   UNL     1       8.988   0.060  24.544  0.00  0.00    +0.177 C 
ATOM      5  C   UNL     1       9.926  -0.808  23.688  0.00  0.00    +0.178 C 
ATOM      6  O   UNL     1       9.965  -2.197  24.047  0.00  0.00    -0.338 OA
ENDROOT
BRANCH   1   7
ATOM      7  C   UNL     1       9.272  -4.211  25.059  0.00  0.00    +0.264 C 
ATOM      8  O   UNL     1      10.320  -4.767  24.730  0.00  0.00    -0.271 OA
ATOM      9  N   UNL     1       8.557  -4.700  26.123  0.00  0.00    -0.325 N 
ATOM     10  H   UNL     1       8.825  -5.601  26.491  0.00  0.00    +0.145 HD
ATOM     11  H   UNL     1       7.577  -4.427  26.195  0.00  0.00    +0.145 HD
ENDBRANCH   1   7
BRANCH   1  13
ATOM     12  C   UNL     1       7.005  -4.021  23.080  0.00  0.00    +0.403 C 
ATOM     13  N   UNL     1       8.094  -3.205  23.147  0.00  0.00    -0.243 N 
ATOM     14  H   UNL     1       8.695  -3.309  22.341  0.00  0.00    +0.155 HD
ATOM     15  O   UNL     1       6.331  -4.391  24.027  0.00  0.00    -0.226 OA
BRANCH  12  17
ATOM     16  C   UNL     1       6.793  -5.692  21.410  0.00  0.00    +0.282 C 
ATOM     17  O   UNL     1       6.766  -4.310  21.779  0.00  0.00    -0.454 OA
ENDBRANCH  12  17
ENDBRANCH   1  13
BRANCH   2  18
ATOM     18  O   UNL     1       8.451  -1.962  26.706  0.00  0.00    -0.384 OA
ATOM     19  H   UNL     1       7.934  -1.324  27.237  0.00  0.00    +0.210 HD
ENDBRANCH   2  18
BRANCH   3  20
ATOM     20  O   UNL     1       6.836  -0.591  23.635  0.00  0.00    -0.386 OA
ATOM     21  H   UNL     1       7.146  -1.266  23.005  0.00  0.00    +0.210 HD
ENDBRANCH   3  20
BRANCH   4  22
ATOM     22  O   UNL     1       9.598   0.340  25.816  0.00  0.00    -0.386 OA
ATOM     23  H   UNL     1      10.103  -0.449  26.085  0.00  0.00    +0.210 HD
ENDBRANCH   4  22
BRANCH   5  24
ATOM     24  C   UNL     1       9.692  -0.635  22.179  0.00  0.00    +0.190 C 
BRANCH  24  25
ATOM     25  O   UNL     1      10.270  -1.723  21.456  0.00  0.00    -0.392 OA
ATOM     26  H   UNL     1       9.646  -2.470  21.502  0.00  0.00    +0.210 HD
ENDBRANCH  24  25
ENDBRANCH   5  24
TORSDOF 8
ENDMDL
MODEL 3
REMARK VINA RESULT:      -5.6      3.109      4.010
REMARK  Name = 
REMARK  9 active torsions:
REMARK  status: ('A' for Active; 'I' for Inactive)
REMARK    1  A    between atoms: C_1  and  O_2
REMARK    2  A    between atoms: O_2  and  C_3
REMARK    3  A    between atoms: N_5  and  C_6
REMARK    4  A    between atoms: C_6  and  C_21
REMARK    5  A    between atoms: C_8  and  C_10
REMARK    6  A    between atoms: C_10  and  O_11
REMARK    7  A    between atoms: C_12  and  O_14
REMARK    8  A    between atoms: C_15  and  O_17
REMARK    9  A    between atoms: C_18  and  O_20
REMARK                            x       y       z     vdW  Elec       q    Type
REMARK                         _______ _______ _______ _____ _____    ______ ____
ROOT
ATOM      1  C   UNL     1       9.005   0.593  23.308  0.00  0.00    +0.245 C 
ATOM      2  C   UNL     1       8.822  -0.444  22.154  0.00  0.00    +0.205 C 
ATOM      3  C   UNL     1       8.273  -1.766  22.728  0.00  0.00    +0.179 C 
ATOM      4  C   UNL     1       9.199  -2.305  23.820  0.00  0.00    +0.177 C 
ATOM      5  C   UNL     1       9.502  -1.253  24.901  0.00  0.00    +0.178 C 
ATOM      6  O   UNL     1       9.781   0.064  24.404  0.00  0.00    -0.338 OA
ENDROOT
BRANCH   1   7
ATOM      7  C   UNL     1       9.856   1.846  22.862  0.00  0.00    +0.264 C 
ATOM      8  O   UNL     1      10.547   2.514  23.630  0.00  0.00    -0.271 OA
ATOM      9  N   UNL     1       9.887   2.121  21.518  0.00  0.00    -0.325 N 
ATOM     10  H   UNL     1      10.345   2.972  21.226  0.00  0.00    +0.145 HD
ATOM     11  H   UNL     1       9.114   1.776  20.949  0.00  0.00    +0.145 HD
ENDBRANCH   1   7
BRANCH   1  13
ATOM     12  C   UNL     1       6.852   1.789  23.191  0.00  0.00    +0.403 C 
ATOM     13  N   UNL     1       7.763   1.064  23.896  0.00  0.00    -0.243 N 
ATOM     14  H   UNL     1       7.800   1.341  24.867  0.00  0.00    +0.155 HD
ATOM     15  O   UNL     1       6.849   1.949  21.981  0.00  0.00    -0.226 OA
BRANCH  12  17
ATOM     16  C   UNL     1       5.465   1.358  25.066  0.00  0.00    +0.282 C 
ATOM     17  O   UNL     1       5.920   2.260  24.052  0.00  0.00    -0.454 OA
ENDBRANCH  12  17
ENDBRANCH   1  13
BRANCH   2  18
ATOM     18  O   UNL     1      10.059  -0.679  21.440  0.00  0.00    -0.384 OA
ATOM     19  H   UNL     1      10.776  -0.793  22.097  0.00  0.00    +0.210 HD
ENDBRANCH   2  18
BRANCH   3  20
ATOM     20  O   UNL     1       6.935  -1.677  23.218  0.00  0.00    -0.386 OA
ATOM     21  H   UNL     1       6.414  -1.086  22.644  0.00  0.00    +0.210 HD
ENDBRANCH   3  20
BRANCH   4  22
ATOM     22  O   UNL     1      10.418  -2.732  23.190  0.00  0.00    -0.386 OA
ATOM     23  H   UNL     1      11.033  -1.975  23.185  0.00  0.00    +0.210 HD
ENDBRANCH   4  22
BRANCH   5  24
ATOM     24  C   UNL     1       8.440  -1.210  26.011  0.00  0.00    +0.190 C 
BRANCH  24  25
ATOM     25  O   UNL     1       8.535   0.010  26.747  0.00  0.00    -0.392 OA
ATOM     26  H   UNL     1       9.158   0.591  26.272  0.00  0.00    +0.210 HD
ENDBRANCH  24  25
ENDBRANCH   5  24
TORSDOF 8
ENDMDL
MODEL 4
REMARK VINA RESULT:      -5.4      2.846      5.483
REMARK  Name = 
REMARK  9 active torsions:
REMARK  status: ('A' for Active; 'I' for Inactive)
REMARK    1  A    between atoms: C_1  and  O_2
REMARK    2  A    between atoms: O_2  and  C_3
REMARK    3  A    between atoms: N_5  and  C_6
REMARK    4  A    between atoms: C_6  and  C_21
REMARK    5  A    between atoms: C_8  and  C_10
REMARK    6  A    between atoms: C_10  and  O_11
REMARK    7  A    between atoms: C_12  and  O_14
REMARK    8  A    between atoms: C_15  and  O_17
REMARK    9  A    between atoms: C_18  and  O_20
REMARK                            x       y       z     vdW  Elec       q    Type
REMARK                         _______ _______ _______ _____ _____    ______ ____
ROOT
ATOM      1  C   UNL     1       8.290  -0.684  23.320  0.00  0.00    +0.245 C 
ATOM      2  C   UNL     1       9.779  -0.633  22.850  0.00  0.00    +0.205 C 
ATOM      3  C   UNL     1      10.426   0.688  23.317  0.00  0.00    +0.179 C 
ATOM      4  C   UNL     1       9.635   1.889  22.796  0.00  0.00    +0.177 C 
ATOM      5  C   UNL     1       8.137   1.793  23.132  0.00  0.00    +0.178 C 
ATOM      6  O   UNL     1       7.553   0.497  22.936  0.00  0.00    -0.338 OA
ENDROOT
BRANCH   1   7
ATOM      7  C   UNL     1       7.476  -1.838  22.614  0.00  0.00    +0.264 C 
ATOM      8  O   UNL     1       7.999  -2.789  22.034  0.00  0.00    -0.271 OA
ATOM      9  N   UNL     1       6.112  -1.806  22.760  0.00  0.00    -0.325 N 
ATOM     10  H   UNL     1       5.571  -2.479  22.236  0.00  0.00    +0.145 HD
ATOM     11  H   UNL     1       5.682  -0.905  22.967  0.00  0.00    +0.145 HD
ENDBRANCH   1   7
BRANCH   1  13
ATOM     12  C   UNL     1       8.517  -1.910  25.446  0.00  0.00    +0.403 C 
ATOM     13  N   UNL     1       8.117  -0.807  24.756  0.00  0.00    -0.243 N 
ATOM     14  H   UNL     1       7.279  -0.398  25.147  0.00  0.00    +0.155 HD
ATOM     15  O   UNL     1       9.231  -2.802  25.016  0.00  0.00    -0.226 OA
BRANCH  12  17
ATOM     16  C   UNL     1       6.843  -1.052  26.890  0.00  0.00    +0.282 C 
ATOM     17  O   UNL     1       8.033  -1.826  26.707  0.00  0.00    -0.454 OA
ENDBRANCH  12  17
ENDBRANCH   1  13
BRANCH   2  18
ATOM     18  O   UNL     1       9.896  -0.769  21.413  0.00  0.00    -0.384 OA
ATOM     19  H   UNL     1       9.807  -1.718  21.187  0.00  0.00    +0.210 HD
ENDBRANCH   2  18
BRANCH   3  20
ATOM     20  O   UNL     1      10.591   0.786  24.732  0.00  0.00    -0.386 OA
ATOM     21  H   UNL     1      10.515   1.717  25.007  0.00  0.00    +0.210 HD
ENDBRANCH   3  20
BRANCH   4  22
ATOM     22  O   UNL     1       9.819   1.950  21.371  0.00  0.00    -0.386 OA
ATOM     23  H   UNL     1       9.073   2.453  20.995  0.00  0.00    +0.210 HD
ENDBRANCH   4  22
BRANCH   5  24
ATOM     24  C   UNL     1       7.797   2.346  24.525  0.00  0.00    +0.190 C 
BRANCH  24  25
ATOM     25  O   UNL     1       8.799   3.269  24.954  0.00  0.00    -0.392 OA
ATOM     26  H   UNL     1       9.636   2.777  25.035  0.00  0.00    +0.210 HD
ENDBRANCH  24  25
ENDBRANCH   5  24
TORSDOF 8
ENDMDL
MODEL 5
REMARK VINA RESULT:      -5.4      2.458      4.329
REMARK  Name = 
REMARK  9 active torsions:
REMARK  status: ('A' for Active; 'I' for Inactive)
REMARK    1  A    between atoms: C_1  and  O_2
REMARK    2  A    between atoms: O_2  and  C_3
REMARK    3  A    between atoms: N_5  and  C_6
REMARK    4  A    between atoms: C_6  and  C_21
REMARK    5  A    between atoms: C_8  and  C_10
REMARK    6  A    between atoms: C_10  and  O_11
REMARK    7  A    between atoms: C_12  and  O_14
REMARK    8  A    between atoms: C_15  and  O_17
REMARK    9  A    between atoms: C_18  and  O_20
REMARK                            x       y       z     vdW  Elec       q    Type
REMARK                         _______ _______ _______ _____ _____    ______ ____
ROOT
ATOM      1  C   UNL     1       7.738  -4.591  24.841  0.00  0.00    +0.245 C 
ATOM      2  C   UNL     1       7.253  -3.107  24.904  0.00  0.00    +0.205 C 
ATOM      3  C   UNL     1       6.238  -2.844  23.772  0.00  0.00    +0.179 C 
ATOM      4  C   UNL     1       6.853  -3.173  22.410  0.00  0.00    +0.177 C 
ATOM      5  C   UNL     1       7.460  -4.586  22.368  0.00  0.00    +0.178 C 
ATOM      6  O   UNL     1       8.217  -4.956  23.529  0.00  0.00    -0.338 OA
ENDROOT
BRANCH   1   7
ATOM      7  C   UNL     1       9.002  -4.849  25.750  0.00  0.00    +0.264 C 
ATOM      8  O   UNL     1       9.282  -4.176  26.742  0.00  0.00    -0.271 OA
ATOM      9  N   UNL     1       9.758  -5.954  25.452  0.00  0.00    -0.325 N 
ATOM     10  H   UNL     1      10.622  -6.080  25.960  0.00  0.00    +0.145 HD
ATOM     11  H   UNL     1       9.708  -6.316  24.500  0.00  0.00    +0.145 HD
ENDBRANCH   1   7
BRANCH   1  13
ATOM     12  C   UNL     1       6.144  -5.631  26.408  0.00  0.00    +0.403 C 
ATOM     13  N   UNL     1       6.720  -5.571  25.175  0.00  0.00    -0.243 N 
ATOM     14  H   UNL     1       6.819  -6.485  24.757  0.00  0.00    +0.155 HD
ATOM     15  O   UNL     1       6.237  -4.785  27.282  0.00  0.00    -0.226 OA
BRANCH  12  17
ATOM     16  C   UNL     1       4.434  -6.968  25.451  0.00  0.00    +0.282 C 
ATOM     17  O   UNL     1       5.407  -6.764  26.481  0.00  0.00    -0.454 OA
ENDBRANCH  12  17
ENDBRANCH   1  13
BRANCH   2  18
ATOM     18  O   UNL     1       8.357  -2.175  24.816  0.00  0.00    -0.384 OA
ATOM     19  H   UNL     1       8.372  -1.801  23.912  0.00  0.00    +0.210 HD
ENDBRANCH   2  18
BRANCH   3  20
ATOM     20  O   UNL     1       4.998  -3.536  23.930  0.00  0.00    -0.386 OA
ATOM     21  H   UNL     1       4.401  -3.012  24.494  0.00  0.00    +0.210 HD
ENDBRANCH   3  20
BRANCH   4  22
ATOM     22  O   UNL     1       7.868  -2.191  22.139  0.00  0.00    -0.386 OA
ATOM     23  H   UNL     1       8.455  -2.551  21.449  0.00  0.00    +0.210 HD
ENDBRANCH   4  22
BRANCH   5  24
ATOM     24  C   UNL     1       6.430  -5.670  22.012  0.00  0.00    +0.190 C 
BRANCH  24  25
ATOM     25  O   UNL     1       5.936  -5.475  20.687  0.00  0.00    -0.392 OA
ATOM     26  H   UNL     1       5.089  -4.998  20.757  0.00  0.00    +0.210 HD
ENDBRANCH  24  25
ENDBRANCH   5  24
TORSDOF 8
ENDMDL
MODEL 6
REMARK VINA RESULT:      -5.3      2.014      3.603
REMARK  Name = 
REMARK  9 active torsions:
REMARK  status: ('A' for Active; 'I' for Inactive)
REMARK    1  A    between atoms: C_1  and  O_2
REMARK    2  A    between atoms: O_2  and  C_3
REMARK    3  A    between atoms: N_5  and  C_6
REMARK    4  A    between atoms: C_6  and  C_21
REMARK    5  A    between atoms: C_8  and  C_10
REMARK    6  A    between atoms: C_10  and  O_11
REMARK    7  A    between atoms: C_12  and  O_14
REMARK    8  A    between atoms: C_15  and  O_17
REMARK    9  A    between atoms: C_18  and  O_20
REMARK                            x       y       z     vdW  Elec       q    Type
REMARK                         _______ _______ _______ _____ _____    ______ ____
ROOT
ATOM      1  C   UNL     1       7.367  -4.547  25.504  0.00  0.00    +0.245 C 
ATOM      2  C   UNL     1       8.357  -4.282  24.324  0.00  0.00    +0.205 C 
ATOM      3  C   UNL     1       7.562  -4.031  23.026  0.00  0.00    +0.179 C 
ATOM      4  C   UNL     1       6.637  -5.212  22.724  0.00  0.00    +0.177 C 
ATOM      5  C   UNL     1       5.745  -5.577  23.923  0.00  0.00    +0.178 C 
ATOM      6  O   UNL     1       6.410  -5.582  25.195  0.00  0.00    -0.338 OA
ENDROOT
BRANCH   1   7
ATOM      7  C   UNL     1       8.094  -5.125  26.780  0.00  0.00    +0.264 C 
ATOM      8  O   UNL     1       7.543  -5.839  27.617  0.00  0.00    -0.271 OA
ATOM      9  N   UNL     1       9.441  -4.885  26.883  0.00  0.00    -0.325 N 
ATOM     10  H   UNL     1       9.901  -5.163  27.738  0.00  0.00    +0.145 HD
ATOM     11  H   UNL     1       9.815  -4.081  26.379  0.00  0.00    +0.145 HD
ENDBRANCH   1   7
BRANCH   1  13
ATOM     12  C   UNL     1       7.147  -2.289  26.469  0.00  0.00    +0.403 C 
ATOM     13  N   UNL     1       6.584  -3.391  25.902  0.00  0.00    -0.243 N 
ATOM     14  H   UNL     1       5.660  -3.576  26.268  0.00  0.00    +0.155 HD
ATOM     15  O   UNL     1       8.342  -2.043  26.519  0.00  0.00    -0.226 OA
BRANCH  12  17
ATOM     16  C   UNL     1       4.870  -2.088  27.102  0.00  0.00    +0.282 C 
ATOM     17  O   UNL     1       6.156  -1.486  26.922  0.00  0.00    -0.454 OA
ENDBRANCH  12  17
ENDBRANCH   1  13
BRANCH   2  18
ATOM     18  O   UNL     1       9.284  -5.379  24.142  0.00  0.00    -0.384 OA
ATOM     19  H   UNL     1      10.155  -5.007  23.895  0.00  0.00    +0.210 HD
ENDBRANCH   2  18
BRANCH   3  20
ATOM     20  O   UNL     1       6.818  -2.812  23.027  0.00  0.00    -0.386 OA
ATOM     21  H   UNL     1       6.445  -2.656  23.913  0.00  0.00    +0.210 HD
ENDBRANCH   3  20
BRANCH   4  22
ATOM     22  O   UNL     1       7.461  -6.333  22.361  0.00  0.00    -0.386 OA
ATOM     23  H   UNL     1       7.704  -6.233  21.423  0.00  0.00    +0.210 HD
ENDBRANCH   4  22
BRANCH   5  24
ATOM     24  C   UNL     1       4.450  -4.752  23.981  0.00  0.00    +0.190 C 
BRANCH  24  25
ATOM     25  O   UNL     1       4.144  -4.212  22.695  0.00  0.00    -0.392 OA
ATOM     26  H   UNL     1       3.365  -3.634  22.797  0.00  0.00    +0.210 HD
ENDBRANCH  24  25
ENDBRANCH   5  24
TORSDOF 8
ENDMDL
MODEL 7
REMARK VINA RESULT:      -5.3      3.730      6.191
REMARK  Name = 
REMARK  9 active torsions:
REMARK  status: ('A' for Active; 'I' for Inactive)
REMARK    1  A    between atoms: C_1  and  O_2
REMARK    2  A    between atoms: O_2  and  C_3
REMARK    3  A    between atoms: N_5  and  C_6
REMARK    4  A    between atoms: C_6  and  C_21
REMARK    5  A    between atoms: C_8  and  C_10
REMARK    6  A    between atoms: C_10  and  O_11
REMARK    7  A    between atoms: C_12  and  O_14
REMARK    8  A    between atoms: C_15  and  O_17
REMARK    9  A    between atoms: C_18  and  O_20
REMARK                            x       y       z     vdW  Elec       q    Type
REMARK                         _______ _______ _______ _____ _____    ______ ____
ROOT
ATOM      1  C   UNL     1       8.524   0.655  23.136  0.00  0.00    +0.245 C 
ATOM      2  C   UNL     1       9.432   1.918  22.984  0.00  0.00    +0.205 C 
ATOM      3  C   UNL     1       8.743   3.133  23.642  0.00  0.00    +0.179 C 
ATOM      4  C   UNL     1       7.360   3.364  23.032  0.00  0.00    +0.177 C 
ATOM      5  C   UNL     1       6.494   2.092  23.048  0.00  0.00    +0.178 C 
ATOM      6  O   UNL     1       7.178   0.888  22.670  0.00  0.00    -0.338 OA
ENDROOT
BRANCH   1   7
ATOM      7  C   UNL     1       9.000  -0.539  22.220  0.00  0.00    +0.264 C 
ATOM      8  O   UNL     1      10.050  -0.535  21.578  0.00  0.00    -0.271 OA
ATOM      9  N   UNL     1       8.229  -1.673  22.240  0.00  0.00    -0.325 N 
ATOM     10  H   UNL     1       8.463  -2.409  21.588  0.00  0.00    +0.145 HD
ATOM     11  H   UNL     1       7.252  -1.573  22.514  0.00  0.00    +0.145 HD
ENDBRANCH   1   7
BRANCH   1  13
ATOM     12  C   UNL     1       9.470  -0.169  25.258  0.00  0.00    +0.403 C 
ATOM     13  N   UNL     1       8.392   0.170  24.497  0.00  0.00    -0.243 N 
ATOM     14  H   UNL     1       7.591  -0.414  24.693  0.00  0.00    +0.155 HD
ATOM     15  O   UNL     1      10.635   0.079  24.996  0.00  0.00    -0.226 OA
BRANCH  12  17
ATOM     16  C   UNL     1       7.828  -0.264  26.967  0.00  0.00    +0.282 C 
ATOM     17  O   UNL     1       9.026  -0.782  26.380  0.00  0.00    -0.454 OA
ENDBRANCH  12  17
ENDBRANCH   1  13
BRANCH   2  18
ATOM     18  O   UNL     1       9.734   2.202  21.597  0.00  0.00    -0.384 OA
ATOM     19  H   UNL     1      10.062   1.379  21.180  0.00  0.00    +0.210 HD
ENDBRANCH   2  18
BRANCH   3  20
ATOM     20  O   UNL     1       8.645   3.046  25.064  0.00  0.00    -0.386 OA
ATOM     21  H   UNL     1       8.239   3.860  25.414  0.00  0.00    +0.210 HD
ENDBRANCH   3  20
BRANCH   4  22
ATOM     22  O   UNL     1       7.546   3.817  21.680  0.00  0.00    -0.386 OA
ATOM     23  H   UNL     1       8.448   3.571  21.404  0.00  0.00    +0.210 HD
ENDBRANCH   4  22
BRANCH   5  24
ATOM     24  C   UNL     1       5.731   1.902  24.368  0.00  0.00    +0.190 C 
BRANCH  24  25
ATOM     25  O   UNL     1       5.307   0.546  24.509  0.00  0.00    -0.392 OA
ATOM     26  H   UNL     1       5.951   0.095  25.085  0.00  0.00    +0.210 HD
ENDBRANCH  24  25
ENDBRANCH   5  24
TORSDOF 8
ENDMDL
MODEL 8
REMARK VINA RESULT:      -5.2      1.979      4.221
REMARK  Name = 
REMARK  9 active torsions:
REMARK  status: ('A' for Active; 'I' for Inactive)
REMARK    1  A    between atoms: C_1  and  O_2
REMARK    2  A    between atoms: O_2  and  C_3
REMARK    3  A    between atoms: N_5  and  C_6
REMARK    4  A    between atoms: C_6  and  C_21
REMARK    5  A    between atoms: C_8  and  C_10
REMARK    6  A    between atoms: C_10  and  O_11
REMARK    7  A    between atoms: C_12  and  O_14
REMARK    8  A    between atoms: C_15  and  O_17
REMARK    9  A    between atoms: C_18  and  O_20
REMARK                            x       y       z     vdW  Elec       q    Type
REMARK                         _______ _______ _______ _____ _____    ______ ____
ROOT
ATOM      1  C   UNL     1       7.269  -3.947  24.001  0.00  0.00    +0.245 C 
ATOM      2  C   UNL     1       6.278  -3.184  24.938  0.00  0.00    +0.205 C 
ATOM      3  C   UNL     1       6.902  -3.037  26.342  0.00  0.00    +0.179 C 
ATOM      4  C   UNL     1       7.268  -4.408  26.915  0.00  0.00    +0.177 C 
ATOM      5  C   UNL     1       8.134  -5.233  25.948  0.00  0.00    +0.178 C 
ATOM      6  O   UNL     1       7.718  -5.193  24.575  0.00  0.00    -0.338 OA
ENDROOT
BRANCH   1   7
ATOM      7  C   UNL     1       6.585  -4.418  22.659  0.00  0.00    +0.264 C 
ATOM      8  O   UNL     1       6.941  -5.406  22.018  0.00  0.00    -0.271 OA
ATOM      9  N   UNL     1       5.470  -3.725  22.261  0.00  0.00    -0.325 N 
ATOM     10  H   UNL     1       5.078  -3.949  21.358  0.00  0.00    +0.145 HD
ATOM     11  H   UNL     1       5.361  -2.771  22.605  0.00  0.00    +0.145 HD
ENDBRANCH   1   7
BRANCH   1  13
ATOM     12  C   UNL     1       8.451  -2.072  22.921  0.00  0.00    +0.403 C 
ATOM     13  N   UNL     1       8.475  -3.208  23.672  0.00  0.00    -0.243 N 
ATOM     14  H   UNL     1       9.308  -3.754  23.506  0.00  0.00    +0.155 HD
ATOM     15  O   UNL     1       7.454  -1.434  22.623  0.00  0.00    -0.226 OA
BRANCH  12  17
ATOM     16  C   UNL     1       9.916  -0.499  21.920  0.00  0.00    +0.282 C 
ATOM     17  O   UNL     1       9.724  -1.740  22.606  0.00  0.00    -0.454 OA
ENDBRANCH  12  17
ENDBRANCH   1  13
BRANCH   2  18
ATOM     18  O   UNL     1       4.996  -3.851  25.024  0.00  0.00    -0.384 OA
ATOM     19  H   UNL     1       4.368  -3.252  25.477  0.00  0.00    +0.210 HD
ENDBRANCH   2  18
BRANCH   3  20
ATOM     20  O   UNL     1       8.033  -2.168  26.388  0.00  0.00    -0.386 OA
ATOM     21  H   UNL     1       8.498  -2.280  27.238  0.00  0.00    +0.210 HD
ENDBRANCH   3  20
BRANCH   4  22
ATOM     22  O   UNL     1       6.043  -5.106  27.199  0.00  0.00    -0.386 OA
ATOM     23  H   UNL     1       6.042  -5.333  28.147  0.00  0.00    +0.210 HD
ENDBRANCH   4  22
BRANCH   5  24
ATOM     24  C   UNL     1       9.635  -4.928  26.079  0.00  0.00    +0.190 C 
BRANCH  24  25
ATOM     25  O   UNL     1      10.335  -5.355  24.910  0.00  0.00    -0.392 OA
ATOM     26  H   UNL     1      11.185  -5.735  25.199  0.00  0.00    +0.210 HD
ENDBRANCH  24  25
ENDBRANCH   5  24
TORSDOF 8
ENDMDL
MODEL 9
REMARK VINA RESULT:      -5.2      1.843      4.209
REMARK  Name = 
REMARK  9 active torsions:
REMARK  status: ('A' for Active; 'I' for Inactive)
REMARK    1  A    between atoms: C_1  and  O_2
REMARK    2  A    between atoms: O_2  and  C_3
REMARK    3  A    between atoms: N_5  and  C_6
REMARK    4  A    between atoms: C_6  and  C_21
REMARK    5  A    between atoms: C_8  and  C_10
REMARK    6  A    between atoms: C_10  and  O_11
REMARK    7  A    between atoms: C_12  and  O_14
REMARK    8  A    between atoms: C_15  and  O_17
REMARK    9  A    between atoms: C_18  and  O_20
REMARK                            x       y       z     vdW  Elec       q    Type
REMARK                         _______ _______ _______ _____ _____    ______ ____
ROOT
ATOM      1  C   UNL     1       7.430  -4.129  24.500  0.00  0.00    +0.245 C 
ATOM      2  C   UNL     1       7.401  -4.107  22.938  0.00  0.00    +0.205 C 
ATOM      3  C   UNL     1       6.197  -3.273  22.454  0.00  0.00    +0.179 C 
ATOM      4  C   UNL     1       4.892  -3.828  23.029  0.00  0.00    +0.177 C 
ATOM      5  C   UNL     1       4.947  -3.986  24.558  0.00  0.00    +0.178 C 
ATOM      6  O   UNL     1       6.169  -4.541  25.067  0.00  0.00    -0.338 OA
ENDROOT
BRANCH   1   7
ATOM      7  C   UNL     1       8.428  -5.213  25.068  0.00  0.00    +0.264 C 
ATOM      8  O   UNL     1       9.384  -5.661  24.436  0.00  0.00    -0.271 OA
ATOM      9  N   UNL     1       8.255  -5.582  26.377  0.00  0.00    -0.325 N 
ATOM     10  H   UNL     1       8.820  -6.343  26.726  0.00  0.00    +0.145 HD
ATOM     11  H   UNL     1       7.330  -5.449  26.785  0.00  0.00    +0.145 HD
ENDBRANCH   1   7
BRANCH   1  13
ATOM     12  C   UNL     1       8.921  -2.206  24.902  0.00  0.00    +0.403 C 
ATOM     13  N   UNL     1       7.739  -2.850  25.114  0.00  0.00    -0.243 N 
ATOM     14  H   UNL     1       7.390  -2.702  26.050  0.00  0.00    +0.155 HD
ATOM     15  O   UNL     1       9.744  -2.489  24.047  0.00  0.00    -0.226 OA
BRANCH  12  17
ATOM     16  C   UNL     1       9.342   0.108  25.208  0.00  0.00    +0.282 C 
ATOM     17  O   UNL     1       9.003  -1.166  25.764  0.00  0.00    -0.454 OA
ENDBRANCH  12  17
ENDBRANCH   1  13
BRANCH   2  18
ATOM     18  O   UNL     1       7.346  -5.442  22.381  0.00  0.00    -0.384 OA
ATOM     19  H   UNL     1       7.885  -6.033  22.946  0.00  0.00    +0.210 HD
ENDBRANCH   2  18
BRANCH   3  20
ATOM     20  O   UNL     1       6.304  -1.877  22.737  0.00  0.00    -0.386 OA
ATOM     21  H   UNL     1       5.864  -1.681  23.585  0.00  0.00    +0.210 HD
ENDBRANCH   3  20
BRANCH   4  22
ATOM     22  O   UNL     1       4.646  -5.102  22.409  0.00  0.00    -0.386 OA
ATOM     23  H   UNL     1       3.702  -5.312  22.523  0.00  0.00    +0.210 HD
ENDBRANCH   4  22
BRANCH   5  24
ATOM     24  C   UNL     1       4.571  -2.698  25.308  0.00  0.00    +0.190 C 
BRANCH  24  25
ATOM     25  O   UNL     1       3.158  -2.622  25.493  0.00  0.00    -0.392 OA
ATOM     26  H   UNL     1       2.829  -3.530  25.623  0.00  0.00    +0.210 HD
ENDBRANCH  24  25
ENDBRANCH   5  24
TORSDOF 8
ENDMDL
