MODEL 1
REMARK VINA RESULT:      -6.6      0.000      0.000
REMARK  Name = 
REMARK  7 active torsions:
REMARK  status: ('A' for Active; 'I' for Inactive)
REMARK    1  A    between atoms: C_1  and  N_2
REMARK    2  A    between atoms: N_2  and  C_4
REMARK    3  A    between atoms: N_2  and  C_5
REMARK    4  A    between atoms: C_5  and  C_6
REMARK    5  A    between atoms: C_6  and  N_7
REMARK    6  A    between atoms: C_8  and  C_10
REMARK    7  A    between atoms: C_15  and  N_16
REMARK                            x       y       z     vdW  Elec       q    Type
REMARK                         _______ _______ _______ _____ _____    ______ ____
ROOT
ATOM      1  C   UNL     1       8.941  -1.443  24.479  0.00  0.00    +0.108 A 
ATOM      2  C   UNL     1       8.925  -0.041  24.245  0.00  0.00    +0.228 A 
ATOM      3  C   UNL     1       9.578   0.511  23.124  0.00  0.00    +0.068 A 
ATOM      4  C   UNL     1       9.549   1.927  22.945  0.00  0.00    +0.052 A 
ATOM      5  C   UNL     1       8.940   2.753  23.936  0.00  0.00    +0.069 A 
ATOM      6  C   UNL     1       8.927   4.169  23.916  0.00  0.00    +0.016 A 
ATOM      7  C   UNL     1       8.288   4.918  24.912  0.00  0.00    +0.002 A 
ATOM      8  C   UNL     1       7.648   4.279  25.966  0.00  0.00    +0.022 A 
ATOM      9  C   UNL     1       7.652   2.890  26.019  0.00  0.00    +0.090 A 
ATOM     10 BR   UNL     1       6.798   2.040  27.487  0.00  0.00    -0.043 Br
ATOM     11  C   UNL     1       8.292   2.130  25.020  0.00  0.00    +0.230 A 
ATOM     12  C   UNL     1      10.220  -0.399  22.248  0.00  0.00    +0.016 A 
ATOM     13  C   UNL     1      10.201  -1.781  22.463  0.00  0.00    +0.002 A 
ATOM     14  N   UNL     1       8.302   0.792  25.103  0.00  0.00    -0.202 N 
ATOM     15  H   UNL     1       7.793   0.368  25.894  0.00  0.00    +0.454 HD
ATOM     16  C   UNL     1       9.563  -2.309  23.578  0.00  0.00    +0.019 A 
ENDROOT
BRANCH   1  19
ATOM     17  N   UNL     1       7.275  -2.888  25.602  0.00  0.00    -0.306 N 
ATOM     18  H   UNL     1       7.175  -3.387  24.720  0.00  0.00    +0.149 HD
ATOM     19  C   UNL     1       8.278  -1.947  25.704  0.00  0.00    +0.251 C 
ATOM     20  O   UNL     1       8.700  -1.543  26.786  0.00  0.00    -0.270 OA
BRANCH  17  21
ATOM     21  C   UNL     1       6.874  -3.624  26.804  0.00  0.00    +0.155 C 
BRANCH  21  22
ATOM     22  C   UNL     1       7.633  -4.951  26.997  0.00  0.00    +0.149 C 
BRANCH  22  24
ATOM     23  C   UNL     1       6.125  -6.097  28.675  0.00  0.00    +0.190 C 
ATOM     24  N   UNL     1       6.672  -6.098  27.273  0.00  0.00    +0.232 N 
ATOM     25  C   UNL     1       5.557  -6.132  26.260  0.00  0.00    +0.190 C 
ATOM     26  H   UNL     1       7.212  -6.966  27.154  0.00  0.00    +0.203 HD
ENDBRANCH  22  24
ENDBRANCH  21  22
ENDBRANCH  17  21
ENDBRANCH   1  19
BRANCH   4  27
ATOM     27  N   UNL     1      10.318   2.514  21.922  0.00  0.00    -0.357 N 
ATOM     28  H   UNL     1      10.822   3.366  22.158  0.00  0.00    +0.142 HD
ATOM     29  H   UNL     1       9.880   2.622  21.013  0.00  0.00    +0.142 HD
ENDBRANCH   4  27
TORSDOF 5
ENDMDL
MODEL 2
REMARK VINA RESULT:      -6.3      1.220      1.331
REMARK  Name = 
REMARK  7 active torsions:
REMARK  status: ('A' for Active; 'I' for Inactive)
REMARK    1  A    between atoms: C_1  and  N_2
REMARK    2  A    between atoms: N_2  and  C_4
REMARK    3  A    between atoms: N_2  and  C_5
REMARK    4  A    between atoms: C_5  and  C_6
REMARK    5  A    between atoms: C_6  and  N_7
REMARK    6  A    between atoms: C_8  and  C_10
REMARK    7  A    between atoms: C_15  and  N_16
REMARK                            x       y       z     vdW  Elec       q    Type
REMARK                         _______ _______ _______ _____ _____    ______ ____
ROOT
ATOM      1  C   UNL     1       8.561  -1.355  23.487  0.00  0.00    +0.108 A 
ATOM      2  C   UNL     1       8.467   0.023  23.821  0.00  0.00    +0.228 A 
ATOM      3  C   UNL     1       9.078   1.004  23.015  0.00  0.00    +0.068 A 
ATOM      4  C   UNL     1       8.970   2.373  23.405  0.00  0.00    +0.052 A 
ATOM      5  C   UNL     1       8.327   2.711  24.632  0.00  0.00    +0.069 A 
ATOM      6  C   UNL     1       8.237   4.018  25.169  0.00  0.00    +0.016 A 
ATOM      7  C   UNL     1       7.568   4.281  26.371  0.00  0.00    +0.002 A 
ATOM      8  C   UNL     1       6.973   3.247  27.082  0.00  0.00    +0.022 A 
ATOM      9  C   UNL     1       7.053   1.951  26.587  0.00  0.00    +0.090 A 
ATOM     10 BR   UNL     1       6.261   0.548  27.593  0.00  0.00    -0.043 Br
ATOM     11  C   UNL     1       7.724   1.679  25.377  0.00  0.00    +0.230 A 
ATOM     12  C   UNL     1       9.760   0.547  21.860  0.00  0.00    +0.016 A 
ATOM     13  C   UNL     1       9.818  -0.808  21.516  0.00  0.00    +0.002 A 
ATOM     14  N   UNL     1       7.808   0.418  24.929  0.00  0.00    -0.202 N 
ATOM     15  H   UNL     1       7.330  -0.308  25.484  0.00  0.00    +0.454 HD
ATOM     16  C   UNL     1       9.220  -1.764  22.327  0.00  0.00    +0.019 A 
ENDROOT
BRANCH   1  19
ATOM     17  N   UNL     1       8.727  -3.043  25.290  0.00  0.00    -0.306 N 
ATOM     18  H   UNL     1       9.676  -2.713  25.454  0.00  0.00    +0.149 HD
ATOM     19  C   UNL     1       7.938  -2.333  24.408  0.00  0.00    +0.251 C 
ATOM     20  O   UNL     1       6.712  -2.430  24.391  0.00  0.00    -0.270 OA
BRANCH  17  21
ATOM     21  C   UNL     1       8.085  -3.734  26.411  0.00  0.00    +0.155 C 
BRANCH  21  22
ATOM     22  C   UNL     1       8.238  -5.267  26.359  0.00  0.00    +0.149 C 
BRANCH  22  24
ATOM     23  C   UNL     1       6.419  -5.675  28.070  0.00  0.00    +0.190 C 
ATOM     24  N   UNL     1       6.923  -5.961  26.682  0.00  0.00    +0.232 N 
ATOM     25  C   UNL     1       5.870  -5.642  25.651  0.00  0.00    +0.190 C 
ATOM     26  H   UNL     1       7.105  -6.972  26.622  0.00  0.00    +0.203 HD
ENDBRANCH  22  24
ENDBRANCH  21  22
ENDBRANCH  17  21
ENDBRANCH   1  19
BRANCH   4  27
ATOM     27  N   UNL     1       9.696   3.355  22.704  0.00  0.00    -0.357 N 
ATOM     28  H   UNL     1       9.159   4.104  22.272  0.00  0.00    +0.142 HD
ATOM     29  H   UNL     1      10.409   3.035  22.056  0.00  0.00    +0.142 HD
ENDBRANCH   4  27
TORSDOF 5
ENDMDL
MODEL 3
REMARK VINA RESULT:      -6.2      2.436      2.767
REMARK  Name = 
REMARK  7 active torsions:
REMARK  status: ('A' for Active; 'I' for Inactive)
REMARK    1  A    between atoms: C_1  and  N_2
REMARK    2  A    between atoms: N_2  and  C_4
REMARK    3  A    between atoms: N_2  and  C_5
REMARK    4  A    between atoms: C_5  and  C_6
REMARK    5  A    between atoms: C_6  and  N_7
REMARK    6  A    between atoms: C_8  and  C_10
REMARK    7  A    between atoms: C_15  and  N_16
REMARK                            x       y       z     vdW  Elec       q    Type
REMARK                         _______ _______ _______ _____ _____    ______ ____
ROOT
ATOM      1  C   UNL     1       8.131  -0.238  23.240  0.00  0.00    +0.108 A 
ATOM      2  C   UNL     1       8.225   1.091  23.733  0.00  0.00    +0.228 A 
ATOM      3  C   UNL     1       9.113   2.016  23.147  0.00  0.00    +0.068 A 
ATOM      4  C   UNL     1       9.183   3.334  23.691  0.00  0.00    +0.052 A 
ATOM      5  C   UNL     1       8.426   3.661  24.855  0.00  0.00    +0.069 A 
ATOM      6  C   UNL     1       8.480   4.900  25.538  0.00  0.00    +0.016 A 
ATOM      7  C   UNL     1       7.689   5.161  26.663  0.00  0.00    +0.002 A 
ATOM      8  C   UNL     1       6.823   4.192  27.150  0.00  0.00    +0.022 A 
ATOM      9  C   UNL     1       6.754   2.960  26.509  0.00  0.00    +0.090 A 
ATOM     10 BR   UNL     1       5.587   1.638  27.212  0.00  0.00    -0.043 Br
ATOM     11  C   UNL     1       7.547   2.691  25.374  0.00  0.00    +0.230 A 
ATOM     12  C   UNL     1       9.876   1.558  22.045  0.00  0.00    +0.016 A 
ATOM     13  C   UNL     1       9.753   0.259  21.541  0.00  0.00    +0.002 A 
ATOM     14  N   UNL     1       7.480   1.489  24.784  0.00  0.00    -0.202 N 
ATOM     15  H   UNL     1       6.805   0.814  25.173  0.00  0.00    +0.454 HD
ATOM     16  C   UNL     1       8.882  -0.645  22.136  0.00  0.00    +0.019 A 
ENDROOT
BRANCH   1  19
ATOM     17  N   UNL     1       6.085  -1.631  23.292  0.00  0.00    -0.306 N 
ATOM     18  H   UNL     1       6.030  -1.512  22.283  0.00  0.00    +0.149 HD
ATOM     19  C   UNL     1       7.215  -1.170  23.937  0.00  0.00    +0.251 C 
ATOM     20  O   UNL     1       7.537  -1.551  25.061  0.00  0.00    -0.270 OA
BRANCH  17  21
ATOM     21  C   UNL     1       5.385  -2.796  23.841  0.00  0.00    +0.155 C 
BRANCH  21  22
ATOM     22  C   UNL     1       5.186  -3.933  22.820  0.00  0.00    +0.149 C 
BRANCH  22  24
ATOM     23  C   UNL     1       7.416  -4.974  23.406  0.00  0.00    +0.190 C 
ATOM     24  N   UNL     1       6.522  -4.455  22.313  0.00  0.00    +0.232 N 
ATOM     25  C   UNL     1       6.329  -5.492  21.237  0.00  0.00    +0.190 C 
ATOM     26  H   UNL     1       7.000  -3.655  21.877  0.00  0.00    +0.203 HD
ENDBRANCH  22  24
ENDBRANCH  21  22
ENDBRANCH  17  21
ENDBRANCH   1  19
BRANCH   4  27
ATOM     27  N   UNL     1      10.167   4.227  23.225  0.00  0.00    -0.357 N 
ATOM     28  H   UNL     1      11.089   3.839  23.039  0.00  0.00    +0.142 HD
ATOM     29  H   UNL     1      10.265   5.110  23.716  0.00  0.00    +0.142 HD
ENDBRANCH   4  27
TORSDOF 5
ENDMDL
MODEL 4
REMARK VINA RESULT:      -6.0      2.762      7.420
REMARK  Name = 
REMARK  7 active torsions:
REMARK  status: ('A' for Active; 'I' for Inactive)
REMARK    1  A    between atoms: C_1  and  N_2
REMARK    2  A    between atoms: N_2  and  C_4
REMARK    3  A    between atoms: N_2  and  C_5
REMARK    4  A    between atoms: C_5  and  C_6
REMARK    5  A    between atoms: C_6  and  N_7
REMARK    6  A    between atoms: C_8  and  C_10
REMARK    7  A    between atoms: C_15  and  N_16
REMARK                            x       y       z     vdW  Elec       q    Type
REMARK                         _______ _______ _______ _____ _____    ______ ____
ROOT
ATOM      1  C   UNL     1       7.442  -4.195  22.940  0.00  0.00    +0.108 A 
ATOM      2  C   UNL     1       6.477  -4.381  23.966  0.00  0.00    +0.228 A 
ATOM      3  C   UNL     1       5.579  -5.467  23.924  0.00  0.00    +0.068 A 
ATOM      4  C   UNL     1       4.616  -5.599  24.969  0.00  0.00    +0.052 A 
ATOM      5  C   UNL     1       4.526  -4.595  25.979  0.00  0.00    +0.069 A 
ATOM      6  C   UNL     1       3.557  -4.567  27.012  0.00  0.00    +0.016 A 
ATOM      7  C   UNL     1       3.543  -3.561  27.986  0.00  0.00    +0.002 A 
ATOM      8  C   UNL     1       4.488  -2.545  27.958  0.00  0.00    +0.022 A 
ATOM      9  C   UNL     1       5.446  -2.538  26.950  0.00  0.00    +0.090 A 
ATOM     10 BR   UNL     1       6.709  -1.121  26.913  0.00  0.00    -0.043 Br
ATOM     11  C   UNL     1       5.468  -3.548  25.967  0.00  0.00    +0.230 A 
ATOM     12  C   UNL     1       5.707  -6.358  22.830  0.00  0.00    +0.016 A 
ATOM     13  C   UNL     1       6.683  -6.190  21.842  0.00  0.00    +0.002 A 
ATOM     14  N   UNL     1       6.387  -3.510  24.992  0.00  0.00    -0.202 N 
ATOM     15  H   UNL     1       7.079  -2.746  25.031  0.00  0.00    +0.454 HD
ATOM     16  C   UNL     1       7.554  -5.109  21.891  0.00  0.00    +0.019 A 
ENDROOT
BRANCH   1  19
ATOM     17  N   UNL     1       8.003  -1.869  22.304  0.00  0.00    -0.306 N 
ATOM     18  H   UNL     1       7.062  -1.791  21.923  0.00  0.00    +0.149 HD
ATOM     19  C   UNL     1       8.318  -3.003  23.023  0.00  0.00    +0.251 C 
ATOM     20  O   UNL     1       9.275  -3.054  23.795  0.00  0.00    -0.270 OA
BRANCH  17  21
ATOM     21  C   UNL     1       8.661  -0.607  22.653  0.00  0.00    +0.155 C 
BRANCH  21  22
ATOM     22  C   UNL     1       9.443   0.024  21.484  0.00  0.00    +0.149 C 
BRANCH  22  24
ATOM     23  C   UNL     1       7.880   2.008  21.641  0.00  0.00    +0.190 C 
ATOM     24  N   UNL     1       9.301   1.539  21.485  0.00  0.00    +0.232 N 
ATOM     25  C   UNL     1      10.193   2.171  22.522  0.00  0.00    +0.190 C 
ATOM     26  H   UNL     1       9.633   1.863  20.566  0.00  0.00    +0.203 HD
ENDBRANCH  22  24
ENDBRANCH  21  22
ENDBRANCH  17  21
ENDBRANCH   1  19
BRANCH   4  27
ATOM     27  N   UNL     1       3.614  -6.582  24.871  0.00  0.00    -0.357 N 
ATOM     28  H   UNL     1       3.553  -7.255  25.633  0.00  0.00    +0.142 HD
ATOM     29  H   UNL     1       3.522  -7.068  23.985  0.00  0.00    +0.142 HD
ENDBRANCH   4  27
TORSDOF 5
ENDMDL
MODEL 5
REMARK VINA RESULT:      -6.0      3.307      6.955
REMARK  Name = 
REMARK  7 active torsions:
REMARK  status: ('A' for Active; 'I' for Inactive)
REMARK    1  A    between atoms: C_1  and  N_2
REMARK    2  A    between atoms: N_2  and  C_4
REMARK    3  A    between atoms: N_2  and  C_5
REMARK    4  A    between atoms: C_5  and  C_6
REMARK    5  A    between atoms: C_6  and  N_7
REMARK    6  A    between atoms: C_8  and  C_10
REMARK    7  A    between atoms: C_15  and  N_16
REMARK                            x       y       z     vdW  Elec       q    Type
REMARK                         _______ _______ _______ _____ _____    ______ ____
ROOT
ATOM      1  C   UNL     1       7.283  -4.496  23.436  0.00  0.00    +0.108 A 
ATOM      2  C   UNL     1       5.952  -4.341  23.906  0.00  0.00    +0.228 A 
ATOM      3  C   UNL     1       4.891  -5.060  23.318  0.00  0.00    +0.068 A 
ATOM      4  C   UNL     1       3.568  -4.854  23.814  0.00  0.00    +0.052 A 
ATOM      5  C   UNL     1       3.336  -3.874  24.824  0.00  0.00    +0.069 A 
ATOM      6  C   UNL     1       2.063  -3.516  25.330  0.00  0.00    +0.016 A 
ATOM      7  C   UNL     1       1.910  -2.560  26.341  0.00  0.00    +0.002 A 
ATOM      8  C   UNL     1       3.021  -1.922  26.877  0.00  0.00    +0.022 A 
ATOM      9  C   UNL     1       4.284  -2.244  26.393  0.00  0.00    +0.090 A 
ATOM     10 BR   UNL     1       5.787  -1.336  27.117  0.00  0.00    -0.043 Br
ATOM     11  C   UNL     1       4.446  -3.207  25.376  0.00  0.00    +0.230 A 
ATOM     12  C   UNL     1       5.228  -5.948  22.267  0.00  0.00    +0.016 A 
ATOM     13  C   UNL     1       6.546  -6.124  21.833  0.00  0.00    +0.002 A 
ATOM     14  N   UNL     1       5.672  -3.486  24.910  0.00  0.00    -0.202 N 
ATOM     15  H   UNL     1       6.464  -3.000  25.357  0.00  0.00    +0.454 HD
ATOM     16  C   UNL     1       7.579  -5.400  22.414  0.00  0.00    +0.019 A 
ENDROOT
BRANCH   1  19
ATOM     17  N   UNL     1       8.843  -2.574  23.397  0.00  0.00    -0.306 N 
ATOM     18  H   UNL     1       8.320  -2.220  22.599  0.00  0.00    +0.149 HD
ATOM     19  C   UNL     1       8.339  -3.670  24.067  0.00  0.00    +0.251 C 
ATOM     20  O   UNL     1       8.685  -3.965  25.210  0.00  0.00    -0.270 OA
BRANCH  17  21
ATOM     21  C   UNL     1       9.615  -1.581  24.150  0.00  0.00    +0.155 C 
BRANCH  21  22
ATOM     22  C   UNL     1       8.746  -0.477  24.784  0.00  0.00    +0.149 C 
BRANCH  22  24
ATOM     23  C   UNL     1      10.977   0.699  24.571  0.00  0.00    +0.190 C 
ATOM     24  N   UNL     1       9.583   0.745  25.135  0.00  0.00    +0.232 N 
ATOM     25  C   UNL     1       8.883   2.018  24.735  0.00  0.00    +0.190 C 
ATOM     26  H   UNL     1       9.665   0.757  26.160  0.00  0.00    +0.203 HD
ENDBRANCH  22  24
ENDBRANCH  21  22
ENDBRANCH  17  21
ENDBRANCH   1  19
BRANCH   4  27
ATOM     27  N   UNL     1       2.476  -5.443  23.147  0.00  0.00    -0.357 N 
ATOM     28  H   UNL     1       1.595  -4.936  23.174  0.00  0.00    +0.142 HD
ATOM     29  H   UNL     1       2.304  -6.428  23.315  0.00  0.00    +0.142 HD
ENDBRANCH   4  27
TORSDOF 5
ENDMDL
MODEL 6
REMARK VINA RESULT:      -5.9      2.903      4.452
REMARK  Name = 
REMARK  7 active torsions:
REMARK  status: ('A' for Active; 'I' for Inactive)
REMARK    1  A    between atoms: C_1  and  N_2
REMARK    2  A    between atoms: N_2  and  C_4
REMARK    3  A    between atoms: N_2  and  C_5
REMARK    4  A    between atoms: C_5  and  C_6
REMARK    5  A    between atoms: C_6  and  N_7
REMARK    6  A    between atoms: C_8  and  C_10
REMARK    7  A    between atoms: C_15  and  N_16
REMARK                            x       y       z     vdW  Elec       q    Type
REMARK                         _______ _______ _______ _____ _____    ______ ____
ROOT
ATOM      1  C   UNL     1       6.439  -1.857  26.252  0.00  0.00    +0.108 A 
ATOM      2  C   UNL     1       6.602  -0.809  25.307  0.00  0.00    +0.228 A 
ATOM      3  C   UNL     1       5.683   0.259  25.248  0.00  0.00    +0.068 A 
ATOM      4  C   UNL     1       5.880   1.277  24.268  0.00  0.00    +0.052 A 
ATOM      5  C   UNL     1       6.941   1.153  23.323  0.00  0.00    +0.069 A 
ATOM      6  C   UNL     1       7.183   2.047  22.251  0.00  0.00    +0.016 A 
ATOM      7  C   UNL     1       8.260   1.878  21.374  0.00  0.00    +0.002 A 
ATOM      8  C   UNL     1       9.129   0.805  21.530  0.00  0.00    +0.022 A 
ATOM      9  C   UNL     1       8.912  -0.096  22.565  0.00  0.00    +0.090 A 
ATOM     10 BR   UNL     1      10.093  -1.573  22.740  0.00  0.00    -0.043 Br
ATOM     11  C   UNL     1       7.831   0.069  23.454  0.00  0.00    +0.230 A 
ATOM     12  C   UNL     1       4.619   0.237  26.184  0.00  0.00    +0.016 A 
ATOM     13  C   UNL     1       4.485  -0.779  27.137  0.00  0.00    +0.002 A 
ATOM     14  N   UNL     1       7.628  -0.825  24.432  0.00  0.00    -0.202 N 
ATOM     15  H   UNL     1       8.315  -1.589  24.517  0.00  0.00    +0.454 HD
ATOM     16  C   UNL     1       5.392  -1.830  27.175  0.00  0.00    +0.019 A 
ENDROOT
BRANCH   1  19
ATOM     17  N   UNL     1       6.996  -4.238  25.864  0.00  0.00    -0.306 N 
ATOM     18  H   UNL     1       6.093  -4.330  25.404  0.00  0.00    +0.149 HD
ATOM     19  C   UNL     1       7.413  -2.972  26.222  0.00  0.00    +0.251 C 
ATOM     20  O   UNL     1       8.590  -2.706  26.462  0.00  0.00    -0.270 OA
BRANCH  17  21
ATOM     21  C   UNL     1       8.006  -5.237  25.504  0.00  0.00    +0.155 C 
BRANCH  21  22
ATOM     22  C   UNL     1       8.380  -5.226  24.009  0.00  0.00    +0.149 C 
BRANCH  22  24
ATOM     23  C   UNL     1       7.153  -3.742  22.366  0.00  0.00    +0.190 C 
ATOM     24  N   UNL     1       7.147  -5.035  23.137  0.00  0.00    +0.232 N 
ATOM     25  C   UNL     1       6.942  -6.210  22.216  0.00  0.00    +0.190 C 
ATOM     26  H   UNL     1       6.340  -5.009  23.775  0.00  0.00    +0.203 HD
ENDBRANCH  22  24
ENDBRANCH  21  22
ENDBRANCH  17  21
ENDBRANCH   1  19
BRANCH   4  27
ATOM     27  N   UNL     1       4.897   2.269  24.088  0.00  0.00    -0.357 N 
ATOM     28  H   UNL     1       5.157   3.076  23.526  0.00  0.00    +0.142 HD
ATOM     29  H   UNL     1       4.393   2.580  24.912  0.00  0.00    +0.142 HD
ENDBRANCH   4  27
TORSDOF 5
ENDMDL
MODEL 7
REMARK VINA RESULT:      -5.9      3.043      3.641
REMARK  Name = 
REMARK  7 active torsions:
REMARK  status: ('A' for Active; 'I' for Inactive)
REMARK    1  A    between atoms: C_1  and  N_2
REMARK    2  A    between atoms: N_2  and  C_4
REMARK    3  A    between atoms: N_2  and  C_5
REMARK    4  A    between atoms: C_5  and  C_6
REMARK    5  A    between atoms: C_6  and  N_7
REMARK    6  A    between atoms: C_8  and  C_10
REMARK    7  A    between atoms: C_15  and  N_16
REMARK                            x       y       z     vdW  Elec       q    Type
REMARK                         _______ _______ _______ _____ _____    ______ ____
ROOT
ATOM      1  C   UNL     1       8.492   0.507  23.859  0.00  0.00    +0.108 A 
ATOM      2  C   UNL     1       8.444   1.903  23.600  0.00  0.00    +0.228 A 
ATOM      3  C   UNL     1       9.609   2.692  23.681  0.00  0.00    +0.068 A 
ATOM      4  C   UNL     1       9.504   4.094  23.430  0.00  0.00    +0.052 A 
ATOM      5  C   UNL     1       8.224   4.675  23.190  0.00  0.00    +0.069 A 
ATOM      6  C   UNL     1       7.980   6.060  23.019  0.00  0.00    +0.016 A 
ATOM      7  C   UNL     1       6.698   6.560  22.762  0.00  0.00    +0.002 A 
ATOM      8  C   UNL     1       5.613   5.696  22.675  0.00  0.00    +0.022 A 
ATOM      9  C   UNL     1       5.818   4.333  22.849  0.00  0.00    +0.090 A 
ATOM     10 BR   UNL     1       4.316   3.174  22.757  0.00  0.00    -0.043 Br
ATOM     11  C   UNL     1       7.106   3.822  23.106  0.00  0.00    +0.230 A 
ATOM     12  C   UNL     1      10.813   2.021  24.007  0.00  0.00    +0.016 A 
ATOM     13  C   UNL     1      10.862   0.639  24.224  0.00  0.00    +0.002 A 
ATOM     14  N   UNL     1       7.277   2.505  23.292  0.00  0.00    -0.202 N 
ATOM     15  H   UNL     1       6.443   1.907  23.195  0.00  0.00    +0.454 HD
ATOM     16  C   UNL     1       9.703  -0.123  24.152  0.00  0.00    +0.019 A 
ENDROOT
BRANCH   1  19
ATOM     17  N   UNL     1       7.100  -1.330  22.954  0.00  0.00    -0.306 N 
ATOM     18  H   UNL     1       7.951  -1.725  22.561  0.00  0.00    +0.149 HD
ATOM     19  C   UNL     1       7.220  -0.250  23.806  0.00  0.00    +0.251 C 
ATOM     20  O   UNL     1       6.327   0.082  24.584  0.00  0.00    -0.270 OA
BRANCH  17  21
ATOM     21  C   UNL     1       5.990  -2.266  23.156  0.00  0.00    +0.155 C 
BRANCH  21  22
ATOM     22  C   UNL     1       5.839  -3.295  22.019  0.00  0.00    +0.149 C 
BRANCH  22  24
ATOM     23  C   UNL     1       5.973  -5.758  21.450  0.00  0.00    +0.190 C 
ATOM     24  N   UNL     1       6.126  -4.705  22.515  0.00  0.00    +0.232 N 
ATOM     25  C   UNL     1       7.484  -4.790  23.163  0.00  0.00    +0.190 C 
ATOM     26  H   UNL     1       5.431  -4.904  23.247  0.00  0.00    +0.203 HD
ENDBRANCH  22  24
ENDBRANCH  21  22
ENDBRANCH  17  21
ENDBRANCH   1  19
BRANCH   4  27
ATOM     27  N   UNL     1      10.618   4.925  23.653  0.00  0.00    -0.357 N 
ATOM     28  H   UNL     1      10.732   5.300  24.592  0.00  0.00    +0.142 HD
ATOM     29  H   UNL     1      10.795   5.658  22.973  0.00  0.00    +0.142 HD
ENDBRANCH   4  27
TORSDOF 5
ENDMDL
MODEL 8
REMARK VINA RESULT:      -5.9      3.193      8.105
REMARK  Name = 
REMARK  7 active torsions:
REMARK  status: ('A' for Active; 'I' for Inactive)
REMARK    1  A    between atoms: C_1  and  N_2
REMARK    2  A    between atoms: N_2  and  C_4
REMARK    3  A    between atoms: N_2  and  C_5
REMARK    4  A    between atoms: C_5  and  C_6
REMARK    5  A    between atoms: C_6  and  N_7
REMARK    6  A    between atoms: C_8  and  C_10
REMARK    7  A    between atoms: C_15  and  N_16
REMARK                            x       y       z     vdW  Elec       q    Type
REMARK                         _______ _______ _______ _____ _____    ______ ____
ROOT
ATOM      1  C   UNL     1       7.218  -4.818  23.915  0.00  0.00    +0.108 A 
ATOM      2  C   UNL     1       6.020  -5.459  24.329  0.00  0.00    +0.228 A 
ATOM      3  C   UNL     1       5.139  -6.022  23.383  0.00  0.00    +0.068 A 
ATOM      4  C   UNL     1       3.939  -6.639  23.849  0.00  0.00    +0.052 A 
ATOM      5  C   UNL     1       3.616  -6.599  25.238  0.00  0.00    +0.069 A 
ATOM      6  C   UNL     1       2.417  -7.093  25.808  0.00  0.00    +0.016 A 
ATOM      7  C   UNL     1       2.177  -7.044  27.186  0.00  0.00    +0.002 A 
ATOM      8  C   UNL     1       3.120  -6.492  28.042  0.00  0.00    +0.022 A 
ATOM      9  C   UNL     1       4.303  -5.988  27.513  0.00  0.00    +0.090 A 
ATOM     10 BR   UNL     1       5.564  -5.208  28.699  0.00  0.00    -0.043 Br
ATOM     11  C   UNL     1       4.553  -6.036  26.126  0.00  0.00    +0.230 A 
ATOM     12  C   UNL     1       5.522  -5.932  22.022  0.00  0.00    +0.016 A 
ATOM     13  C   UNL     1       6.721  -5.331  21.623  0.00  0.00    +0.002 A 
ATOM     14  N   UNL     1       5.691  -5.525  25.635  0.00  0.00    -0.202 N 
ATOM     15  H   UNL     1       6.366  -5.147  26.317  0.00  0.00    +0.454 HD
ATOM     16  C   UNL     1       7.573  -4.771  22.566  0.00  0.00    +0.019 A 
ENDROOT
BRANCH   1  19
ATOM     17  N   UNL     1       8.052  -2.837  25.143  0.00  0.00    -0.306 N 
ATOM     18  H   UNL     1       7.290  -2.309  24.725  0.00  0.00    +0.149 HD
ATOM     19  C   UNL     1       8.070  -4.204  24.960  0.00  0.00    +0.251 C 
ATOM     20  O   UNL     1       8.723  -4.960  25.678  0.00  0.00    -0.270 OA
BRANCH  17  21
ATOM     21  C   UNL     1       8.615  -2.283  26.378  0.00  0.00    +0.155 C 
BRANCH  21  22
ATOM     22  C   UNL     1       8.852  -0.762  26.320  0.00  0.00    +0.149 C 
BRANCH  22  24
ATOM     23  C   UNL     1       8.189   0.562  24.267  0.00  0.00    +0.190 C 
ATOM     24  N   UNL     1       9.225  -0.318  24.913  0.00  0.00    +0.232 N 
ATOM     25  C   UNL     1      10.580   0.341  24.890  0.00  0.00    +0.190 C 
ATOM     26  H   UNL     1       9.298  -1.174  24.348  0.00  0.00    +0.203 HD
ENDBRANCH  22  24
ENDBRANCH  21  22
ENDBRANCH  17  21
ENDBRANCH   1  19
BRANCH   4  27
ATOM     27  N   UNL     1       2.973  -7.071  22.920  0.00  0.00    -0.357 N 
ATOM     28  H   UNL     1       2.922  -8.071  22.742  0.00  0.00    +0.142 HD
ATOM     29  H   UNL     1       2.915  -6.569  22.040  0.00  0.00    +0.142 HD
ENDBRANCH   4  27
TORSDOF 5
ENDMDL
MODEL 9
REMARK VINA RESULT:      -5.9      2.610      3.337
REMARK  Name = 
REMARK  7 active torsions:
REMARK  status: ('A' for Active; 'I' for Inactive)
REMARK    1  A    between atoms: C_1  and  N_2
REMARK    2  A    between atoms: N_2  and  C_4
REMARK    3  A    between atoms: N_2  and  C_5
REMARK    4  A    between atoms: C_5  and  C_6
REMARK    5  A    between atoms: C_6  and  N_7
REMARK    6  A    between atoms: C_8  and  C_10
REMARK    7  A    between atoms: C_15  and  N_16
REMARK                            x       y       z     vdW  Elec       q    Type
REMARK                         _______ _______ _______ _____ _____    ______ ____
ROOT
ATOM      1  C   UNL     1       8.336  -0.644  22.893  0.00  0.00    +0.108 A 
ATOM      2  C   UNL     1       8.048   0.396  23.818  0.00  0.00    +0.228 A 
ATOM      3  C   UNL     1       8.646   1.666  23.685  0.00  0.00    +0.068 A 
ATOM      4  C   UNL     1       8.339   2.670  24.652  0.00  0.00    +0.052 A 
ATOM      5  C   UNL     1       7.510   2.348  25.767  0.00  0.00    +0.069 A 
ATOM      6  C   UNL     1       7.209   3.228  26.835  0.00  0.00    +0.016 A 
ATOM      7  C   UNL     1       6.366   2.853  27.889  0.00  0.00    +0.002 A 
ATOM      8  C   UNL     1       5.803   1.584  27.917  0.00  0.00    +0.022 A 
ATOM      9  C   UNL     1       6.088   0.693  26.889  0.00  0.00    +0.090 A 
ATOM     10 BR   UNL     1       5.333  -1.047  26.966  0.00  0.00    -0.043 Br
ATOM     11  C   UNL     1       6.934   1.065  25.825  0.00  0.00    +0.230 A 
ATOM     12  C   UNL     1       9.517   1.849  22.582  0.00  0.00    +0.016 A 
ATOM     13  C   UNL     1       9.768   0.833  21.654  0.00  0.00    +0.002 A 
ATOM     14  N   UNL     1       7.213   0.182  24.855  0.00  0.00    -0.202 N 
ATOM     15  H   UNL     1       6.751  -0.738  24.913  0.00  0.00    +0.454 HD
ATOM     16  C   UNL     1       9.180  -0.417  21.805  0.00  0.00    +0.019 A 
ENDROOT
BRANCH   1  19
ATOM     17  N   UNL     1       8.481  -3.016  23.584  0.00  0.00    -0.306 N 
ATOM     18  H   UNL     1       9.395  -2.802  23.976  0.00  0.00    +0.149 HD
ATOM     19  C   UNL     1       7.712  -1.967  23.124  0.00  0.00    +0.251 C 
ATOM     20  O   UNL     1       6.497  -2.061  22.954  0.00  0.00    -0.270 OA
BRANCH  17  21
ATOM     21  C   UNL     1       7.807  -4.197  24.132  0.00  0.00    +0.155 C 
BRANCH  21  22
ATOM     22  C   UNL     1       7.590  -5.318  23.097  0.00  0.00    +0.149 C 
BRANCH  22  24
ATOM     23  C   UNL     1       6.241  -5.646  20.981  0.00  0.00    +0.190 C 
ATOM     24  N   UNL     1       6.238  -5.178  22.412  0.00  0.00    +0.232 N 
ATOM     25  C   UNL     1       5.153  -5.864  23.200  0.00  0.00    +0.190 C 
ATOM     26  H   UNL     1       6.017  -4.173  22.407  0.00  0.00    +0.203 HD
ENDBRANCH  22  24
ENDBRANCH  21  22
ENDBRANCH  17  21
ENDBRANCH   1  19
BRANCH   4  27
ATOM     27  N   UNL     1       9.036   3.893  24.629  0.00  0.00    -0.357 N 
ATOM     28  H   UNL     1       9.520   4.131  23.767  0.00  0.00    +0.142 HD
ATOM     29  H   UNL     1       9.636   4.102  25.421  0.00  0.00    +0.142 HD
ENDBRANCH   4  27
TORSDOF 5
ENDMDL
