MODEL 1
REMARK VINA RESULT:      -4.9      0.000      0.000
REMARK  Name = 
REMARK  5 active torsions:
REMARK  status: ('A' for Active; 'I' for Inactive)
REMARK    1  A    between atoms: O_1  and  C_2
REMARK    2  A    between atoms: C_5  and  C_13
REMARK    3  A    between atoms: C_8  and  O_9
REMARK    4  A    between atoms: C_10  and  O_12
REMARK    5  A    between atoms: C_13  and  O_14
REMARK                            x       y       z     vdW  Elec       q    Type
REMARK                         _______ _______ _______ _____ _____    ______ ____
ROOT
ATOM      1  C   UNL     1      10.634   0.654  24.469  0.00  0.00    +0.151 C 
ATOM      2  C   UNL     1      10.573  -0.615  23.562  0.00  0.00    +0.207 C 
ATOM      3  C   UNL     1      10.005  -0.410  22.184  0.00  0.00    +0.122 C 
ATOM      4  C   UNL     1       9.650   0.785  21.689  0.00  0.00    +0.031 C 
ATOM      5  C   UNL     1       9.759   2.060  22.470  0.00  0.00    +0.126 C 
ATOM      6  C   UNL     1      10.580   2.009  23.765  0.00  0.00    +0.053 C 
ENDROOT
BRANCH   1   7
ATOM      7  O   UNL     1       9.576   0.682  25.434  0.00  0.00    -0.389 OA
ATOM      8  H   UNL     1       9.912   0.204  26.215  0.00  0.00    +0.210 HD
ENDBRANCH   1   7
BRANCH   2   9
ATOM      9  O   UNL     1       9.834  -1.655  24.199  0.00  0.00    -0.382 OA
ATOM     10  H   UNL     1       9.868  -1.461  25.157  0.00  0.00    +0.210 HD
ENDBRANCH   2   9
BRANCH   3  11
ATOM     11  O   UNL     1       9.850  -1.570  21.456  0.00  0.00    -0.509 OA
ATOM     12  H   UNL     1      10.223  -1.439  20.555  0.00  0.00    +0.292 HD
ENDBRANCH   3  11
BRANCH   5  13
ATOM     13  C   UNL     1       8.348   2.602  22.691  0.00  0.00    +0.312 C 
ATOM     14  O   UNL     1       7.561   2.087  23.483  0.00  0.00    -0.250 OA
BRANCH  13  15
ATOM     15  O   UNL     1       8.056   3.737  22.032  0.00  0.00    -0.480 OA
ATOM     16  H   UNL     1       8.641   4.503  22.242  0.00  0.00    +0.295 HD
ENDBRANCH  13  15
ENDBRANCH   5  13
TORSDOF 5
ENDMDL
MODEL 2
REMARK VINA RESULT:      -4.8      1.672      3.949
REMARK  Name = 
REMARK  5 active torsions:
REMARK  status: ('A' for Active; 'I' for Inactive)
REMARK    1  A    between atoms: O_1  and  C_2
REMARK    2  A    between atoms: C_5  and  C_13
REMARK    3  A    between atoms: C_8  and  O_9
REMARK    4  A    between atoms: C_10  and  O_12
REMARK    5  A    between atoms: C_13  and  O_14
REMARK                            x       y       z     vdW  Elec       q    Type
REMARK                         _______ _______ _______ _____ _____    ______ ____
ROOT
ATOM      1  C   UNL     1       9.664   2.175  22.909  0.00  0.00    +0.151 C 
ATOM      2  C   UNL     1       8.104   2.167  22.954  0.00  0.00    +0.207 C 
ATOM      3  C   UNL     1       7.464   0.840  23.264  0.00  0.00    +0.122 C 
ATOM      4  C   UNL     1       8.150  -0.267  23.582  0.00  0.00    +0.031 C 
ATOM      5  C   UNL     1       9.647  -0.315  23.643  0.00  0.00    +0.126 C 
ATOM      6  C   UNL     1      10.382   1.032  23.623  0.00  0.00    +0.053 C 
ENDROOT
BRANCH   1   7
ATOM      7  O   UNL     1      10.168   2.164  21.568  0.00  0.00    -0.389 OA
ATOM      8  H   UNL     1      11.113   2.400  21.634  0.00  0.00    +0.210 HD
ENDBRANCH   1   7
BRANCH   2   9
ATOM      9  O   UNL     1       7.561   2.648  21.727  0.00  0.00    -0.382 OA
ATOM     10  H   UNL     1       8.167   3.353  21.423  0.00  0.00    +0.210 HD
ENDBRANCH   2   9
BRANCH   3  11
ATOM     11  O   UNL     1       6.089   0.840  23.173  0.00  0.00    -0.509 OA
ATOM     12  H   UNL     1       5.758   1.760  23.275  0.00  0.00    +0.292 HD
ENDBRANCH   3  11
BRANCH   5  13
ATOM     13  C   UNL     1      10.135  -1.264  22.549  0.00  0.00    +0.312 C 
ATOM     14  O   UNL     1      10.622  -2.365  22.801  0.00  0.00    -0.250 OA
BRANCH  13  15
ATOM     15  O   UNL     1       9.911  -0.855  21.288  0.00  0.00    -0.480 OA
ATOM     16  H   UNL     1      10.618  -0.284  20.903  0.00  0.00    +0.295 HD
ENDBRANCH  13  15
ENDBRANCH   5  13
TORSDOF 5
ENDMDL
MODEL 3
REMARK VINA RESULT:      -4.8      1.619      3.709
REMARK  Name = 
REMARK  5 active torsions:
REMARK  status: ('A' for Active; 'I' for Inactive)
REMARK    1  A    between atoms: O_1  and  C_2
REMARK    2  A    between atoms: C_5  and  C_13
REMARK    3  A    between atoms: C_8  and  O_9
REMARK    4  A    between atoms: C_10  and  O_12
REMARK    5  A    between atoms: C_13  and  O_14
REMARK                            x       y       z     vdW  Elec       q    Type
REMARK                         _______ _______ _______ _____ _____    ______ ____
ROOT
ATOM      1  C   UNL     1       9.299   0.870  24.908  0.00  0.00    +0.151 C 
ATOM      2  C   UNL     1       9.347   1.909  23.744  0.00  0.00    +0.207 C 
ATOM      3  C   UNL     1       9.208   1.346  22.355  0.00  0.00    +0.122 C 
ATOM      4  C   UNL     1       8.962   0.055  22.091  0.00  0.00    +0.031 C 
ATOM      5  C   UNL     1       8.818  -0.987  23.159  0.00  0.00    +0.126 C 
ATOM      6  C   UNL     1       8.661  -0.483  24.599  0.00  0.00    +0.053 C 
ENDROOT
BRANCH   1   7
ATOM      7  O   UNL     1      10.603   0.570  25.420  0.00  0.00    -0.389 OA
ATOM      8  H   UNL     1      10.742   1.177  26.172  0.00  0.00    +0.210 HD
ENDBRANCH   1   7
BRANCH   2   9
ATOM      9  O   UNL     1      10.550   2.672  23.797  0.00  0.00    -0.382 OA
ATOM     10  H   UNL     1      10.391   3.380  24.454  0.00  0.00    +0.210 HD
ENDBRANCH   2   9
BRANCH   3  11
ATOM     11  O   UNL     1       9.379   2.272  21.348  0.00  0.00    -0.509 OA
ATOM     12  H   UNL     1      10.256   2.704  21.452  0.00  0.00    +0.292 HD
ENDBRANCH   3  11
BRANCH   5  13
ATOM     13  C   UNL     1       9.970  -1.981  23.009  0.00  0.00    +0.312 C 
ATOM     14  O   UNL     1      10.141  -2.914  23.791  0.00  0.00    -0.250 OA
BRANCH  13  15
ATOM     15  O   UNL     1      10.730  -1.822  21.911  0.00  0.00    -0.480 OA
ATOM     16  H   UNL     1      10.459  -1.078  21.322  0.00  0.00    +0.295 HD
ENDBRANCH  13  15
ENDBRANCH   5  13
TORSDOF 5
ENDMDL
MODEL 4
REMARK VINA RESULT:      -4.7      2.473      4.621
REMARK  Name = 
REMARK  5 active torsions:
REMARK  status: ('A' for Active; 'I' for Inactive)
REMARK    1  A    between atoms: O_1  and  C_2
REMARK    2  A    between atoms: C_5  and  C_13
REMARK    3  A    between atoms: C_8  and  O_9
REMARK    4  A    between atoms: C_10  and  O_12
REMARK    5  A    between atoms: C_13  and  O_14
REMARK                            x       y       z     vdW  Elec       q    Type
REMARK                         _______ _______ _______ _____ _____    ______ ____
ROOT
ATOM      1  C   UNL     1       9.488   4.241  24.023  0.00  0.00    +0.151 C 
ATOM      2  C   UNL     1       8.344   5.076  23.366  0.00  0.00    +0.207 C 
ATOM      3  C   UNL     1       7.419   4.316  22.454  0.00  0.00    +0.122 C 
ATOM      4  C   UNL     1       7.477   2.990  22.262  0.00  0.00    +0.031 C 
ATOM      5  C   UNL     1       8.493   2.110  22.925  0.00  0.00    +0.126 C 
ATOM      6  C   UNL     1       9.294   2.727  24.079  0.00  0.00    +0.053 C 
ENDROOT
BRANCH   1   7
ATOM      7  O   UNL     1      10.747   4.442  23.372  0.00  0.00    -0.389 OA
ATOM      8  H   UNL     1      11.331   4.855  24.037  0.00  0.00    +0.210 HD
ENDBRANCH   1   7
BRANCH   2   9
ATOM      9  O   UNL     1       8.878   6.181  22.640  0.00  0.00    -0.382 OA
ATOM     10  H   UNL     1       8.107   6.676  22.298  0.00  0.00    +0.210 HD
ENDBRANCH   2   9
BRANCH   3  11
ATOM     11  O   UNL     1       6.500   5.104  21.794  0.00  0.00    -0.509 OA
ATOM     12  H   UNL     1       5.760   4.540  21.475  0.00  0.00    +0.292 HD
ENDBRANCH   3  11
BRANCH   5  13
ATOM     13  C   UNL     1       9.392   1.522  21.837  0.00  0.00    +0.312 C 
ATOM     14  O   UNL     1       9.141   0.454  21.282  0.00  0.00    -0.250 OA
BRANCH  13  15
ATOM     15  O   UNL     1      10.424   2.297  21.461  0.00  0.00    -0.480 OA
ATOM     16  H   UNL     1      11.124   2.419  22.146  0.00  0.00    +0.295 HD
ENDBRANCH  13  15
ENDBRANCH   5  13
TORSDOF 5
ENDMDL
MODEL 5
REMARK VINA RESULT:      -4.7      6.439      8.151
REMARK  Name = 
REMARK  5 active torsions:
REMARK  status: ('A' for Active; 'I' for Inactive)
REMARK    1  A    between atoms: O_1  and  C_2
REMARK    2  A    between atoms: C_5  and  C_13
REMARK    3  A    between atoms: C_8  and  O_9
REMARK    4  A    between atoms: C_10  and  O_12
REMARK    5  A    between atoms: C_13  and  O_14
REMARK                            x       y       z     vdW  Elec       q    Type
REMARK                         _______ _______ _______ _____ _____    ______ ____
ROOT
ATOM      1  C   UNL     1       6.234  -4.457  23.236  0.00  0.00    +0.151 C 
ATOM      2  C   UNL     1       5.261  -5.663  23.051  0.00  0.00    +0.207 C 
ATOM      3  C   UNL     1       4.966  -6.464  24.291  0.00  0.00    +0.122 C 
ATOM      4  C   UNL     1       5.411  -6.144  25.514  0.00  0.00    +0.031 C 
ATOM      5  C   UNL     1       6.279  -4.952  25.784  0.00  0.00    +0.126 C 
ATOM      6  C   UNL     1       6.406  -3.920  24.655  0.00  0.00    +0.053 C 
ENDROOT
BRANCH   1   7
ATOM      7  O   UNL     1       7.558  -4.753  22.776  0.00  0.00    -0.389 OA
ATOM      8  H   UNL     1       8.163  -4.276  23.376  0.00  0.00    +0.210 HD
ENDBRANCH   1   7
BRANCH   2   9
ATOM      9  O   UNL     1       5.746  -6.554  22.049  0.00  0.00    -0.382 OA
ATOM     10  H   UNL     1       5.842  -6.018  21.236  0.00  0.00    +0.210 HD
ENDBRANCH   2   9
BRANCH   3  11
ATOM     11  O   UNL     1       4.206  -7.592  24.069  0.00  0.00    -0.509 OA
ATOM     12  H   UNL     1       3.337  -7.490  24.518  0.00  0.00    +0.292 HD
ENDBRANCH   3  11
BRANCH   5  13
ATOM     13  C   UNL     1       7.637  -5.456  26.272  0.00  0.00    +0.312 C 
ATOM     14  O   UNL     1       8.635  -5.461  25.553  0.00  0.00    -0.250 OA
BRANCH  13  15
ATOM     15  O   UNL     1       7.690  -5.807  27.568  0.00  0.00    -0.480 OA
ATOM     16  H   UNL     1       7.468  -6.750  27.754  0.00  0.00    +0.295 HD
ENDBRANCH  13  15
ENDBRANCH   5  13
TORSDOF 5
ENDMDL
MODEL 6
REMARK VINA RESULT:      -4.6      6.281      7.492
REMARK  Name = 
REMARK  5 active torsions:
REMARK  status: ('A' for Active; 'I' for Inactive)
REMARK    1  A    between atoms: O_1  and  C_2
REMARK    2  A    between atoms: C_5  and  C_13
REMARK    3  A    between atoms: C_8  and  O_9
REMARK    4  A    between atoms: C_10  and  O_12
REMARK    5  A    between atoms: C_13  and  O_14
REMARK                            x       y       z     vdW  Elec       q    Type
REMARK                         _______ _______ _______ _____ _____    ______ ____
ROOT
ATOM      1  C   UNL     1       6.234  -5.042  26.025  0.00  0.00    +0.151 C 
ATOM      2  C   UNL     1       7.786  -4.880  26.058  0.00  0.00    +0.207 C 
ATOM      3  C   UNL     1       8.463  -4.766  24.719  0.00  0.00    +0.122 C 
ATOM      4  C   UNL     1       7.808  -4.708  23.550  0.00  0.00    +0.031 C 
ATOM      5  C   UNL     1       6.314  -4.771  23.444  0.00  0.00    +0.126 C 
ATOM      6  C   UNL     1       5.522  -4.603  24.747  0.00  0.00    +0.053 C 
ENDROOT
BRANCH   1   7
ATOM      7  O   UNL     1       5.826  -6.397  26.244  0.00  0.00    -0.389 OA
ATOM      8  H   UNL     1       6.583  -6.952  25.976  0.00  0.00    +0.210 HD
ENDBRANCH   1   7
BRANCH   2   9
ATOM      9  O   UNL     1       8.391  -5.955  26.774  0.00  0.00    -0.382 OA
ATOM     10  H   UNL     1       8.811  -5.552  27.560  0.00  0.00    +0.210 HD
ENDBRANCH   2   9
BRANCH   3  11
ATOM     11  O   UNL     1       9.840  -4.751  24.779  0.00  0.00    -0.509 OA
ATOM     12  H   UNL     1      10.137  -3.897  25.167  0.00  0.00    +0.292 HD
ENDBRANCH   3  11
BRANCH   5  13
ATOM     13  C   UNL     1       5.947  -6.052  22.696  0.00  0.00    +0.312 C 
ATOM     14  O   UNL     1       6.513  -6.396  21.661  0.00  0.00    -0.250 OA
BRANCH  13  15
ATOM     15  O   UNL     1       5.026  -6.826  23.297  0.00  0.00    -0.480 OA
ATOM     16  H   UNL     1       5.280  -7.775  23.395  0.00  0.00    +0.295 HD
ENDBRANCH  13  15
ENDBRANCH   5  13
TORSDOF 5
ENDMDL
MODEL 7
REMARK VINA RESULT:      -4.6      2.147      2.753
REMARK  Name = 
REMARK  5 active torsions:
REMARK  status: ('A' for Active; 'I' for Inactive)
REMARK    1  A    between atoms: O_1  and  C_2
REMARK    2  A    between atoms: C_5  and  C_13
REMARK    3  A    between atoms: C_8  and  O_9
REMARK    4  A    between atoms: C_10  and  O_12
REMARK    5  A    between atoms: C_13  and  O_14
REMARK                            x       y       z     vdW  Elec       q    Type
REMARK                         _______ _______ _______ _____ _____    ______ ____
ROOT
ATOM      1  C   UNL     1       7.452  -0.347  24.112  0.00  0.00    +0.151 C 
ATOM      2  C   UNL     1       8.185  -1.719  24.244  0.00  0.00    +0.207 C 
ATOM      3  C   UNL     1       9.628  -1.737  23.816  0.00  0.00    +0.122 C 
ATOM      4  C   UNL     1      10.308  -0.648  23.430  0.00  0.00    +0.031 C 
ATOM      5  C   UNL     1       9.696   0.719  23.360  0.00  0.00    +0.126 C 
ATOM      6  C   UNL     1       8.331   0.900  24.036  0.00  0.00    +0.053 C 
ENDROOT
BRANCH   1   7
ATOM      7  O   UNL     1       6.609  -0.293  22.956  0.00  0.00    -0.389 OA
ATOM      8  H   UNL     1       7.075   0.270  22.310  0.00  0.00    +0.210 HD
ENDBRANCH   1   7
BRANCH   2   9
ATOM      9  O   UNL     1       7.493  -2.733  23.519  0.00  0.00    -0.382 OA
ATOM     10  H   UNL     1       6.994  -3.248  24.186  0.00  0.00    +0.210 HD
ENDBRANCH   2   9
BRANCH   3  11
ATOM     11  O   UNL     1      10.207  -2.987  23.827  0.00  0.00    -0.509 OA
ATOM     12  H   UNL     1      10.799  -3.076  23.046  0.00  0.00    +0.292 HD
ENDBRANCH   3  11
BRANCH   5  13
ATOM     13  C   UNL     1       9.688   1.159  21.896  0.00  0.00    +0.312 C 
ATOM     14  O   UNL     1       9.077   0.542  21.026  0.00  0.00    -0.250 OA
BRANCH  13  15
ATOM     15  O   UNL     1      10.317   2.320  21.640  0.00  0.00    -0.480 OA
ATOM     16  H   UNL     1      10.072   3.067  22.236  0.00  0.00    +0.295 HD
ENDBRANCH  13  15
ENDBRANCH   5  13
TORSDOF 5
ENDMDL
MODEL 8
REMARK VINA RESULT:      -4.5      4.516      6.304
REMARK  Name = 
REMARK  5 active torsions:
REMARK  status: ('A' for Active; 'I' for Inactive)
REMARK    1  A    between atoms: O_1  and  C_2
REMARK    2  A    between atoms: C_5  and  C_13
REMARK    3  A    between atoms: C_8  and  O_9
REMARK    4  A    between atoms: C_10  and  O_12
REMARK    5  A    between atoms: C_13  and  O_14
REMARK                            x       y       z     vdW  Elec       q    Type
REMARK                         _______ _______ _______ _____ _____    ______ ____
ROOT
ATOM      1  C   UNL     1       8.297  -4.301  24.761  0.00  0.00    +0.151 C 
ATOM      2  C   UNL     1       8.788  -3.003  24.047  0.00  0.00    +0.207 C 
ATOM      3  C   UNL     1       8.033  -2.611  22.805  0.00  0.00    +0.122 C 
ATOM      4  C   UNL     1       6.942  -3.251  22.358  0.00  0.00    +0.031 C 
ATOM      5  C   UNL     1       6.361  -4.453  23.038  0.00  0.00    +0.126 C 
ATOM      6  C   UNL     1       6.875  -4.764  24.450  0.00  0.00    +0.053 C 
ENDROOT
BRANCH   1   7
ATOM      7  O   UNL     1       9.136  -5.426  24.478  0.00  0.00    -0.389 OA
ATOM      8  H   UNL     1       8.546  -6.204  24.464  0.00  0.00    +0.210 HD
ENDBRANCH   1   7
BRANCH   2   9
ATOM      9  O   UNL     1      10.171  -3.103  23.714  0.00  0.00    -0.382 OA
ATOM     10  H   UNL     1      10.626  -3.380  24.535  0.00  0.00    +0.210 HD
ENDBRANCH   2   9
BRANCH   3  11
ATOM     11  O   UNL     1       8.569  -1.535  22.131  0.00  0.00    -0.509 OA
ATOM     12  H   UNL     1       8.207  -1.513  21.217  0.00  0.00    +0.292 HD
ENDBRANCH   3  11
BRANCH   5  13
ATOM     13  C   UNL     1       6.495  -5.645  22.090  0.00  0.00    +0.312 C 
ATOM     14  O   UNL     1       7.559  -6.239  21.926  0.00  0.00    -0.250 OA
BRANCH  13  15
ATOM     15  O   UNL     1       5.351  -6.059  21.519  0.00  0.00    -0.480 OA
ATOM     16  H   UNL     1       4.765  -5.337  21.189  0.00  0.00    +0.295 HD
ENDBRANCH  13  15
ENDBRANCH   5  13
TORSDOF 5
ENDMDL
MODEL 9
REMARK VINA RESULT:      -4.4      6.886      8.469
REMARK  Name = 
REMARK  5 active torsions:
REMARK  status: ('A' for Active; 'I' for Inactive)
REMARK    1  A    between atoms: O_1  and  C_2
REMARK    2  A    between atoms: C_5  and  C_13
REMARK    3  A    between atoms: C_8  and  O_9
REMARK    4  A    between atoms: C_10  and  O_12
REMARK    5  A    between atoms: C_13  and  O_14
REMARK                            x       y       z     vdW  Elec       q    Type
REMARK                         _______ _______ _______ _____ _____    ______ ____
ROOT
ATOM      1  C   UNL     1       4.285  -5.462  23.264  0.00  0.00    +0.151 C 
ATOM      2  C   UNL     1       4.035  -6.370  24.509  0.00  0.00    +0.207 C 
ATOM      3  C   UNL     1       5.122  -6.370  25.550  0.00  0.00    +0.122 C 
ATOM      4  C   UNL     1       6.207  -5.584  25.500  0.00  0.00    +0.031 C 
ATOM      5  C   UNL     1       6.474  -4.624  24.380  0.00  0.00    +0.126 C 
ATOM      6  C   UNL     1       5.309  -4.340  23.422  0.00  0.00    +0.053 C 
ENDROOT
BRANCH   1   7
ATOM      7  O   UNL     1       4.714  -6.214  22.122  0.00  0.00    -0.389 OA
ATOM      8  H   UNL     1       4.686  -7.151  22.392  0.00  0.00    +0.210 HD
ENDBRANCH   1   7
BRANCH   2   9
ATOM      9  O   UNL     1       3.801  -7.719  24.110  0.00  0.00    -0.382 OA
ATOM     10  H   UNL     1       4.103  -8.276  24.856  0.00  0.00    +0.210 HD
ENDBRANCH   2   9
BRANCH   3  11
ATOM     11  O   UNL     1       4.929  -7.274  26.572  0.00  0.00    -0.509 OA
ATOM     12  H   UNL     1       4.276  -6.907  27.209  0.00  0.00    +0.292 HD
ENDBRANCH   3  11
BRANCH   5  13
ATOM     13  C   UNL     1       7.734  -5.088  23.649  0.00  0.00    +0.312 C 
ATOM     14  O   UNL     1       8.846  -5.060  24.172  0.00  0.00    -0.250 OA
BRANCH  13  15
ATOM     15  O   UNL     1       7.531  -5.615  22.429  0.00  0.00    -0.480 OA
ATOM     16  H   UNL     1       7.261  -4.968  21.735  0.00  0.00    +0.295 HD
ENDBRANCH  13  15
ENDBRANCH   5  13
TORSDOF 5
ENDMDL
