MODEL 1
REMARK VINA RESULT:      -6.8      0.000      0.000
REMARK  Name = 
REMARK  6 active torsions:
REMARK  status: ('A' for Active; 'I' for Inactive)
REMARK    1  A    between atoms: C_1  and  O_2
REMARK    2  A    between atoms: O_2  and  C_3
REMARK    3  A    between atoms: C_4  and  O_5
REMARK    4  A    between atoms: C_11  and  N_24
REMARK    5  A    between atoms: C_20  and  C_21
REMARK    6  A    between atoms: C_21  and  O_22
REMARK                            x       y       z     vdW  Elec       q    Type
REMARK                         _______ _______ _______ _____ _____    ______ ____
ROOT
ATOM      1  C   UNL     1       7.934  -4.188  23.894  0.00  0.00    +0.169 A 
ATOM      2  C   UNL     1       6.793  -4.792  24.517  0.00  0.00    +0.035 A 
ATOM      3  C   UNL     1       5.571  -4.926  23.847  0.00  0.00    +0.097 A 
ATOM      4  C   UNL     1       4.467  -5.561  24.450  0.00  0.00    +0.282 A 
ATOM      5  C   UNL     1       4.488  -6.084  25.779  0.00  0.00    +0.077 A 
ATOM      6  C   UNL     1       3.435  -6.851  26.438  0.00  0.00    +0.077 A 
ATOM      7  C   UNL     1       3.468  -7.151  27.806  0.00  0.00    +0.065 A 
ATOM      8  C   UNL     1       4.546  -6.708  28.515  0.00  0.00    +0.168 A 
ATOM      9  O   UNL     1       4.705  -6.873  29.854  0.00  0.00    -0.453 OA
ATOM     10  C   UNL     1       5.983  -6.252  30.055  0.00  0.00    +0.466 C 
ATOM     11  O   UNL     1       6.559  -5.760  28.835  0.00  0.00    -0.452 OA
ATOM     12  C   UNL     1       5.612  -6.093  27.902  0.00  0.00    +0.175 A 
ATOM     13  C   UNL     1       5.677  -5.812  26.516  0.00  0.00    +0.043 A 
ATOM     14  C   UNL     1       6.855  -5.267  25.855  0.00  0.00    -0.002 A 
ATOM     15  C   UNL     1       8.131  -5.204  26.472  0.00  0.00    +0.013 A 
ATOM     16  C   UNL     1       9.250  -4.651  25.857  0.00  0.00    +0.050 A 
ATOM     17  C   UNL     1       9.140  -4.106  24.595  0.00  0.00    +0.159 A 
ENDROOT
BRANCH   4  18
ATOM     18  N   UNL     1       3.206  -5.436  23.714  0.00  0.00    +0.080 N 
ATOM     19  O   UNL     1       2.452  -4.516  24.066  0.00  0.00    +0.041 OA
ATOM     20  O   UNL     1       3.033  -6.182  22.744  0.00  0.00    -0.576 OA
ENDBRANCH   4  18
BRANCH   1  22
ATOM     21  C   UNL     1       7.579  -2.244  22.541  0.00  0.00    +0.277 C 
ATOM     22  O   UNL     1       7.740  -3.658  22.638  0.00  0.00    -0.491 OA
ENDBRANCH   1  22
BRANCH   6  23
ATOM     23  C   UNL     1       2.402  -7.575  25.652  0.00  0.00    +0.338 C 
ATOM     24  O   UNL     1       1.237  -7.216  25.655  0.00  0.00    -0.245 OA
BRANCH  23  25
ATOM     25  O   UNL     1       2.867  -8.593  24.902  0.00  0.00    -0.477 OA
ATOM     26  H   UNL     1       3.556  -9.148  25.312  0.00  0.00    +0.295 HD
ENDBRANCH  23  25
ENDBRANCH   6  23
BRANCH  17  27
ATOM     27  O   UNL     1      10.248  -3.456  24.141  0.00  0.00    -0.503 OA
ATOM     28  H   UNL     1       9.977  -3.021  23.315  0.00  0.00    +0.292 HD
ENDBRANCH  17  27
TORSDOF 5
ENDMDL
MODEL 2
REMARK VINA RESULT:      -6.6      2.529      4.910
REMARK  Name = 
REMARK  6 active torsions:
REMARK  status: ('A' for Active; 'I' for Inactive)
REMARK    1  A    between atoms: C_1  and  O_2
REMARK    2  A    between atoms: O_2  and  C_3
REMARK    3  A    between atoms: C_4  and  O_5
REMARK    4  A    between atoms: C_11  and  N_24
REMARK    5  A    between atoms: C_20  and  C_21
REMARK    6  A    between atoms: C_21  and  O_22
REMARK                            x       y       z     vdW  Elec       q    Type
REMARK                         _______ _______ _______ _____ _____    ______ ____
ROOT
ATOM      1  C   UNL     1       8.556  -1.205  25.587  0.00  0.00    +0.169 A 
ATOM      2  C   UNL     1       7.793  -2.416  25.514  0.00  0.00    +0.035 A 
ATOM      3  C   UNL     1       7.474  -3.157  26.658  0.00  0.00    +0.097 A 
ATOM      4  C   UNL     1       6.686  -4.322  26.584  0.00  0.00    +0.282 A 
ATOM      5  C   UNL     1       6.180  -4.855  25.358  0.00  0.00    +0.077 A 
ATOM      6  C   UNL     1       5.270  -5.985  25.200  0.00  0.00    +0.077 A 
ATOM      7  C   UNL     1       4.988  -6.555  23.952  0.00  0.00    +0.065 A 
ATOM      8  C   UNL     1       5.591  -5.997  22.863  0.00  0.00    +0.168 A 
ATOM      9  O   UNL     1       5.461  -6.460  21.592  0.00  0.00    -0.453 OA
ATOM     10  C   UNL     1       6.267  -5.514  20.874  0.00  0.00    +0.466 C 
ATOM     11  O   UNL     1       6.831  -4.506  21.726  0.00  0.00    -0.452 OA
ATOM     12  C   UNL     1       6.354  -4.858  22.962  0.00  0.00    +0.175 A 
ATOM     13  C   UNL     1       6.632  -4.192  24.180  0.00  0.00    +0.043 A 
ATOM     14  C   UNL     1       7.342  -2.923  24.265  0.00  0.00    -0.002 A 
ATOM     15  C   UNL     1       7.599  -2.102  23.138  0.00  0.00    +0.013 A 
ATOM     16  C   UNL     1       8.308  -0.906  23.210  0.00  0.00    +0.050 A 
ATOM     17  C   UNL     1       8.823  -0.486  24.419  0.00  0.00    +0.159 A 
ENDROOT
BRANCH   4  18
ATOM     18  N   UNL     1       6.616  -5.100  27.823  0.00  0.00    +0.080 N 
ATOM     19  O   UNL     1       7.426  -6.033  27.935  0.00  0.00    +0.041 OA
ATOM     20  O   UNL     1       5.834  -4.714  28.699  0.00  0.00    -0.576 OA
ENDBRANCH   4  18
BRANCH   1  22
ATOM     21  C   UNL     1       8.241   0.007  27.629  0.00  0.00    +0.277 C 
ATOM     22  O   UNL     1       9.043  -0.859  26.827  0.00  0.00    -0.491 OA
ENDBRANCH   1  22
BRANCH   6  23
ATOM     23  C   UNL     1       4.394  -6.430  26.316  0.00  0.00    +0.338 C 
ATOM     24  O   UNL     1       3.274  -5.972  26.462  0.00  0.00    -0.245 OA
BRANCH  23  25
ATOM     25  O   UNL     1       4.906  -7.407  27.089  0.00  0.00    -0.477 OA
ATOM     26  H   UNL     1       5.880  -7.455  27.129  0.00  0.00    +0.295 HD
ENDBRANCH  23  25
ENDBRANCH   6  23
BRANCH  17  27
ATOM     27  O   UNL     1       9.628   0.612  24.361  0.00  0.00    -0.503 OA
ATOM     28  H   UNL     1       9.581   0.922  23.440  0.00  0.00    +0.292 HD
ENDBRANCH  17  27
TORSDOF 5
ENDMDL
MODEL 3
REMARK VINA RESULT:      -6.5      3.241      3.955
REMARK  Name = 
REMARK  6 active torsions:
REMARK  status: ('A' for Active; 'I' for Inactive)
REMARK    1  A    between atoms: C_1  and  O_2
REMARK    2  A    between atoms: O_2  and  C_3
REMARK    3  A    between atoms: C_4  and  O_5
REMARK    4  A    between atoms: C_11  and  N_24
REMARK    5  A    between atoms: C_20  and  C_21
REMARK    6  A    between atoms: C_21  and  O_22
REMARK                            x       y       z     vdW  Elec       q    Type
REMARK                         _______ _______ _______ _____ _____    ______ ____
ROOT
ATOM      1  C   UNL     1       9.187  -1.502  24.255  0.00  0.00    +0.169 A 
ATOM      2  C   UNL     1       7.989  -2.283  24.169  0.00  0.00    +0.035 A 
ATOM      3  C   UNL     1       7.805  -3.248  23.172  0.00  0.00    +0.097 A 
ATOM      4  C   UNL     1       6.643  -4.042  23.121  0.00  0.00    +0.282 A 
ATOM      5  C   UNL     1       5.561  -3.915  24.045  0.00  0.00    +0.077 A 
ATOM      6  C   UNL     1       4.377  -4.765  24.134  0.00  0.00    +0.077 A 
ATOM      7  C   UNL     1       3.279  -4.443  24.942  0.00  0.00    +0.065 A 
ATOM      8  C   UNL     1       3.359  -3.292  25.671  0.00  0.00    +0.168 A 
ATOM      9  O   UNL     1       2.364  -2.815  26.463  0.00  0.00    -0.453 OA
ATOM     10  C   UNL     1       2.979  -1.628  26.987  0.00  0.00    +0.466 C 
ATOM     11  O   UNL     1       4.323  -1.446  26.516  0.00  0.00    -0.452 OA
ATOM     12  C   UNL     1       4.506  -2.535  25.705  0.00  0.00    +0.175 A 
ATOM     13  C   UNL     1       5.675  -2.832  24.964  0.00  0.00    +0.043 A 
ATOM     14  C   UNL     1       6.925  -2.094  25.093  0.00  0.00    -0.002 A 
ATOM     15  C   UNL     1       7.179  -1.179  26.147  0.00  0.00    +0.013 A 
ATOM     16  C   UNL     1       8.357  -0.446  26.254  0.00  0.00    +0.050 A 
ATOM     17  C   UNL     1       9.334  -0.573  25.288  0.00  0.00    +0.159 A 
ENDROOT
BRANCH   4  18
ATOM     18  N   UNL     1       6.501  -4.851  21.908  0.00  0.00    +0.080 N 
ATOM     19  O   UNL     1       5.747  -4.401  21.031  0.00  0.00    +0.041 OA
ATOM     20  O   UNL     1       7.210  -5.858  21.804  0.00  0.00    -0.576 OA
ENDBRANCH   4  18
BRANCH   1  22
ATOM     21  C   UNL     1      10.054  -0.780  22.142  0.00  0.00    +0.277 C 
ATOM     22  O   UNL     1      10.109  -1.679  23.248  0.00  0.00    -0.491 OA
ENDBRANCH   1  22
BRANCH   6  23
ATOM     23  C   UNL     1       4.375  -6.144  23.577  0.00  0.00    +0.338 C 
ATOM     24  O   UNL     1       4.904  -7.067  24.172  0.00  0.00    -0.245 OA
BRANCH  23  25
ATOM     25  O   UNL     1       3.697  -6.292  22.423  0.00  0.00    -0.477 OA
ATOM     26  H   UNL     1       2.871  -6.808  22.475  0.00  0.00    +0.295 HD
ENDBRANCH  23  25
ENDBRANCH   6  23
BRANCH  17  27
ATOM     27  O   UNL     1      10.379   0.295  25.397  0.00  0.00    -0.503 OA
ATOM     28  H   UNL     1      10.662   0.480  24.486  0.00  0.00    +0.292 HD
ENDBRANCH  17  27
TORSDOF 5
ENDMDL
MODEL 4
REMARK VINA RESULT:      -6.3      4.013      7.197
REMARK  Name = 
REMARK  6 active torsions:
REMARK  status: ('A' for Active; 'I' for Inactive)
REMARK    1  A    between atoms: C_1  and  O_2
REMARK    2  A    between atoms: O_2  and  C_3
REMARK    3  A    between atoms: C_4  and  O_5
REMARK    4  A    between atoms: C_11  and  N_24
REMARK    5  A    between atoms: C_20  and  C_21
REMARK    6  A    between atoms: C_21  and  O_22
REMARK                            x       y       z     vdW  Elec       q    Type
REMARK                         _______ _______ _______ _____ _____    ______ ____
ROOT
ATOM      1  C   UNL     1       5.716  -4.299  22.334  0.00  0.00    +0.169 A 
ATOM      2  C   UNL     1       6.411  -3.143  22.820  0.00  0.00    +0.035 A 
ATOM      3  C   UNL     1       7.563  -2.656  22.192  0.00  0.00    +0.097 A 
ATOM      4  C   UNL     1       8.214  -1.493  22.649  0.00  0.00    +0.282 A 
ATOM      5  C   UNL     1       7.783  -0.745  23.787  0.00  0.00    +0.077 A 
ATOM      6  C   UNL     1       8.328   0.525  24.262  0.00  0.00    +0.077 A 
ATOM      7  C   UNL     1       7.971   1.081  25.497  0.00  0.00    +0.065 A 
ATOM      8  C   UNL     1       7.066   0.393  26.251  0.00  0.00    +0.168 A 
ATOM      9  O   UNL     1       6.653   0.771  27.489  0.00  0.00    -0.453 OA
ATOM     10  C   UNL     1       5.717  -0.272  27.794  0.00  0.00    +0.466 C 
ATOM     11  O   UNL     1       5.579  -1.224  26.727  0.00  0.00    -0.452 OA
ATOM     12  C   UNL     1       6.442  -0.738  25.781  0.00  0.00    +0.175 A 
ATOM     13  C   UNL     1       6.707  -1.324  24.519  0.00  0.00    +0.043 A 
ATOM     14  C   UNL     1       5.961  -2.452  23.979  0.00  0.00    -0.002 A 
ATOM     15  C   UNL     1       4.740  -2.913  24.535  0.00  0.00    +0.013 A 
ATOM     16  C   UNL     1       4.043  -4.012  24.043  0.00  0.00    +0.050 A 
ATOM     17  C   UNL     1       4.553  -4.727  22.979  0.00  0.00    +0.159 A 
ENDROOT
BRANCH   4  18
ATOM     18  N   UNL     1       9.515  -1.231  22.029  0.00  0.00    +0.080 N 
ATOM     19  O   UNL     1      10.490  -1.816  22.524  0.00  0.00    +0.041 OA
ATOM     20  O   UNL     1       9.533  -0.534  21.008  0.00  0.00    -0.576 OA
ENDBRANCH   4  18
BRANCH   1  22
ATOM     21  C   UNL     1       7.166  -6.051  21.582  0.00  0.00    +0.277 C 
ATOM     22  O   UNL     1       6.294  -4.963  21.276  0.00  0.00    -0.491 OA
ENDBRANCH   1  22
BRANCH   6  23
ATOM     23  C   UNL     1       9.090   1.422  23.355  0.00  0.00    +0.338 C 
ATOM     24  O   UNL     1      10.282   1.622  23.517  0.00  0.00    -0.245 OA
BRANCH  23  25
ATOM     25  O   UNL     1       8.383   1.927  22.325  0.00  0.00    -0.477 OA
ATOM     26  H   UNL     1       8.616   2.833  22.049  0.00  0.00    +0.295 HD
ENDBRANCH  23  25
ENDBRANCH   6  23
BRANCH  17  27
ATOM     27  O   UNL     1       3.881  -5.871  22.670  0.00  0.00    -0.503 OA
ATOM     28  H   UNL     1       4.547  -6.580  22.689  0.00  0.00    +0.292 HD
ENDBRANCH  17  27
TORSDOF 5
ENDMDL
MODEL 5
REMARK VINA RESULT:      -6.3      4.168      8.048
REMARK  Name = 
REMARK  6 active torsions:
REMARK  status: ('A' for Active; 'I' for Inactive)
REMARK    1  A    between atoms: C_1  and  O_2
REMARK    2  A    between atoms: O_2  and  C_3
REMARK    3  A    between atoms: C_4  and  O_5
REMARK    4  A    between atoms: C_11  and  N_24
REMARK    5  A    between atoms: C_20  and  C_21
REMARK    6  A    between atoms: C_21  and  O_22
REMARK                            x       y       z     vdW  Elec       q    Type
REMARK                         _______ _______ _______ _____ _____    ______ ____
ROOT
ATOM      1  C   UNL     1       7.821  -3.413  26.358  0.00  0.00    +0.169 A 
ATOM      2  C   UNL     1       7.901  -2.260  25.512  0.00  0.00    +0.035 A 
ATOM      3  C   UNL     1       9.060  -1.954  24.789  0.00  0.00    +0.097 A 
ATOM      4  C   UNL     1       9.115  -0.843  23.924  0.00  0.00    +0.282 A 
ATOM      5  C   UNL     1       8.029   0.065  23.737  0.00  0.00    +0.077 A 
ATOM      6  C   UNL     1       7.961   1.170  22.784  0.00  0.00    +0.077 A 
ATOM      7  C   UNL     1       6.936   2.124  22.811  0.00  0.00    +0.065 A 
ATOM      8  C   UNL     1       5.973   1.976  23.767  0.00  0.00    +0.168 A 
ATOM      9  O   UNL     1       4.942   2.840  23.957  0.00  0.00    -0.453 OA
ATOM     10  C   UNL     1       4.252   2.205  25.044  0.00  0.00    +0.466 C 
ATOM     11  O   UNL     1       4.872   0.975  25.451  0.00  0.00    -0.452 OA
ATOM     12  C   UNL     1       5.940   0.882  24.598  0.00  0.00    +0.175 A 
ATOM     13  C   UNL     1       6.906  -0.153  24.586  0.00  0.00    +0.043 A 
ATOM     14  C   UNL     1       6.802  -1.366  25.386  0.00  0.00    -0.002 A 
ATOM     15  C   UNL     1       5.613  -1.754  26.055  0.00  0.00    +0.013 A 
ATOM     16  C   UNL     1       5.521  -2.894  26.849  0.00  0.00    +0.050 A 
ATOM     17  C   UNL     1       6.631  -3.691  27.036  0.00  0.00    +0.159 A 
ENDROOT
BRANCH   4  18
ATOM     18  N   UNL     1      10.450  -0.532  23.405  0.00  0.00    +0.080 N 
ATOM     19  O   UNL     1      11.047   0.409  23.950  0.00  0.00    +0.041 OA
ATOM     20  O   UNL     1      10.918  -1.282  22.542  0.00  0.00    -0.576 OA
ENDBRANCH   4  18
BRANCH   1  22
ATOM     21  C   UNL     1       9.114  -5.313  25.685  0.00  0.00    +0.277 C 
ATOM     22  O   UNL     1       8.973  -4.152  26.502  0.00  0.00    -0.491 OA
ENDBRANCH   1  22
BRANCH   6  23
ATOM     23  C   UNL     1       8.826   1.199  21.575  0.00  0.00    +0.338 C 
ATOM     24  O   UNL     1       8.641   0.431  20.647  0.00  0.00    -0.245 OA
BRANCH  23  25
ATOM     25  O   UNL     1       9.763   2.166  21.567  0.00  0.00    -0.477 OA
ATOM     26  H   UNL     1      10.543   2.013  22.134  0.00  0.00    +0.295 HD
ENDBRANCH  23  25
ENDBRANCH   6  23
BRANCH  17  27
ATOM     27  O   UNL     1       6.483  -4.692  27.948  0.00  0.00    -0.503 OA
ATOM     28  H   UNL     1       6.748  -4.311  28.802  0.00  0.00    +0.292 HD
ENDBRANCH  17  27
TORSDOF 5
ENDMDL
MODEL 6
REMARK VINA RESULT:      -6.3      3.848      5.779
REMARK  Name = 
REMARK  6 active torsions:
REMARK  status: ('A' for Active; 'I' for Inactive)
REMARK    1  A    between atoms: C_1  and  O_2
REMARK    2  A    between atoms: O_2  and  C_3
REMARK    3  A    between atoms: C_4  and  O_5
REMARK    4  A    between atoms: C_11  and  N_24
REMARK    5  A    between atoms: C_20  and  C_21
REMARK    6  A    between atoms: C_21  and  O_22
REMARK                            x       y       z     vdW  Elec       q    Type
REMARK                         _______ _______ _______ _____ _____    ______ ____
ROOT
ATOM      1  C   UNL     1       8.463   1.529  23.016  0.00  0.00    +0.169 A 
ATOM      2  C   UNL     1       7.863   0.503  23.816  0.00  0.00    +0.035 A 
ATOM      3  C   UNL     1       6.770   0.763  24.651  0.00  0.00    +0.097 A 
ATOM      4  C   UNL     1       6.157  -0.260  25.401  0.00  0.00    +0.282 A 
ATOM      5  C   UNL     1       6.607  -1.616  25.399  0.00  0.00    +0.077 A 
ATOM      6  C   UNL     1       5.969  -2.755  26.054  0.00  0.00    +0.077 A 
ATOM      7  C   UNL     1       6.590  -4.006  26.159  0.00  0.00    +0.065 A 
ATOM      8  C   UNL     1       7.830  -4.134  25.604  0.00  0.00    +0.168 A 
ATOM      9  O   UNL     1       8.584  -5.263  25.663  0.00  0.00    -0.453 OA
ATOM     10  C   UNL     1       9.744  -4.854  24.922  0.00  0.00    +0.466 C 
ATOM     11  O   UNL     1       9.639  -3.511  24.425  0.00  0.00    -0.452 OA
ATOM     12  C   UNL     1       8.405  -3.121  24.875  0.00  0.00    +0.175 A 
ATOM     13  C   UNL     1       7.811  -1.852  24.674  0.00  0.00    +0.043 A 
ATOM     14  C   UNL     1       8.370  -0.825  23.805  0.00  0.00    -0.002 A 
ATOM     15  C   UNL     1       9.415  -1.077  22.880  0.00  0.00    +0.013 A 
ATOM     16  C   UNL     1       9.976  -0.091  22.073  0.00  0.00    +0.050 A 
ATOM     17  C   UNL     1       9.534   1.212  22.175  0.00  0.00    +0.159 A 
ENDROOT
BRANCH   4  18
ATOM     18  N   UNL     1       5.171   0.200  26.381  0.00  0.00    +0.080 N 
ATOM     19  O   UNL     1       5.588   0.392  27.534  0.00  0.00    +0.041 OA
ATOM     20  O   UNL     1       4.033   0.456  25.973  0.00  0.00    -0.576 OA
ENDBRANCH   4  18
BRANCH   1  22
ATOM     21  C   UNL     1       7.137   3.327  22.151  0.00  0.00    +0.277 C 
ATOM     22  O   UNL     1       7.973   2.805  23.182  0.00  0.00    -0.491 OA
ENDBRANCH   1  22
BRANCH   6  23
ATOM     23  C   UNL     1       4.528  -2.726  26.416  0.00  0.00    +0.338 C 
ATOM     24  O   UNL     1       4.167  -2.765  27.580  0.00  0.00    -0.245 OA
BRANCH  23  25
ATOM     25  O   UNL     1       3.681  -2.588  25.377  0.00  0.00    -0.477 OA
ATOM     26  H   UNL     1       4.004  -2.049  24.630  0.00  0.00    +0.295 HD
ENDBRANCH  23  25
ENDBRANCH   6  23
BRANCH  17  27
ATOM     27  O   UNL     1      10.245   2.127  21.460  0.00  0.00    -0.503 OA
ATOM     28  H   UNL     1       9.621   2.844  21.256  0.00  0.00    +0.292 HD
ENDBRANCH  17  27
TORSDOF 5
ENDMDL
MODEL 7
REMARK VINA RESULT:      -6.2      3.540      5.612
REMARK  Name = 
REMARK  6 active torsions:
REMARK  status: ('A' for Active; 'I' for Inactive)
REMARK    1  A    between atoms: C_1  and  O_2
REMARK    2  A    between atoms: O_2  and  C_3
REMARK    3  A    between atoms: C_4  and  O_5
REMARK    4  A    between atoms: C_11  and  N_24
REMARK    5  A    between atoms: C_20  and  C_21
REMARK    6  A    between atoms: C_21  and  O_22
REMARK                            x       y       z     vdW  Elec       q    Type
REMARK                         _______ _______ _______ _____ _____    ______ ____
ROOT
ATOM      1  C   UNL     1       7.620   0.634  22.710  0.00  0.00    +0.169 A 
ATOM      2  C   UNL     1       7.382  -0.486  23.572  0.00  0.00    +0.035 A 
ATOM      3  C   UNL     1       8.130  -1.665  23.473  0.00  0.00    +0.097 A 
ATOM      4  C   UNL     1       7.922  -2.744  24.354  0.00  0.00    +0.282 A 
ATOM      5  C   UNL     1       6.930  -2.742  25.382  0.00  0.00    +0.077 A 
ATOM      6  C   UNL     1       6.721  -3.764  26.404  0.00  0.00    +0.077 A 
ATOM      7  C   UNL     1       5.600  -3.769  27.245  0.00  0.00    +0.065 A 
ATOM      8  C   UNL     1       4.700  -2.756  27.086  0.00  0.00    +0.168 A 
ATOM      9  O   UNL     1       3.541  -2.644  27.786  0.00  0.00    -0.453 OA
ATOM     10  C   UNL     1       3.013  -1.424  27.245  0.00  0.00    +0.466 C 
ATOM     11  O   UNL     1       3.877  -0.834  26.262  0.00  0.00    -0.452 OA
ATOM     12  C   UNL     1       4.928  -1.713  26.221  0.00  0.00    +0.175 A 
ATOM     13  C   UNL     1       6.066  -1.609  25.385  0.00  0.00    +0.043 A 
ATOM     14  C   UNL     1       6.359  -0.447  24.558  0.00  0.00    -0.002 A 
ATOM     15  C   UNL     1       5.684   0.793  24.696  0.00  0.00    +0.013 A 
ATOM     16  C   UNL     1       5.937   1.895  23.885  0.00  0.00    +0.050 A 
ATOM     17  C   UNL     1       6.866   1.800  22.869  0.00  0.00    +0.159 A 
ENDROOT
BRANCH   4  18
ATOM     18  N   UNL     1       8.626  -3.978  23.996  0.00  0.00    +0.080 N 
ATOM     19  O   UNL     1       7.987  -4.800  23.320  0.00  0.00    +0.041 OA
ATOM     20  O   UNL     1       9.820  -4.066  24.301  0.00  0.00    -0.576 OA
ENDBRANCH   4  18
BRANCH   1  22
ATOM     21  C   UNL     1       9.806   1.122  21.863  0.00  0.00    +0.277 C 
ATOM     22  O   UNL     1       8.554   0.456  21.714  0.00  0.00    -0.491 OA
ENDBRANCH   1  22
BRANCH   6  23
ATOM     23  C   UNL     1       7.806  -4.707  26.784  0.00  0.00    +0.338 C 
ATOM     24  O   UNL     1       7.652  -5.914  26.706  0.00  0.00    -0.245 OA
BRANCH  23  25
ATOM     25  O   UNL     1       8.966  -4.126  27.145  0.00  0.00    -0.477 OA
ATOM     26  H   UNL     1       8.966  -3.150  27.175  0.00  0.00    +0.295 HD
ENDBRANCH  23  25
ENDBRANCH   6  23
BRANCH  17  27
ATOM     27  O   UNL     1       6.932   2.876  22.036  0.00  0.00    -0.503 OA
ATOM     28  H   UNL     1       7.610   2.655  21.376  0.00  0.00    +0.292 HD
ENDBRANCH  17  27
TORSDOF 5
ENDMDL
MODEL 8
REMARK VINA RESULT:      -6.1      6.359      9.954
REMARK  Name = 
REMARK  6 active torsions:
REMARK  status: ('A' for Active; 'I' for Inactive)
REMARK    1  A    between atoms: C_1  and  O_2
REMARK    2  A    between atoms: O_2  and  C_3
REMARK    3  A    between atoms: C_4  and  O_5
REMARK    4  A    between atoms: C_11  and  N_24
REMARK    5  A    between atoms: C_20  and  C_21
REMARK    6  A    between atoms: C_21  and  O_22
REMARK                            x       y       z     vdW  Elec       q    Type
REMARK                         _______ _______ _______ _____ _____    ______ ____
ROOT
ATOM      1  C   UNL     1       8.493  -0.899  23.468  0.00  0.00    +0.169 A 
ATOM      2  C   UNL     1       8.219   0.504  23.554  0.00  0.00    +0.035 A 
ATOM      3  C   UNL     1       6.915   1.007  23.489  0.00  0.00    +0.097 A 
ATOM      4  C   UNL     1       6.649   2.384  23.621  0.00  0.00    +0.282 A 
ATOM      5  C   UNL     1       7.668   3.370  23.796  0.00  0.00    +0.077 A 
ATOM      6  C   UNL     1       7.478   4.795  24.050  0.00  0.00    +0.077 A 
ATOM      7  C   UNL     1       8.536   5.713  24.012  0.00  0.00    +0.065 A 
ATOM      8  C   UNL     1       9.778   5.220  23.740  0.00  0.00    +0.168 A 
ATOM      9  O   UNL     1      10.897   5.982  23.620  0.00  0.00    -0.453 OA
ATOM     10  C   UNL     1      11.886   4.975  23.360  0.00  0.00    +0.466 C 
ATOM     11  O   UNL     1      11.338   3.647  23.358  0.00  0.00    -0.452 OA
ATOM     12  C   UNL     1      10.011   3.871  23.619  0.00  0.00    +0.175 A 
ATOM     13  C   UNL     1       9.004   2.880  23.707  0.00  0.00    +0.043 A 
ATOM     14  C   UNL     1       9.273   1.449  23.695  0.00  0.00    -0.002 A 
ATOM     15  C   UNL     1      10.572   0.903  23.853  0.00  0.00    +0.013 A 
ATOM     16  C   UNL     1      10.838  -0.463  23.806  0.00  0.00    +0.050 A 
ATOM     17  C   UNL     1       9.812  -1.353  23.569  0.00  0.00    +0.159 A 
ENDROOT
BRANCH   4  18
ATOM     18  N   UNL     1       5.271   2.778  23.320  0.00  0.00    +0.080 N 
ATOM     19  O   UNL     1       5.085   3.351  22.236  0.00  0.00    +0.041 OA
ATOM     20  O   UNL     1       4.389   2.427  24.112  0.00  0.00    -0.576 OA
ENDBRANCH   4  18
BRANCH   1  22
ATOM     21  C   UNL     1       6.925  -2.505  24.305  0.00  0.00    +0.277 C 
ATOM     22  O   UNL     1       7.418  -1.722  23.219  0.00  0.00    -0.491 OA
ENDBRANCH   1  22
BRANCH   6  23
ATOM     23  C   UNL     1       6.205   5.313  24.615  0.00  0.00    +0.338 C 
ATOM     24  O   UNL     1       5.918   5.145  25.788  0.00  0.00    -0.245 OA
BRANCH  23  25
ATOM     25  O   UNL     1       5.448   6.026  23.758  0.00  0.00    -0.477 OA
ATOM     26  H   UNL     1       5.596   6.990  23.756  0.00  0.00    +0.295 HD
ENDBRANCH  23  25
ENDBRANCH   6  23
BRANCH  17  27
ATOM     27  O   UNL     1      10.193  -2.648  23.389  0.00  0.00    -0.503 OA
ATOM     28  H   UNL     1       9.745  -3.153  24.089  0.00  0.00    +0.292 HD
ENDBRANCH  17  27
TORSDOF 5
ENDMDL
MODEL 9
REMARK VINA RESULT:      -6.1      4.004      7.552
REMARK  Name = 
REMARK  6 active torsions:
REMARK  status: ('A' for Active; 'I' for Inactive)
REMARK    1  A    between atoms: C_1  and  O_2
REMARK    2  A    between atoms: O_2  and  C_3
REMARK    3  A    between atoms: C_4  and  O_5
REMARK    4  A    between atoms: C_11  and  N_24
REMARK    5  A    between atoms: C_20  and  C_21
REMARK    6  A    between atoms: C_21  and  O_22
REMARK                            x       y       z     vdW  Elec       q    Type
REMARK                         _______ _______ _______ _____ _____    ______ ____
ROOT
ATOM      1  C   UNL     1       6.581  -4.493  23.615  0.00  0.00    +0.169 A 
ATOM      2  C   UNL     1       6.884  -3.092  23.585  0.00  0.00    +0.035 A 
ATOM      3  C   UNL     1       8.032  -2.598  22.953  0.00  0.00    +0.097 A 
ATOM      4  C   UNL     1       8.299  -1.217  22.889  0.00  0.00    +0.282 A 
ATOM      5  C   UNL     1       7.458  -0.223  23.476  0.00  0.00    +0.077 A 
ATOM      6  C   UNL     1       7.598   1.226  23.363  0.00  0.00    +0.077 A 
ATOM      7  C   UNL     1       6.841   2.117  24.135  0.00  0.00    +0.065 A 
ATOM      8  C   UNL     1       5.937   1.577  25.002  0.00  0.00    +0.168 A 
ATOM      9  O   UNL     1       5.163   2.299  25.853  0.00  0.00    -0.453 OA
ATOM     10  C   UNL     1       4.413   1.256  26.491  0.00  0.00    +0.466 C 
ATOM     11  O   UNL     1       4.739  -0.049  25.989  0.00  0.00    -0.452 OA
ATOM     12  C   UNL     1       5.693   0.225  25.044  0.00  0.00    +0.175 A 
ATOM     13  C   UNL     1       6.374  -0.730  24.251  0.00  0.00    +0.043 A 
ATOM     14  C   UNL     1       6.031  -2.145  24.214  0.00  0.00    -0.002 A 
ATOM     15  C   UNL     1       4.830  -2.666  24.762  0.00  0.00    +0.013 A 
ATOM     16  C   UNL     1       4.515  -4.022  24.760  0.00  0.00    +0.050 A 
ATOM     17  C   UNL     1       5.407  -4.932  24.232  0.00  0.00    +0.159 A 
ENDROOT
BRANCH   4  18
ATOM     18  N   UNL     1       9.631  -0.869  22.388  0.00  0.00    +0.080 N 
ATOM     19  O   UNL     1      10.489  -0.600  23.244  0.00  0.00    +0.041 OA
ATOM     20  O   UNL     1       9.830  -0.966  21.173  0.00  0.00    -0.576 OA
ENDBRANCH   4  18
BRANCH   1  22
ATOM     21  C   UNL     1       7.193  -6.004  21.860  0.00  0.00    +0.277 C 
ATOM     22  O   UNL     1       7.525  -5.337  23.077  0.00  0.00    -0.491 OA
ENDBRANCH   1  22
BRANCH   6  23
ATOM     23  C   UNL     1       8.362   1.841  22.245  0.00  0.00    +0.338 C 
ATOM     24  O   UNL     1       7.918   1.858  21.110  0.00  0.00    -0.245 OA
BRANCH  23  25
ATOM     25  O   UNL     1       9.524   2.422  22.600  0.00  0.00    -0.477 OA
ATOM     26  H   UNL     1       9.652   2.576  23.555  0.00  0.00    +0.295 HD
ENDBRANCH  23  25
ENDBRANCH   6  23
BRANCH  17  27
ATOM     27  O   UNL     1       5.080  -6.242  24.414  0.00  0.00    -0.503 OA
ATOM     28  H   UNL     1       5.805  -6.752  24.015  0.00  0.00    +0.292 HD
ENDBRANCH  17  27
TORSDOF 5
ENDMDL
