MODEL 1
REMARK VINA RESULT:      -6.2      0.000      0.000
REMARK  Name = 
REMARK  6 active torsions:
REMARK  status: ('A' for Active; 'I' for Inactive)
REMARK    1  A    between atoms: O_1  and  C_2
REMARK    2  A    between atoms: C_2  and  C_3
REMARK    3  A    between atoms: N_10  and  O_11
REMARK    4  A    between atoms: C_14  and  O_16
REMARK    5  A    between atoms: C_17  and  O_19
REMARK    6  A    between atoms: C_20  and  O_22
REMARK                            x       y       z     vdW  Elec       q    Type
REMARK                         _______ _______ _______ _____ _____    ______ ____
ROOT
ATOM      1  C   UNL     1      11.426   4.534  23.181  0.00  0.00    +0.178 C 
ATOM      2  C   UNL     1      10.316   5.193  24.009  0.00  0.00    +0.177 C 
ATOM      3  C   UNL     1       9.027   4.366  23.958  0.00  0.00    +0.179 C 
ATOM      4  C   UNL     1       9.295   2.910  24.330  0.00  0.00    +0.205 C 
ATOM      5  C   UNL     1      10.428   2.354  23.431  0.00  0.00    +0.247 C 
ATOM      6  C   UNL     1      10.651   0.889  23.907  0.00  0.00    +0.300 C 
ATOM      7  O   UNL     1      10.982   0.559  25.038  0.00  0.00    -0.268 OA
ATOM      8  N   UNL     1      10.272   0.082  22.876  0.00  0.00    -0.096 N 
ATOM      9  C   UNL     1       9.766   0.798  21.843  0.00  0.00    +0.335 C 
ATOM     10  O   UNL     1       9.121   0.361  20.902  0.00  0.00    -0.250 OA
ATOM     11  N   UNL     1      10.034   2.133  22.059  0.00  0.00    -0.260 N 
ATOM     12  H   UNL     1       9.571   2.811  21.472  0.00  0.00    +0.154 HD
ATOM     13  O   UNL     1      11.599   3.137  23.463  0.00  0.00    -0.338 OA
ENDROOT
BRANCH   2  14
ATOM     14  O   UNL     1      10.061   6.506  23.488  0.00  0.00    -0.386 OA
ATOM     15  H   UNL     1      10.922   6.898  23.240  0.00  0.00    +0.210 HD
ENDBRANCH   2  14
BRANCH   3  16
ATOM     16  O   UNL     1       8.055   4.976  24.823  0.00  0.00    -0.386 OA
ATOM     17  H   UNL     1       7.948   4.418  25.614  0.00  0.00    +0.210 HD
ENDBRANCH   3  16
BRANCH   4  18
ATOM     18  O   UNL     1       8.081   2.156  24.181  0.00  0.00    -0.384 OA
ATOM     19  H   UNL     1       8.073   1.462  24.868  0.00  0.00    +0.210 HD
ENDBRANCH   4  18
BRANCH   8  20
ATOM     20  O   UNL     1      10.047  -1.281  23.031  0.00  0.00    -0.284 OA
ATOM     21  H   UNL     1      10.181  -1.398  23.994  0.00  0.00    +0.242 HD
ENDBRANCH   8  20
BRANCH   1  22
ATOM     22  C   UNL     1      12.769   5.244  23.433  0.00  0.00    +0.190 C 
BRANCH  22  23
ATOM     23  O   UNL     1      12.671   6.112  24.564  0.00  0.00    -0.392 OA
ATOM     24  H   UNL     1      13.570   6.432  24.753  0.00  0.00    +0.210 HD
ENDBRANCH  22  23
ENDBRANCH   1  22
TORSDOF 6
ENDMDL
MODEL 2
REMARK VINA RESULT:      -5.7      2.715      4.538
REMARK  Name = 
REMARK  6 active torsions:
REMARK  status: ('A' for Active; 'I' for Inactive)
REMARK    1  A    between atoms: O_1  and  C_2
REMARK    2  A    between atoms: C_2  and  C_3
REMARK    3  A    between atoms: N_10  and  O_11
REMARK    4  A    between atoms: C_14  and  O_16
REMARK    5  A    between atoms: C_17  and  O_19
REMARK    6  A    between atoms: C_20  and  O_22
REMARK                            x       y       z     vdW  Elec       q    Type
REMARK                         _______ _______ _______ _____ _____    ______ ____
ROOT
ATOM      1  C   UNL     1       8.564   1.468  24.801  0.00  0.00    +0.178 C 
ATOM      2  C   UNL     1       9.027   2.234  23.555  0.00  0.00    +0.177 C 
ATOM      3  C   UNL     1       9.706   1.296  22.553  0.00  0.00    +0.179 C 
ATOM      4  C   UNL     1       8.821   0.090  22.245  0.00  0.00    +0.205 C 
ATOM      5  C   UNL     1       8.420  -0.601  23.573  0.00  0.00    +0.247 C 
ATOM      6  C   UNL     1       7.499  -1.785  23.159  0.00  0.00    +0.300 C 
ATOM      7  O   UNL     1       6.442  -1.676  22.552  0.00  0.00    -0.268 OA
ATOM      8  N   UNL     1       8.167  -2.929  23.478  0.00  0.00    -0.096 N 
ATOM      9  C   UNL     1       9.406  -2.666  23.958  0.00  0.00    +0.335 C 
ATOM     10  O   UNL     1      10.321  -3.464  24.088  0.00  0.00    -0.250 OA
ATOM     11  N   UNL     1       9.501  -1.314  24.213  0.00  0.00    -0.260 N 
ATOM     12  H   UNL     1      10.414  -0.930  24.407  0.00  0.00    +0.154 HD
ATOM     13  O   UNL     1       7.822   0.277  24.499  0.00  0.00    -0.338 OA
ENDROOT
BRANCH   2  14
ATOM     14  O   UNL     1       9.951   3.258  23.953  0.00  0.00    -0.386 OA
ATOM     15  H   UNL     1      10.391   3.590  23.145  0.00  0.00    +0.210 HD
ENDBRANCH   2  14
BRANCH   3  16
ATOM     16  O   UNL     1      10.032   2.044  21.370  0.00  0.00    -0.386 OA
ATOM     17  H   UNL     1       9.258   2.576  21.114  0.00  0.00    +0.210 HD
ENDBRANCH   3  16
BRANCH   4  18
ATOM     18  O   UNL     1       9.533  -0.805  21.375  0.00  0.00    -0.384 OA
ATOM     19  H   UNL     1       9.182  -0.688  20.472  0.00  0.00    +0.210 HD
ENDBRANCH   4  18
BRANCH   8  20
ATOM     20  O   UNL     1       7.797  -4.177  22.990  0.00  0.00    -0.284 OA
ATOM     21  H   UNL     1       6.860  -4.029  22.751  0.00  0.00    +0.242 HD
ENDBRANCH   8  20
BRANCH   1  22
ATOM     22  C   UNL     1       7.682   2.371  25.682  0.00  0.00    +0.190 C 
BRANCH  22  23
ATOM     23  O   UNL     1       7.617   1.860  27.016  0.00  0.00    -0.392 OA
ATOM     24  H   UNL     1       8.052   2.515  27.590  0.00  0.00    +0.210 HD
ENDBRANCH  22  23
ENDBRANCH   1  22
TORSDOF 6
ENDMDL
MODEL 3
REMARK VINA RESULT:      -5.7      3.298      6.376
REMARK  Name = 
REMARK  6 active torsions:
REMARK  status: ('A' for Active; 'I' for Inactive)
REMARK    1  A    between atoms: O_1  and  C_2
REMARK    2  A    between atoms: C_2  and  C_3
REMARK    3  A    between atoms: N_10  and  O_11
REMARK    4  A    between atoms: C_14  and  O_16
REMARK    5  A    between atoms: C_17  and  O_19
REMARK    6  A    between atoms: C_20  and  O_22
REMARK                            x       y       z     vdW  Elec       q    Type
REMARK                         _______ _______ _______ _____ _____    ______ ____
ROOT
ATOM      1  C   UNL     1       8.792  -2.708  24.730  0.00  0.00    +0.178 C 
ATOM      2  C   UNL     1       7.282  -2.909  24.543  0.00  0.00    +0.177 C 
ATOM      3  C   UNL     1       6.586  -1.581  24.228  0.00  0.00    +0.179 C 
ATOM      4  C   UNL     1       7.265  -0.868  23.061  0.00  0.00    +0.205 C 
ATOM      5  C   UNL     1       8.778  -0.722  23.364  0.00  0.00    +0.247 C 
ATOM      6  C   UNL     1       9.383  -0.023  22.111  0.00  0.00    +0.300 C 
ATOM      7  O   UNL     1       9.350  -0.469  20.972  0.00  0.00    -0.268 OA
ATOM      8  N   UNL     1       9.808   1.206  22.518  0.00  0.00    -0.096 N 
ATOM      9  C   UNL     1       9.498   1.436  23.816  0.00  0.00    +0.335 C 
ATOM     10  O   UNL     1       9.516   2.515  24.389  0.00  0.00    -0.250 OA
ATOM     11  N   UNL     1       9.080   0.252  24.386  0.00  0.00    -0.260 N 
ATOM     12  H   UNL     1       8.648   0.290  25.297  0.00  0.00    +0.154 HD
ATOM     13  O   UNL     1       9.403  -1.945  23.679  0.00  0.00    -0.338 OA
ENDROOT
BRANCH   2  14
ATOM     14  O   UNL     1       6.732  -3.463  25.747  0.00  0.00    -0.386 OA
ATOM     15  H   UNL     1       6.036  -2.853  26.063  0.00  0.00    +0.210 HD
ENDBRANCH   2  14
BRANCH   3  16
ATOM     16  O   UNL     1       5.197  -1.841  23.970  0.00  0.00    -0.386 OA
ATOM     17  H   UNL     1       5.129  -2.577  23.336  0.00  0.00    +0.210 HD
ENDBRANCH   3  16
BRANCH   4  18
ATOM     18  O   UNL     1       6.638   0.409  22.862  0.00  0.00    -0.384 OA
ATOM     19  H   UNL     1       5.864   0.276  22.282  0.00  0.00    +0.210 HD
ENDBRANCH   4  18
BRANCH   8  20
ATOM     20  O   UNL     1      10.127   2.224  21.627  0.00  0.00    -0.284 OA
ATOM     21  H   UNL     1      10.340   2.962  22.233  0.00  0.00    +0.242 HD
ENDBRANCH   8  20
BRANCH   1  22
ATOM     22  C   UNL     1       9.503  -4.071  24.808  0.00  0.00    +0.190 C 
BRANCH  22  23
ATOM     23  O   UNL     1       8.750  -5.069  24.116  0.00  0.00    -0.392 OA
ATOM     24  H   UNL     1       8.545  -4.709  23.236  0.00  0.00    +0.210 HD
ENDBRANCH  22  23
ENDBRANCH   1  22
TORSDOF 6
ENDMDL
MODEL 4
REMARK VINA RESULT:      -5.7      5.651      7.874
REMARK  Name = 
REMARK  6 active torsions:
REMARK  status: ('A' for Active; 'I' for Inactive)
REMARK    1  A    between atoms: O_1  and  C_2
REMARK    2  A    between atoms: C_2  and  C_3
REMARK    3  A    between atoms: N_10  and  O_11
REMARK    4  A    between atoms: C_14  and  O_16
REMARK    5  A    between atoms: C_17  and  O_19
REMARK    6  A    between atoms: C_20  and  O_22
REMARK                            x       y       z     vdW  Elec       q    Type
REMARK                         _______ _______ _______ _____ _____    ______ ____
ROOT
ATOM      1  C   UNL     1       8.318  -2.161  22.854  0.00  0.00    +0.178 C 
ATOM      2  C   UNL     1       9.219  -2.638  24.001  0.00  0.00    +0.177 C 
ATOM      3  C   UNL     1       8.449  -3.548  24.964  0.00  0.00    +0.179 C 
ATOM      4  C   UNL     1       7.754  -4.680  24.211  0.00  0.00    +0.205 C 
ATOM      5  C   UNL     1       6.876  -4.079  23.085  0.00  0.00    +0.247 C 
ATOM      6  C   UNL     1       6.244  -5.303  22.359  0.00  0.00    +0.300 C 
ATOM      7  O   UNL     1       6.873  -6.193  21.802  0.00  0.00    -0.268 OA
ATOM      8  N   UNL     1       4.903  -5.246  22.595  0.00  0.00    -0.096 N 
ATOM      9  C   UNL     1       4.586  -4.224  23.425  0.00  0.00    +0.335 C 
ATOM     10  O   UNL     1       3.528  -4.067  24.015  0.00  0.00    -0.250 OA
ATOM     11  N   UNL     1       5.689  -3.408  23.561  0.00  0.00    -0.260 N 
ATOM     12  H   UNL     1       5.672  -2.702  24.281  0.00  0.00    +0.154 HD
ATOM     13  O   UNL     1       7.587  -3.222  22.221  0.00  0.00    -0.338 OA
ENDROOT
BRANCH   2  14
ATOM     14  O   UNL     1       9.711  -1.494  24.715  0.00  0.00    -0.386 OA
ATOM     15  H   UNL     1      10.461  -1.127  24.206  0.00  0.00    +0.210 HD
ENDBRANCH   2  14
BRANCH   3  16
ATOM     16  O   UNL     1       9.361  -4.039  25.960  0.00  0.00    -0.386 OA
ATOM     17  H   UNL     1       9.027  -3.789  26.840  0.00  0.00    +0.210 HD
ENDBRANCH   3  16
BRANCH   4  18
ATOM     18  O   UNL     1       6.974  -5.450  25.139  0.00  0.00    -0.384 OA
ATOM     19  H   UNL     1       6.326  -5.971  24.626  0.00  0.00    +0.210 HD
ENDBRANCH   4  18
BRANCH   8  20
ATOM     20  O   UNL     1       4.053  -6.321  22.363  0.00  0.00    -0.284 OA
ATOM     21  H   UNL     1       4.196  -6.866  23.163  0.00  0.00    +0.242 HD
ENDBRANCH   8  20
BRANCH   1  22
ATOM     22  C   UNL     1       9.159  -1.451  21.779  0.00  0.00    +0.190 C 
BRANCH  22  23
ATOM     23  O   UNL     1      10.546  -1.746  21.952  0.00  0.00    -0.392 OA
ATOM     24  H   UNL     1      11.028  -1.250  21.268  0.00  0.00    +0.210 HD
ENDBRANCH  22  23
ENDBRANCH   1  22
TORSDOF 6
ENDMDL
MODEL 5
REMARK VINA RESULT:      -5.7      7.840      9.866
REMARK  Name = 
REMARK  6 active torsions:
REMARK  status: ('A' for Active; 'I' for Inactive)
REMARK    1  A    between atoms: O_1  and  C_2
REMARK    2  A    between atoms: C_2  and  C_3
REMARK    3  A    between atoms: N_10  and  O_11
REMARK    4  A    between atoms: C_14  and  O_16
REMARK    5  A    between atoms: C_17  and  O_19
REMARK    6  A    between atoms: C_20  and  O_22
REMARK                            x       y       z     vdW  Elec       q    Type
REMARK                         _______ _______ _______ _____ _____    ______ ____
ROOT
ATOM      1  C   UNL     1       5.712  -5.993  26.630  0.00  0.00    +0.178 C 
ATOM      2  C   UNL     1       6.946  -5.398  27.321  0.00  0.00    +0.177 C 
ATOM      3  C   UNL     1       7.985  -4.941  26.292  0.00  0.00    +0.179 C 
ATOM      4  C   UNL     1       7.355  -4.021  25.248  0.00  0.00    +0.205 C 
ATOM      5  C   UNL     1       6.126  -4.726  24.622  0.00  0.00    +0.247 C 
ATOM      6  C   UNL     1       5.537  -3.703  23.607  0.00  0.00    +0.300 C 
ATOM      7  O   UNL     1       5.125  -2.586  23.892  0.00  0.00    -0.268 OA
ATOM      8  N   UNL     1       5.709  -4.241  22.367  0.00  0.00    -0.096 N 
ATOM      9  C   UNL     1       6.387  -5.412  22.422  0.00  0.00    +0.335 C 
ATOM     10  O   UNL     1       6.908  -5.996  21.484  0.00  0.00    -0.250 OA
ATOM     11  N   UNL     1       6.463  -5.817  23.738  0.00  0.00    -0.260 N 
ATOM     12  H   UNL     1       7.086  -6.577  23.966  0.00  0.00    +0.154 HD
ATOM     13  O   UNL     1       5.190  -5.167  25.578  0.00  0.00    -0.338 OA
ENDROOT
BRANCH   2  14
ATOM     14  O   UNL     1       7.527  -6.393  28.177  0.00  0.00    -0.386 OA
ATOM     15  H   UNL     1       7.836  -7.128  27.609  0.00  0.00    +0.210 HD
ENDBRANCH   2  14
BRANCH   3  16
ATOM     16  O   UNL     1       9.072  -4.308  26.986  0.00  0.00    -0.386 OA
ATOM     17  H   UNL     1       9.141  -3.385  26.684  0.00  0.00    +0.210 HD
ENDBRANCH   3  16
BRANCH   4  18
ATOM     18  O   UNL     1       8.341  -3.692  24.257  0.00  0.00    -0.384 OA
ATOM     19  H   UNL     1       7.921  -3.771  23.379  0.00  0.00    +0.210 HD
ENDBRANCH   4  18
BRANCH   8  20
ATOM     20  O   UNL     1       5.582  -3.497  21.200  0.00  0.00    -0.284 OA
ATOM     21  H   UNL     1       5.589  -4.195  20.515  0.00  0.00    +0.242 HD
ENDBRANCH   8  20
BRANCH   1  22
ATOM     22  C   UNL     1       4.590  -6.225  27.658  0.00  0.00    +0.190 C 
BRANCH  22  23
ATOM     23  O   UNL     1       4.836  -7.417  28.407  0.00  0.00    -0.392 OA
ATOM     24  H   UNL     1       4.350  -8.135  27.964  0.00  0.00    +0.210 HD
ENDBRANCH  22  23
ENDBRANCH   1  22
TORSDOF 6
ENDMDL
MODEL 6
REMARK VINA RESULT:      -5.6      5.756      8.087
REMARK  Name = 
REMARK  6 active torsions:
REMARK  status: ('A' for Active; 'I' for Inactive)
REMARK    1  A    between atoms: O_1  and  C_2
REMARK    2  A    between atoms: C_2  and  C_3
REMARK    3  A    between atoms: N_10  and  O_11
REMARK    4  A    between atoms: C_14  and  O_16
REMARK    5  A    between atoms: C_17  and  O_19
REMARK    6  A    between atoms: C_20  and  O_22
REMARK                            x       y       z     vdW  Elec       q    Type
REMARK                         _______ _______ _______ _____ _____    ______ ____
ROOT
ATOM      1  C   UNL     1       6.678  -1.679  24.634  0.00  0.00    +0.178 C 
ATOM      2  C   UNL     1       8.146  -1.690  24.188  0.00  0.00    +0.177 C 
ATOM      3  C   UNL     1       8.741  -3.098  24.291  0.00  0.00    +0.179 C 
ATOM      4  C   UNL     1       7.866  -4.117  23.566  0.00  0.00    +0.205 C 
ATOM      5  C   UNL     1       6.415  -4.014  24.098  0.00  0.00    +0.247 C 
ATOM      6  C   UNL     1       5.601  -5.058  23.278  0.00  0.00    +0.300 C 
ATOM      7  O   UNL     1       5.471  -5.051  22.061  0.00  0.00    -0.268 OA
ATOM      8  N   UNL     1       5.203  -6.020  24.158  0.00  0.00    -0.096 N 
ATOM      9  C   UNL     1       5.702  -5.799  25.397  0.00  0.00    +0.335 C 
ATOM     10  O   UNL     1       5.738  -6.597  26.321  0.00  0.00    -0.250 OA
ATOM     11  N   UNL     1       6.242  -4.530  25.435  0.00  0.00    -0.260 N 
ATOM     12  H   UNL     1       6.809  -4.278  26.231  0.00  0.00    +0.154 HD
ATOM     13  O   UNL     1       5.886  -2.710  24.025  0.00  0.00    -0.338 OA
ENDROOT
BRANCH   2  14
ATOM     14  O   UNL     1       8.893  -0.793  25.023  0.00  0.00    -0.386 OA
ATOM     15  H   UNL     1       8.342  -0.586  25.804  0.00  0.00    +0.210 HD
ENDBRANCH   2  14
BRANCH   3  16
ATOM     16  O   UNL     1      10.081  -3.068  23.774  0.00  0.00    -0.386 OA
ATOM     17  H   UNL     1      10.212  -3.844  23.200  0.00  0.00    +0.210 HD
ENDBRANCH   3  16
BRANCH   4  18
ATOM     18  O   UNL     1       8.413  -5.431  23.765  0.00  0.00    -0.384 OA
ATOM     19  H   UNL     1       8.036  -5.790  24.591  0.00  0.00    +0.210 HD
ENDBRANCH   4  18
BRANCH   8  20
ATOM     20  O   UNL     1       4.717  -7.257  23.750  0.00  0.00    -0.284 OA
ATOM     21  H   UNL     1       5.543  -7.749  23.573  0.00  0.00    +0.242 HD
ENDBRANCH   8  20
BRANCH   1  22
ATOM     22  C   UNL     1       6.032  -0.321  24.302  0.00  0.00    +0.190 C 
BRANCH  22  23
ATOM     23  O   UNL     1       6.557   0.197  23.078  0.00  0.00    -0.392 OA
ATOM     24  H   UNL     1       7.333  -0.345  22.852  0.00  0.00    +0.210 HD
ENDBRANCH  22  23
ENDBRANCH   1  22
TORSDOF 6
ENDMDL
MODEL 7
REMARK VINA RESULT:      -5.6      2.330      5.571
REMARK  Name = 
REMARK  6 active torsions:
REMARK  status: ('A' for Active; 'I' for Inactive)
REMARK    1  A    between atoms: O_1  and  C_2
REMARK    2  A    between atoms: C_2  and  C_3
REMARK    3  A    between atoms: N_10  and  O_11
REMARK    4  A    between atoms: C_14  and  O_16
REMARK    5  A    between atoms: C_17  and  O_19
REMARK    6  A    between atoms: C_20  and  O_22
REMARK                            x       y       z     vdW  Elec       q    Type
REMARK                         _______ _______ _______ _____ _____    ______ ____
ROOT
ATOM      1  C   UNL     1       8.648  -0.542  24.838  0.00  0.00    +0.178 C 
ATOM      2  C   UNL     1       9.441  -1.356  23.807  0.00  0.00    +0.177 C 
ATOM      3  C   UNL     1       9.308  -0.749  22.407  0.00  0.00    +0.179 C 
ATOM      4  C   UNL     1       9.651   0.739  22.419  0.00  0.00    +0.205 C 
ATOM      5  C   UNL     1       8.792   1.452  23.493  0.00  0.00    +0.247 C 
ATOM      6  C   UNL     1       9.238   2.943  23.454  0.00  0.00    +0.300 C 
ATOM      7  O   UNL     1      10.374   3.344  23.670  0.00  0.00    -0.268 OA
ATOM      8  N   UNL     1       8.169   3.658  23.003  0.00  0.00    -0.096 N 
ATOM      9  C   UNL     1       7.133   2.851  22.671  0.00  0.00    +0.335 C 
ATOM     10  O   UNL     1       6.152   3.159  22.013  0.00  0.00    -0.250 OA
ATOM     11  N   UNL     1       7.398   1.580  23.138  0.00  0.00    -0.260 N 
ATOM     12  H   UNL     1       6.808   0.825  22.821  0.00  0.00    +0.154 HD
ATOM     13  O   UNL     1       8.900   0.869  24.771  0.00  0.00    -0.338 OA
ENDROOT
BRANCH   2  14
ATOM     14  O   UNL     1       8.945  -2.703  23.794  0.00  0.00    -0.386 OA
ATOM     15  H   UNL     1       9.411  -3.198  24.497  0.00  0.00    +0.210 HD
ENDBRANCH   2  14
BRANCH   3  16
ATOM     16  O   UNL     1      10.142  -1.491  21.503  0.00  0.00    -0.386 OA
ATOM     17  H   UNL     1       9.575  -1.934  20.848  0.00  0.00    +0.210 HD
ENDBRANCH   3  16
BRANCH   4  18
ATOM     18  O   UNL     1       9.425   1.284  21.110  0.00  0.00    -0.384 OA
ATOM     19  H   UNL     1       8.478   1.177  20.900  0.00  0.00    +0.210 HD
ENDBRANCH   4  18
BRANCH   8  20
ATOM     20  O   UNL     1       8.276   4.970  22.555  0.00  0.00    -0.284 OA
ATOM     21  H   UNL     1       8.422   4.843  21.596  0.00  0.00    +0.242 HD
ENDBRANCH   8  20
BRANCH   1  22
ATOM     22  C   UNL     1       8.983  -1.021  26.263  0.00  0.00    +0.190 C 
BRANCH  22  23
ATOM     23  O   UNL     1       8.261  -2.215  26.572  0.00  0.00    -0.392 OA
ATOM     24  H   UNL     1       8.056  -2.649  25.726  0.00  0.00    +0.210 HD
ENDBRANCH  22  23
ENDBRANCH   1  22
TORSDOF 6
ENDMDL
MODEL 8
REMARK VINA RESULT:      -5.5      3.377      4.811
REMARK  Name = 
REMARK  6 active torsions:
REMARK  status: ('A' for Active; 'I' for Inactive)
REMARK    1  A    between atoms: O_1  and  C_2
REMARK    2  A    between atoms: C_2  and  C_3
REMARK    3  A    between atoms: N_10  and  O_11
REMARK    4  A    between atoms: C_14  and  O_16
REMARK    5  A    between atoms: C_17  and  O_19
REMARK    6  A    between atoms: C_20  and  O_22
REMARK                            x       y       z     vdW  Elec       q    Type
REMARK                         _______ _______ _______ _____ _____    ______ ____
ROOT
ATOM      1  C   UNL     1       9.003   0.476  23.048  0.00  0.00    +0.178 C 
ATOM      2  C   UNL     1       8.997   1.043  24.474  0.00  0.00    +0.177 C 
ATOM      3  C   UNL     1       8.123   0.193  25.401  0.00  0.00    +0.179 C 
ATOM      4  C   UNL     1       8.512  -1.281  25.323  0.00  0.00    +0.205 C 
ATOM      5  C   UNL     1       8.481  -1.739  23.843  0.00  0.00    +0.247 C 
ATOM      6  C   UNL     1       8.924  -3.231  23.864  0.00  0.00    +0.300 C 
ATOM      7  O   UNL     1      10.001  -3.640  24.278  0.00  0.00    -0.268 OA
ATOM      8  N   UNL     1       7.843  -3.964  23.475  0.00  0.00    -0.096 N 
ATOM      9  C   UNL     1       6.753  -3.183  23.284  0.00  0.00    +0.335 C 
ATOM     10  O   UNL     1       5.596  -3.560  23.184  0.00  0.00    -0.250 OA
ATOM     11  N   UNL     1       7.150  -1.863  23.295  0.00  0.00    -0.260 N 
ATOM     12  H   UNL     1       6.436  -1.152  23.342  0.00  0.00    +0.154 HD
ATOM     13  O   UNL     1       9.266  -0.934  22.994  0.00  0.00    -0.338 OA
ENDROOT
BRANCH   2  14
ATOM     14  O   UNL     1       8.492   2.387  24.440  0.00  0.00    -0.386 OA
ATOM     15  H   UNL     1       7.806   2.428  23.744  0.00  0.00    +0.210 HD
ENDBRANCH   2  14
BRANCH   3  16
ATOM     16  O   UNL     1       8.229   0.712  26.737  0.00  0.00    -0.386 OA
ATOM     17  H   UNL     1       8.991   1.316  26.777  0.00  0.00    +0.210 HD
ENDBRANCH   3  16
BRANCH   4  18
ATOM     18  O   UNL     1       7.610  -2.049  26.135  0.00  0.00    -0.384 OA
ATOM     19  H   UNL     1       8.099  -2.348  26.925  0.00  0.00    +0.210 HD
ENDBRANCH   4  18
BRANCH   8  20
ATOM     20  O   UNL     1       7.763  -5.340  23.657  0.00  0.00    -0.284 OA
ATOM     21  H   UNL     1       7.213  -5.403  24.464  0.00  0.00    +0.242 HD
ENDBRANCH   8  20
BRANCH   1  22
ATOM     22  C   UNL     1      10.064   1.195  22.195  0.00  0.00    +0.190 C 
BRANCH  22  23
ATOM     23  O   UNL     1       9.486   2.311  21.514  0.00  0.00    -0.392 OA
ATOM     24  H   UNL     1      10.144   3.028  21.539  0.00  0.00    +0.210 HD
ENDBRANCH  22  23
ENDBRANCH   1  22
TORSDOF 6
ENDMDL
MODEL 9
REMARK VINA RESULT:      -5.4      4.139      7.450
REMARK  Name = 
REMARK  6 active torsions:
REMARK  status: ('A' for Active; 'I' for Inactive)
REMARK    1  A    between atoms: O_1  and  C_2
REMARK    2  A    between atoms: C_2  and  C_3
REMARK    3  A    between atoms: N_10  and  O_11
REMARK    4  A    between atoms: C_14  and  O_16
REMARK    5  A    between atoms: C_17  and  O_19
REMARK    6  A    between atoms: C_20  and  O_22
REMARK                            x       y       z     vdW  Elec       q    Type
REMARK                         _______ _______ _______ _____ _____    ______ ____
ROOT
ATOM      1  C   UNL     1       8.571  -3.938  25.494  0.00  0.00    +0.178 C 
ATOM      2  C   UNL     1       7.680  -4.762  24.555  0.00  0.00    +0.177 C 
ATOM      3  C   UNL     1       6.998  -3.864  23.518  0.00  0.00    +0.179 C 
ATOM      4  C   UNL     1       8.018  -2.988  22.794  0.00  0.00    +0.205 C 
ATOM      5  C   UNL     1       8.853  -2.209  23.840  0.00  0.00    +0.247 C 
ATOM      6  C   UNL     1       9.880  -1.380  23.012  0.00  0.00    +0.300 C 
ATOM      7  O   UNL     1      10.718  -1.853  22.256  0.00  0.00    -0.268 OA
ATOM      8  N   UNL     1       9.559  -0.069  23.194  0.00  0.00    -0.096 N 
ATOM      9  C   UNL     1       8.440   0.072  23.943  0.00  0.00    +0.335 C 
ATOM     10  O   UNL     1       7.769   1.085  24.067  0.00  0.00    -0.250 OA
ATOM     11  N   UNL     1       8.126  -1.150  24.500  0.00  0.00    -0.260 N 
ATOM     12  H   UNL     1       7.225  -1.254  24.942  0.00  0.00    +0.154 HD
ATOM     13  O   UNL     1       9.454  -3.040  24.806  0.00  0.00    -0.338 OA
ENDROOT
BRANCH   2  14
ATOM     14  O   UNL     1       6.682  -5.438  25.333  0.00  0.00    -0.386 OA
ATOM     15  H   UNL     1       6.989  -5.452  26.261  0.00  0.00    +0.210 HD
ENDBRANCH   2  14
BRANCH   3  16
ATOM     16  O   UNL     1       6.255  -4.694  22.610  0.00  0.00    -0.386 OA
ATOM     17  H   UNL     1       5.874  -4.131  21.913  0.00  0.00    +0.210 HD
ENDBRANCH   3  16
BRANCH   4  18
ATOM     18  O   UNL     1       7.326  -2.103  21.900  0.00  0.00    -0.384 OA
ATOM     19  H   UNL     1       6.726  -2.641  21.348  0.00  0.00    +0.210 HD
ENDBRANCH   4  18
BRANCH   8  20
ATOM     20  O   UNL     1      10.058   0.946  22.385  0.00  0.00    -0.284 OA
ATOM     21  H   UNL     1      10.729   0.470  21.857  0.00  0.00    +0.242 HD
ENDBRANCH   8  20
BRANCH   1  22
ATOM     22  C   UNL     1       9.426  -4.873  26.369  0.00  0.00    +0.190 C 
BRANCH  22  23
ATOM     23  O   UNL     1       9.763  -6.062  25.651  0.00  0.00    -0.392 OA
ATOM     24  H   UNL     1      10.732  -6.144  25.678  0.00  0.00    +0.210 HD
ENDBRANCH  22  23
ENDBRANCH   1  22
TORSDOF 6
ENDMDL
