MODEL 1
REMARK VINA RESULT:      -6.7      0.000      0.000
REMARK  Name = 
REMARK  8 active torsions:
REMARK  status: ('A' for Active; 'I' for Inactive)
REMARK    1  A    between atoms: O_1  and  C_2
REMARK    2  A    between atoms: C_5  and  N_16
REMARK    3  A    between atoms: C_8  and  C_10
REMARK    4  A    between atoms: C_10  and  O_11
REMARK    5  A    between atoms: O_11  and  P_12
REMARK    6  A    between atoms: P_12  and  O_13
REMARK    7  A    between atoms: P_12  and  O_14
REMARK    8  A    between atoms: C_19  and  O_21
REMARK                            x       y       z     vdW  Elec       q    Type
REMARK                         _______ _______ _______ _____ _____    ______ ____
ROOT
ATOM      1  C   UNL     1       9.895  -1.420  22.980  0.00  0.00    +0.150 C 
ATOM      2  C   UNL     1       8.675  -0.596  23.393  0.00  0.00    +0.175 C 
ATOM      3  O   UNL     1       7.864  -1.435  24.248  0.00  0.00    -0.350 OA
ATOM      4  C   UNL     1       8.388  -2.770  24.221  0.00  0.00    +0.217 C 
ATOM      5  C   UNL     1       9.879  -2.576  23.952  0.00  0.00    +0.086 C 
ENDROOT
BRANCH   4   6
ATOM      6  N   UNL     1       7.680  -3.581  23.220  0.00  0.00    -0.236 N 
ATOM      7  C   UNL     1       7.932  -4.945  23.231  0.00  0.00    +0.310 C 
ATOM      8  O   UNL     1       8.725  -5.480  24.009  0.00  0.00    -0.252 OA
ATOM      9  N   UNL     1       7.277  -5.696  22.317  0.00  0.00    -0.270 N 
ATOM     10  H   UNL     1       7.413  -6.691  22.403  0.00  0.00    +0.153 HD
ATOM     11  C   UNL     1       6.251  -5.257  21.438  0.00  0.00    +0.229 C 
ATOM     12  C   UNL     1       5.984  -3.802  21.577  0.00  0.00    +0.039 C 
ATOM     13  C   UNL     1       6.671  -3.041  22.434  0.00  0.00    +0.082 C 
BRANCH  11  14
ATOM     14  O   UNL     1       5.106  -5.998  21.778  0.00  0.00    -0.371 OA
ATOM     15  H   UNL     1       5.192  -6.878  21.380  0.00  0.00    +0.212 HD
ENDBRANCH  11  14
ENDBRANCH   4   6
BRANCH   1  16
ATOM     16  O   UNL     1       9.754  -1.890  21.640  0.00  0.00    -0.389 OA
ATOM     17  H   UNL     1       8.881  -2.316  21.552  0.00  0.00    +0.210 HD
ENDBRANCH   1  16
BRANCH   2  18
ATOM     18  C   UNL     1       9.046   0.662  24.167  0.00  0.00    +0.206 C 
BRANCH  18  19
ATOM     19  O   UNL     1       8.863   1.794  23.312  0.00  0.00    -0.284 OA
BRANCH  19  20
ATOM     20  P   UNL     1      10.258   2.816  23.292  0.00  0.00    +0.472 P 
ATOM     21  O   UNL     1      11.506   3.732  23.272  0.00  0.00    -0.228 OA
BRANCH  20  22
ATOM     22  O   UNL     1       9.142   3.990  23.078  0.00  0.00    -0.303 OA
ATOM     23  H   UNL     1       8.879   3.988  22.138  0.00  0.00    +0.222 HD
ENDBRANCH  20  22
BRANCH  20  24
ATOM     24  O   UNL     1      10.363   2.337  21.732  0.00  0.00    -0.303 OA
ATOM     25  H   UNL     1      10.419   3.114  21.147  0.00  0.00    +0.222 HD
ENDBRANCH  20  24
ENDBRANCH  19  20
ENDBRANCH  18  19
ENDBRANCH   2  18
TORSDOF 8
ENDMDL
MODEL 2
REMARK VINA RESULT:      -6.4      2.959      6.514
REMARK  Name = 
REMARK  8 active torsions:
REMARK  status: ('A' for Active; 'I' for Inactive)
REMARK    1  A    between atoms: O_1  and  C_2
REMARK    2  A    between atoms: C_5  and  N_16
REMARK    3  A    between atoms: C_8  and  C_10
REMARK    4  A    between atoms: C_10  and  O_11
REMARK    5  A    between atoms: O_11  and  P_12
REMARK    6  A    between atoms: P_12  and  O_13
REMARK    7  A    between atoms: P_12  and  O_14
REMARK    8  A    between atoms: C_19  and  O_21
REMARK                            x       y       z     vdW  Elec       q    Type
REMARK                         _______ _______ _______ _____ _____    ______ ____
ROOT
ATOM      1  C   UNL     1       7.539  -2.690  24.823  0.00  0.00    +0.150 C 
ATOM      2  C   UNL     1       7.953  -3.480  23.581  0.00  0.00    +0.175 C 
ATOM      3  O   UNL     1       9.330  -3.141  23.298  0.00  0.00    -0.350 OA
ATOM      4  C   UNL     1       9.722  -2.051  24.145  0.00  0.00    +0.217 C 
ATOM      5  C   UNL     1       8.858  -2.223  25.393  0.00  0.00    +0.086 C 
ENDROOT
BRANCH   4   6
ATOM      6  N   UNL     1       9.552  -0.768  23.447  0.00  0.00    -0.236 N 
ATOM      7  C   UNL     1       9.925   0.374  24.140  0.00  0.00    +0.310 C 
ATOM      8  O   UNL     1      10.354   0.353  25.296  0.00  0.00    -0.252 OA
ATOM      9  N   UNL     1       9.776   1.555  23.499  0.00  0.00    -0.270 N 
ATOM     10  H   UNL     1      10.133   2.358  23.993  0.00  0.00    +0.153 HD
ATOM     11  C   UNL     1       9.412   1.740  22.139  0.00  0.00    +0.229 C 
ATOM     12  C   UNL     1       9.134   0.450  21.455  0.00  0.00    +0.039 C 
ATOM     13  C   UNL     1       9.218  -0.717  22.100  0.00  0.00    +0.082 C 
BRANCH  11  14
ATOM     14  O   UNL     1      10.501   2.390  21.531  0.00  0.00    -0.371 OA
ATOM     15  H   UNL     1      11.299   2.168  22.036  0.00  0.00    +0.212 HD
ENDBRANCH  11  14
ENDBRANCH   4   6
BRANCH   1  16
ATOM     16  O   UNL     1       6.727  -1.574  24.460  0.00  0.00    -0.389 OA
ATOM     17  H   UNL     1       6.891  -1.364  23.522  0.00  0.00    +0.210 HD
ENDBRANCH   1  16
BRANCH   2  18
ATOM     18  C   UNL     1       7.862  -4.988  23.783  0.00  0.00    +0.206 C 
BRANCH  18  19
ATOM     19  O   UNL     1       6.569  -5.427  23.358  0.00  0.00    -0.284 OA
BRANCH  19  20
ATOM     20  P   UNL     1       6.144  -4.774  21.814  0.00  0.00    +0.472 P 
ATOM     21  O   UNL     1       5.762  -4.190  20.432  0.00  0.00    -0.228 OA
BRANCH  20  22
ATOM     22  O   UNL     1       4.729  -4.455  22.566  0.00  0.00    -0.303 OA
ATOM     23  H   UNL     1       4.929  -3.986  23.398  0.00  0.00    +0.222 HD
ENDBRANCH  20  22
BRANCH  20  24
ATOM     24  O   UNL     1       5.837  -6.336  21.439  0.00  0.00    -0.303 OA
ATOM     25  H   UNL     1       6.666  -6.793  21.208  0.00  0.00    +0.222 HD
ENDBRANCH  20  24
ENDBRANCH  19  20
ENDBRANCH  18  19
ENDBRANCH   2  18
TORSDOF 8
ENDMDL
MODEL 3
REMARK VINA RESULT:      -6.3      3.350      6.900
REMARK  Name = 
REMARK  8 active torsions:
REMARK  status: ('A' for Active; 'I' for Inactive)
REMARK    1  A    between atoms: O_1  and  C_2
REMARK    2  A    between atoms: C_5  and  N_16
REMARK    3  A    between atoms: C_8  and  C_10
REMARK    4  A    between atoms: C_10  and  O_11
REMARK    5  A    between atoms: O_11  and  P_12
REMARK    6  A    between atoms: P_12  and  O_13
REMARK    7  A    between atoms: P_12  and  O_14
REMARK    8  A    between atoms: C_19  and  O_21
REMARK                            x       y       z     vdW  Elec       q    Type
REMARK                         _______ _______ _______ _____ _____    ______ ____
ROOT
ATOM      1  C   UNL     1       9.462  -0.836  24.438  0.00  0.00    +0.150 C 
ATOM      2  C   UNL     1       8.584  -1.474  23.360  0.00  0.00    +0.175 C 
ATOM      3  O   UNL     1       8.880  -0.800  22.115  0.00  0.00    -0.350 OA
ATOM      4  C   UNL     1       9.715   0.334  22.389  0.00  0.00    +0.217 C 
ATOM      5  C   UNL     1      10.492  -0.071  23.640  0.00  0.00    +0.086 C 
ENDROOT
BRANCH   4   6
ATOM      6  N   UNL     1       8.901   1.550  22.533  0.00  0.00    -0.236 N 
ATOM      7  C   UNL     1       9.572   2.711  22.889  0.00  0.00    +0.310 C 
ATOM      8  O   UNL     1      10.785   2.751  23.109  0.00  0.00    -0.252 OA
ATOM      9  N   UNL     1       8.828   3.834  23.016  0.00  0.00    -0.270 N 
ATOM     10  H   UNL     1       9.352   4.676  23.191  0.00  0.00    +0.153 HD
ATOM     11  C   UNL     1       7.455   3.981  22.686  0.00  0.00    +0.229 C 
ATOM     12  C   UNL     1       6.854   2.705  22.217  0.00  0.00    +0.039 C 
ATOM     13  C   UNL     1       7.567   1.578  22.148  0.00  0.00    +0.082 C 
BRANCH  11  14
ATOM     14  O   UNL     1       7.403   4.949  21.668  0.00  0.00    -0.371 OA
ATOM     15  H   UNL     1       7.938   5.707  21.951  0.00  0.00    +0.212 HD
ENDBRANCH  11  14
ENDBRANCH   4   6
BRANCH   1  16
ATOM     16  O   UNL     1       8.694   0.053  25.248  0.00  0.00    -0.389 OA
ATOM     17  H   UNL     1       8.820   0.961  24.916  0.00  0.00    +0.210 HD
ENDBRANCH   1  16
BRANCH   2  18
ATOM     18  C   UNL     1       8.860  -2.961  23.178  0.00  0.00    +0.206 C 
BRANCH  18  19
ATOM     19  O   UNL     1       9.715  -3.399  24.237  0.00  0.00    -0.284 OA
BRANCH  19  20
ATOM     20  P   UNL     1       8.975  -4.640  25.189  0.00  0.00    +0.472 P 
ATOM     21  O   UNL     1       8.313  -5.751  26.041  0.00  0.00    -0.228 OA
BRANCH  20  22
ATOM     22  O   UNL     1      10.468  -5.300  25.120  0.00  0.00    -0.303 OA
ATOM     23  H   UNL     1      10.564  -5.907  25.877  0.00  0.00    +0.222 HD
ENDBRANCH  20  22
BRANCH  20  24
ATOM     24  O   UNL     1       8.437  -5.178  23.743  0.00  0.00    -0.303 OA
ATOM     25  H   UNL     1       7.642  -4.683  23.476  0.00  0.00    +0.222 HD
ENDBRANCH  20  24
ENDBRANCH  19  20
ENDBRANCH  18  19
ENDBRANCH   2  18
TORSDOF 8
ENDMDL
MODEL 4
REMARK VINA RESULT:      -6.2      2.242      3.035
REMARK  Name = 
REMARK  8 active torsions:
REMARK  status: ('A' for Active; 'I' for Inactive)
REMARK    1  A    between atoms: O_1  and  C_2
REMARK    2  A    between atoms: C_5  and  N_16
REMARK    3  A    between atoms: C_8  and  C_10
REMARK    4  A    between atoms: C_10  and  O_11
REMARK    5  A    between atoms: O_11  and  P_12
REMARK    6  A    between atoms: P_12  and  O_13
REMARK    7  A    between atoms: P_12  and  O_14
REMARK    8  A    between atoms: C_19  and  O_21
REMARK                            x       y       z     vdW  Elec       q    Type
REMARK                         _______ _______ _______ _____ _____    ______ ____
ROOT
ATOM      1  C   UNL     1       8.509  -2.107  22.636  0.00  0.00    +0.150 C 
ATOM      2  C   UNL     1       7.852  -1.023  23.491  0.00  0.00    +0.175 C 
ATOM      3  O   UNL     1       8.452  -1.096  24.806  0.00  0.00    -0.350 OA
ATOM      4  C   UNL     1       9.272  -2.271  24.877  0.00  0.00    +0.217 C 
ATOM      5  C   UNL     1       9.731  -2.490  23.437  0.00  0.00    +0.086 C 
ENDROOT
BRANCH   4   6
ATOM      6  N   UNL     1       8.519  -3.390  25.462  0.00  0.00    -0.236 N 
ATOM      7  C   UNL     1       9.136  -4.632  25.450  0.00  0.00    +0.310 C 
ATOM      8  O   UNL     1      10.248  -4.829  24.955  0.00  0.00    -0.252 OA
ATOM      9  N   UNL     1       8.450  -5.663  25.993  0.00  0.00    -0.270 N 
ATOM     10  H   UNL     1       8.955  -6.532  26.047  0.00  0.00    +0.153 HD
ATOM     11  C   UNL     1       7.222  -5.581  26.703  0.00  0.00    +0.229 C 
ATOM     12  C   UNL     1       6.696  -4.193  26.750  0.00  0.00    +0.039 C 
ATOM     13  C   UNL     1       7.337  -3.180  26.161  0.00  0.00    +0.082 C 
BRANCH  11  14
ATOM     14  O   UNL     1       7.495  -6.044  28.003  0.00  0.00    -0.371 OA
ATOM     15  H   UNL     1       8.051  -5.382  28.443  0.00  0.00    +0.212 HD
ENDBRANCH  11  14
ENDBRANCH   4   6
BRANCH   1  16
ATOM     16  O   UNL     1       7.637  -3.226  22.487  0.00  0.00    -0.389 OA
ATOM     17  H   UNL     1       6.802  -2.917  22.089  0.00  0.00    +0.210 HD
ENDBRANCH   1  16
BRANCH   2  18
ATOM     18  C   UNL     1       8.074   0.380  22.940  0.00  0.00    +0.206 C 
BRANCH  18  19
ATOM     19  O   UNL     1       8.337   1.263  24.033  0.00  0.00    -0.284 OA
BRANCH  19  20
ATOM     20  P   UNL     1       9.779   2.184  23.782  0.00  0.00    +0.472 P 
ATOM     21  O   UNL     1      11.071   3.008  23.557  0.00  0.00    -0.228 OA
BRANCH  20  22
ATOM     22  O   UNL     1       9.946   1.191  22.496  0.00  0.00    -0.303 OA
ATOM     23  H   UNL     1       9.135   1.258  21.957  0.00  0.00    +0.222 HD
ENDBRANCH  20  22
BRANCH  20  24
ATOM     24  O   UNL     1      10.403   1.178  24.909  0.00  0.00    -0.303 OA
ATOM     25  H   UNL     1      11.239   0.794  24.589  0.00  0.00    +0.222 HD
ENDBRANCH  20  24
ENDBRANCH  19  20
ENDBRANCH  18  19
ENDBRANCH   2  18
TORSDOF 8
ENDMDL
MODEL 5
REMARK VINA RESULT:      -6.2      2.099      3.410
REMARK  Name = 
REMARK  8 active torsions:
REMARK  status: ('A' for Active; 'I' for Inactive)
REMARK    1  A    between atoms: O_1  and  C_2
REMARK    2  A    between atoms: C_5  and  N_16
REMARK    3  A    between atoms: C_8  and  C_10
REMARK    4  A    between atoms: C_10  and  O_11
REMARK    5  A    between atoms: O_11  and  P_12
REMARK    6  A    between atoms: P_12  and  O_13
REMARK    7  A    between atoms: P_12  and  O_14
REMARK    8  A    between atoms: C_19  and  O_21
REMARK                            x       y       z     vdW  Elec       q    Type
REMARK                         _______ _______ _______ _____ _____    ______ ____
ROOT
ATOM      1  C   UNL     1       7.020  -1.582  22.652  0.00  0.00    +0.150 C 
ATOM      2  C   UNL     1       8.538  -1.480  22.801  0.00  0.00    +0.175 C 
ATOM      3  O   UNL     1       9.053  -2.830  22.861  0.00  0.00    -0.350 OA
ATOM      4  C   UNL     1       7.950  -3.742  22.967  0.00  0.00    +0.217 C 
ATOM      5  C   UNL     1       6.805  -3.024  22.255  0.00  0.00    +0.086 C 
ENDROOT
BRANCH   4   6
ATOM      6  N   UNL     1       7.690  -4.075  24.376  0.00  0.00    -0.236 N 
ATOM      7  C   UNL     1       6.723  -5.038  24.621  0.00  0.00    +0.310 C 
ATOM      8  O   UNL     1       6.074  -5.587  23.728  0.00  0.00    -0.252 OA
ATOM      9  N   UNL     1       6.485  -5.351  25.915  0.00  0.00    -0.270 N 
ATOM     10  H   UNL     1       5.841  -6.112  26.060  0.00  0.00    +0.153 HD
ATOM     11  C   UNL     1       7.221  -4.902  27.044  0.00  0.00    +0.229 C 
ATOM     12  C   UNL     1       8.302  -3.955  26.664  0.00  0.00    +0.039 C 
ATOM     13  C   UNL     1       8.501  -3.592  25.394  0.00  0.00    +0.082 C 
BRANCH  11  14
ATOM     14  O   UNL     1       7.768  -6.056  27.634  0.00  0.00    -0.371 OA
ATOM     15  H   UNL     1       8.577  -6.282  27.150  0.00  0.00    +0.212 HD
ENDBRANCH  11  14
ENDBRANCH   4   6
BRANCH   1  16
ATOM     16  O   UNL     1       6.373  -1.302  23.893  0.00  0.00    -0.389 OA
ATOM     17  H   UNL     1       5.938  -0.431  23.826  0.00  0.00    +0.210 HD
ENDBRANCH   1  16
BRANCH   2  18
ATOM     18  C   UNL     1       9.201  -0.765  21.630  0.00  0.00    +0.206 C 
BRANCH  18  19
ATOM     19  O   UNL     1       9.971   0.327  22.140  0.00  0.00    -0.284 OA
BRANCH  19  20
ATOM     20  P   UNL     1       9.047   1.787  22.211  0.00  0.00    +0.472 P 
ATOM     21  O   UNL     1       8.220   3.095  22.275  0.00  0.00    -0.228 OA
BRANCH  20  22
ATOM     22  O   UNL     1       8.555   1.308  20.729  0.00  0.00    -0.303 OA
ATOM     23  H   UNL     1       8.929   0.423  20.560  0.00  0.00    +0.222 HD
ENDBRANCH  20  22
BRANCH  20  24
ATOM     24  O   UNL     1      10.452   2.486  21.753  0.00  0.00    -0.303 OA
ATOM     25  H   UNL     1      10.611   3.292  22.277  0.00  0.00    +0.222 HD
ENDBRANCH  20  24
ENDBRANCH  19  20
ENDBRANCH  18  19
ENDBRANCH   2  18
TORSDOF 8
ENDMDL
MODEL 6
REMARK VINA RESULT:      -6.1      3.373      6.907
REMARK  Name = 
REMARK  8 active torsions:
REMARK  status: ('A' for Active; 'I' for Inactive)
REMARK    1  A    between atoms: O_1  and  C_2
REMARK    2  A    between atoms: C_5  and  N_16
REMARK    3  A    between atoms: C_8  and  C_10
REMARK    4  A    between atoms: C_10  and  O_11
REMARK    5  A    between atoms: O_11  and  P_12
REMARK    6  A    between atoms: P_12  and  O_13
REMARK    7  A    between atoms: P_12  and  O_14
REMARK    8  A    between atoms: C_19  and  O_21
REMARK                            x       y       z     vdW  Elec       q    Type
REMARK                         _______ _______ _______ _____ _____    ______ ____
ROOT
ATOM      1  C   UNL     1       6.730  -2.578  24.541  0.00  0.00    +0.150 C 
ATOM      2  C   UNL     1       7.945  -3.419  24.148  0.00  0.00    +0.175 C 
ATOM      3  O   UNL     1       9.123  -2.672  24.531  0.00  0.00    -0.350 OA
ATOM      4  C   UNL     1       8.725  -1.355  24.938  0.00  0.00    +0.217 C 
ATOM      5  C   UNL     1       7.310  -1.547  25.481  0.00  0.00    +0.086 C 
ENDROOT
BRANCH   4   6
ATOM      6  N   UNL     1       8.833  -0.414  23.813  0.00  0.00    -0.236 N 
ATOM      7  C   UNL     1       8.596   0.924  24.094  0.00  0.00    +0.310 C 
ATOM      8  O   UNL     1       8.282   1.334  25.214  0.00  0.00    -0.252 OA
ATOM      9  N   UNL     1       8.701   1.794  23.064  0.00  0.00    -0.270 N 
ATOM     10  H   UNL     1       8.609   2.765  23.313  0.00  0.00    +0.153 HD
ATOM     11  C   UNL     1       9.166   1.502  21.754  0.00  0.00    +0.229 C 
ATOM     12  C   UNL     1       9.491   0.062  21.585  0.00  0.00    +0.039 C 
ATOM     13  C   UNL     1       9.331  -0.814  22.580  0.00  0.00    +0.082 C 
BRANCH  11  14
ATOM     14  O   UNL     1      10.318   2.288  21.568  0.00  0.00    -0.371 OA
ATOM     15  H   UNL     1      10.062   3.075  21.061  0.00  0.00    +0.212 HD
ENDBRANCH  11  14
ENDBRANCH   4   6
BRANCH   1  16
ATOM     16  O   UNL     1       6.163  -1.948  23.394  0.00  0.00    -0.389 OA
ATOM     17  H   UNL     1       6.842  -1.909  22.694  0.00  0.00    +0.210 HD
ENDBRANCH   1  16
BRANCH   2  18
ATOM     18  C   UNL     1       7.983  -4.770  24.852  0.00  0.00    +0.206 C 
BRANCH  18  19
ATOM     19  O   UNL     1       6.679  -5.050  25.370  0.00  0.00    -0.284 OA
BRANCH  19  20
ATOM     20  P   UNL     1       6.708  -5.301  27.081  0.00  0.00    +0.472 P 
ATOM     21  O   UNL     1       6.733  -5.526  28.613  0.00  0.00    -0.228 OA
BRANCH  20  22
ATOM     22  O   UNL     1       8.174  -5.943  26.757  0.00  0.00    -0.303 OA
ATOM     23  H   UNL     1       8.847  -5.259  26.930  0.00  0.00    +0.222 HD
ENDBRANCH  20  22
BRANCH  20  24
ATOM     24  O   UNL     1       5.813  -6.621  26.720  0.00  0.00    -0.303 OA
ATOM     25  H   UNL     1       4.865  -6.399  26.745  0.00  0.00    +0.222 HD
ENDBRANCH  20  24
ENDBRANCH  19  20
ENDBRANCH  18  19
ENDBRANCH   2  18
TORSDOF 8
ENDMDL
MODEL 7
REMARK VINA RESULT:      -6.0      1.522      2.056
REMARK  Name = 
REMARK  8 active torsions:
REMARK  status: ('A' for Active; 'I' for Inactive)
REMARK    1  A    between atoms: O_1  and  C_2
REMARK    2  A    between atoms: C_5  and  N_16
REMARK    3  A    between atoms: C_8  and  C_10
REMARK    4  A    between atoms: C_10  and  O_11
REMARK    5  A    between atoms: O_11  and  P_12
REMARK    6  A    between atoms: P_12  and  O_13
REMARK    7  A    between atoms: P_12  and  O_14
REMARK    8  A    between atoms: C_19  and  O_21
REMARK                            x       y       z     vdW  Elec       q    Type
REMARK                         _______ _______ _______ _____ _____    ______ ____
ROOT
ATOM      1  C   UNL     1       9.719  -2.352  24.110  0.00  0.00    +0.150 C 
ATOM      2  C   UNL     1       9.636  -1.905  22.649  0.00  0.00    +0.175 C 
ATOM      3  O   UNL     1       8.245  -1.629  22.366  0.00  0.00    -0.350 OA
ATOM      4  C   UNL     1       7.449  -2.069  23.475  0.00  0.00    +0.217 C 
ATOM      5  C   UNL     1       8.383  -1.933  24.677  0.00  0.00    +0.086 C 
ENDROOT
BRANCH   4   6
ATOM      6  N   UNL     1       6.941  -3.428  23.237  0.00  0.00    -0.236 N 
ATOM      7  C   UNL     1       6.046  -3.931  24.170  0.00  0.00    +0.310 C 
ATOM      8  O   UNL     1       5.694  -3.308  25.175  0.00  0.00    -0.252 OA
ATOM      9  N   UNL     1       5.570  -5.178  23.951  0.00  0.00    -0.270 N 
ATOM     10  H   UNL     1       4.859  -5.484  24.596  0.00  0.00    +0.153 HD
ATOM     11  C   UNL     1       5.781  -5.973  22.794  0.00  0.00    +0.229 C 
ATOM     12  C   UNL     1       6.669  -5.302  21.810  0.00  0.00    +0.039 C 
ATOM     13  C   UNL     1       7.193  -4.097  22.047  0.00  0.00    +0.082 C 
BRANCH  11  14
ATOM     14  O   UNL     1       4.508  -6.189  22.235  0.00  0.00    -0.371 OA
ATOM     15  H   UNL     1       4.632  -6.538  21.339  0.00  0.00    +0.212 HD
ENDBRANCH  11  14
ENDBRANCH   4   6
BRANCH   1  16
ATOM     16  O   UNL     1       9.878  -3.767  24.193  0.00  0.00    -0.389 OA
ATOM     17  H   UNL     1      10.063  -4.004  25.121  0.00  0.00    +0.210 HD
ENDBRANCH   1  16
BRANCH   2  18
ATOM     18  C   UNL     1      10.443  -0.643  22.371  0.00  0.00    +0.206 C 
BRANCH  18  19
ATOM     19  O   UNL     1       9.551   0.375  21.908  0.00  0.00    -0.284 OA
BRANCH  19  20
ATOM     20  P   UNL     1       9.717   1.837  22.818  0.00  0.00    +0.472 P 
ATOM     21  O   UNL     1       9.865   3.145  23.632  0.00  0.00    -0.228 OA
BRANCH  20  22
ATOM     22  O   UNL     1       8.320   1.333  23.496  0.00  0.00    -0.303 OA
ATOM     23  H   UNL     1       8.519   0.562  24.060  0.00  0.00    +0.222 HD
ENDBRANCH  20  22
BRANCH  20  24
ATOM     24  O   UNL     1       9.070   2.527  21.485  0.00  0.00    -0.303 OA
ATOM     25  H   UNL     1       9.670   3.212  21.138  0.00  0.00    +0.222 HD
ENDBRANCH  20  24
ENDBRANCH  19  20
ENDBRANCH  18  19
ENDBRANCH   2  18
TORSDOF 8
ENDMDL
MODEL 8
REMARK VINA RESULT:      -6.0      3.263      6.732
REMARK  Name = 
REMARK  8 active torsions:
REMARK  status: ('A' for Active; 'I' for Inactive)
REMARK    1  A    between atoms: O_1  and  C_2
REMARK    2  A    between atoms: C_5  and  N_16
REMARK    3  A    between atoms: C_8  and  C_10
REMARK    4  A    between atoms: C_10  and  O_11
REMARK    5  A    between atoms: O_11  and  P_12
REMARK    6  A    between atoms: P_12  and  O_13
REMARK    7  A    between atoms: P_12  and  O_14
REMARK    8  A    between atoms: C_19  and  O_21
REMARK                            x       y       z     vdW  Elec       q    Type
REMARK                         _______ _______ _______ _____ _____    ______ ____
ROOT
ATOM      1  C   UNL     1       9.342  -1.632  24.091  0.00  0.00    +0.150 C 
ATOM      2  C   UNL     1       8.018  -2.190  23.565  0.00  0.00    +0.175 C 
ATOM      3  O   UNL     1       7.818  -1.639  22.243  0.00  0.00    -0.350 OA
ATOM      4  C   UNL     1       8.810  -0.630  22.006  0.00  0.00    +0.217 C 
ATOM      5  C   UNL     1      10.002  -1.077  22.851  0.00  0.00    +0.086 C 
ENDROOT
BRANCH   4   6
ATOM      6  N   UNL     1       8.281   0.700  22.339  0.00  0.00    -0.236 N 
ATOM      7  C   UNL     1       9.125   1.780  22.122  0.00  0.00    +0.310 C 
ATOM      8  O   UNL     1      10.278   1.662  21.700  0.00  0.00    -0.252 OA
ATOM      9  N   UNL     1       8.640   3.006  22.421  0.00  0.00    -0.270 N 
ATOM     10  H   UNL     1       9.241   3.776  22.174  0.00  0.00    +0.153 HD
ATOM     11  C   UNL     1       7.308   3.320  22.799  0.00  0.00    +0.229 C 
ATOM     12  C   UNL     1       6.456   2.107  22.903  0.00  0.00    +0.039 C 
ATOM     13  C   UNL     1       6.945   0.886  22.670  0.00  0.00    +0.082 C 
BRANCH  11  14
ATOM     14  O   UNL     1       6.814   4.180  21.801  0.00  0.00    -0.371 OA
ATOM     15  H   UNL     1       7.184   5.062  21.959  0.00  0.00    +0.212 HD
ENDBRANCH  11  14
ENDBRANCH   4   6
BRANCH   1  16
ATOM     16  O   UNL     1       9.106  -0.594  25.041  0.00  0.00    -0.389 OA
ATOM     17  H   UNL     1       9.838   0.049  24.985  0.00  0.00    +0.210 HD
ENDBRANCH   1  16
BRANCH   2  18
ATOM     18  C   UNL     1       8.020  -3.710  23.457  0.00  0.00    +0.206 C 
BRANCH  18  19
ATOM     19  O   UNL     1       7.512  -4.076  22.171  0.00  0.00    -0.284 OA
BRANCH  19  20
ATOM     20  P   UNL     1       5.947  -4.804  22.282  0.00  0.00    +0.472 P 
ATOM     21  O   UNL     1       4.545  -5.455  22.380  0.00  0.00    -0.228 OA
BRANCH  20  22
ATOM     22  O   UNL     1       6.473  -5.650  20.987  0.00  0.00    -0.303 OA
ATOM     23  H   UNL     1       6.117  -5.224  20.185  0.00  0.00    +0.222 HD
ENDBRANCH  20  22
BRANCH  20  24
ATOM     24  O   UNL     1       5.465  -3.464  21.479  0.00  0.00    -0.303 OA
ATOM     25  H   UNL     1       5.688  -2.668  21.993  0.00  0.00    +0.222 HD
ENDBRANCH  20  24
ENDBRANCH  19  20
ENDBRANCH  18  19
ENDBRANCH   2  18
TORSDOF 8
ENDMDL
MODEL 9
REMARK VINA RESULT:      -6.0      3.243      6.669
REMARK  Name = 
REMARK  8 active torsions:
REMARK  status: ('A' for Active; 'I' for Inactive)
REMARK    1  A    between atoms: O_1  and  C_2
REMARK    2  A    between atoms: C_5  and  N_16
REMARK    3  A    between atoms: C_8  and  C_10
REMARK    4  A    between atoms: C_10  and  O_11
REMARK    5  A    between atoms: O_11  and  P_12
REMARK    6  A    between atoms: P_12  and  O_13
REMARK    7  A    between atoms: P_12  and  O_14
REMARK    8  A    between atoms: C_19  and  O_21
REMARK                            x       y       z     vdW  Elec       q    Type
REMARK                         _______ _______ _______ _____ _____    ______ ____
ROOT
ATOM      1  C   UNL     1       8.185  -3.181  25.489  0.00  0.00    +0.150 C 
ATOM      2  C   UNL     1       6.797  -3.208  24.848  0.00  0.00    +0.175 C 
ATOM      3  O   UNL     1       6.987  -3.152  23.415  0.00  0.00    -0.350 OA
ATOM      4  C   UNL     1       8.370  -2.884  23.141  0.00  0.00    +0.217 C 
ATOM      5  C   UNL     1       9.108  -3.491  24.333  0.00  0.00    +0.086 C 
ENDROOT
BRANCH   4   6
ATOM      6  N   UNL     1       8.587  -1.443  22.948  0.00  0.00    -0.236 N 
ATOM      7  C   UNL     1       9.846  -1.054  22.514  0.00  0.00    +0.310 C 
ATOM      8  O   UNL     1      10.768  -1.848  22.319  0.00  0.00    -0.252 OA
ATOM      9  N   UNL     1      10.047   0.270  22.329  0.00  0.00    -0.270 N 
ATOM     10  H   UNL     1      10.941   0.516  21.934  0.00  0.00    +0.153 HD
ATOM     11  C   UNL     1       9.065   1.294  22.395  0.00  0.00    +0.229 C 
ATOM     12  C   UNL     1       7.728   0.760  22.765  0.00  0.00    +0.039 C 
ATOM     13  C   UNL     1       7.535  -0.538  23.011  0.00  0.00    +0.082 C 
BRANCH  11  14
ATOM     14  O   UNL     1       9.022   1.873  21.114  0.00  0.00    -0.371 OA
ATOM     15  H   UNL     1       8.828   2.817  21.221  0.00  0.00    +0.212 HD
ENDBRANCH  11  14
ENDBRANCH   4   6
BRANCH   1  16
ATOM     16  O   UNL     1       8.466  -1.887  26.021  0.00  0.00    -0.389 OA
ATOM     17  H   UNL     1       8.401  -1.932  26.993  0.00  0.00    +0.210 HD
ENDBRANCH   1  16
BRANCH   2  18
ATOM     18  C   UNL     1       6.018  -4.476  25.179  0.00  0.00    +0.206 C 
BRANCH  18  19
ATOM     19  O   UNL     1       6.034  -5.333  24.034  0.00  0.00    -0.284 OA
BRANCH  19  20
ATOM     20  P   UNL     1       4.451  -5.551  23.373  0.00  0.00    +0.472 P 
ATOM     21  O   UNL     1       3.034  -5.746  22.779  0.00  0.00    -0.228 OA
BRANCH  20  22
ATOM     22  O   UNL     1       4.878  -7.127  23.400  0.00  0.00    -0.303 OA
ATOM     23  H   UNL     1       5.829  -7.185  23.188  0.00  0.00    +0.222 HD
ENDBRANCH  20  22
BRANCH  20  24
ATOM     24  O   UNL     1       5.182  -5.157  21.964  0.00  0.00    -0.303 OA
ATOM     25  H   UNL     1       5.597  -4.279  22.037  0.00  0.00    +0.222 HD
ENDBRANCH  20  24
ENDBRANCH  19  20
ENDBRANCH  18  19
ENDBRANCH   2  18
TORSDOF 8
ENDMDL
