MODEL 1
REMARK VINA RESULT:      -7.9      0.000      0.000
REMARK  Name = 
REMARK  6 active torsions:
REMARK  status: ('A' for Active; 'I' for Inactive)
REMARK    1  A    between atoms: C_7  and  C_8
REMARK    2  A    between atoms: C_8  and  N_9
REMARK    3  A    between atoms: N_9  and  C_10
REMARK    4  A    between atoms: C_13  and  C_16
REMARK    5  A    between atoms: C_16  and  O_17
REMARK    6  A    between atoms: C_21  and  O_22
REMARK                            x       y       z     vdW  Elec       q    Type
REMARK                         _______ _______ _______ _____ _____    ______ ____
ROOT
ATOM      1  N   UNL     1       3.969  -7.192  25.783  0.00  0.00    -0.327 N 
ATOM      2  H   UNL     1       3.748  -7.372  26.752  0.00  0.00    +0.145 HD
ATOM      3  H   UNL     1       3.230  -6.853  25.184  0.00  0.00    +0.145 HD
ATOM      4  C   UNL     1       5.097  -6.411  25.671  0.00  0.00    +0.218 A 
ATOM      5  N   UNL     1       5.943  -6.403  26.693  0.00  0.00    -0.178 NA
ATOM      6  C   UNL     1       7.040  -5.653  26.525  0.00  0.00    +0.245 A 
ATOM      7  C   UNL     1       7.343  -4.901  25.411  0.00  0.00    +0.170 A 
ATOM      8  N   UNL     1       8.501  -4.175  25.291  0.00  0.00    -0.240 NA
ATOM      9  C   UNL     1       8.655  -3.507  24.121  0.00  0.00    +0.077 A 
ATOM     10  C   UNL     1       7.660  -3.545  23.158  0.00  0.00    +0.138 A 
ATOM     11  N   UNL     1       6.522  -4.269  23.298  0.00  0.00    -0.232 NA
ATOM     12  C   UNL     1       6.353  -4.969  24.427  0.00  0.00    +0.187 A 
ATOM     13  N   UNL     1       5.250  -5.702  24.555  0.00  0.00    -0.193 NA
ENDROOT
BRANCH   6  14
ATOM     14  O   UNL     1       7.920  -5.667  27.582  0.00  0.00    -0.491 OA
ATOM     15  H   UNL     1       7.562  -6.331  28.201  0.00  0.00    +0.294 HD
ENDBRANCH   6  14
BRANCH   9  16
ATOM     16  C   UNL     1       9.924  -2.717  23.881  0.00  0.00    +0.158 C 
BRANCH  16  17
ATOM     17  N   UNL     1       9.794  -1.888  22.685  0.00  0.00    -0.338 N 
ATOM     18  H   UNL     1       8.912  -2.071  22.207  0.00  0.00    +0.146 HD
BRANCH  17  19
ATOM     19  C   UNL     1      10.040  -0.512  22.784  0.00  0.00    +0.027 A 
ATOM     20  C   UNL     1      10.481   0.004  24.012  0.00  0.00    +0.024 A 
ATOM     21  C   UNL     1      10.675   1.378  24.202  0.00  0.00    +0.017 A 
ATOM     22  C   UNL     1      10.402   2.274  23.169  0.00  0.00    +0.059 A 
ATOM     23  C   UNL     1       9.896   1.788  21.961  0.00  0.00    +0.017 A 
ATOM     24  C   UNL     1       9.716   0.408  21.778  0.00  0.00    +0.024 A 
BRANCH  22  25
ATOM     25  C   UNL     1      10.596   3.725  23.426  0.00  0.00    +0.337 C 
ATOM     26  O   UNL     1       9.775   4.409  24.011  0.00  0.00    -0.245 OA
BRANCH  25  27
ATOM     27  O   UNL     1      11.780   4.206  22.992  0.00  0.00    -0.477 OA
ATOM     28  H   UNL     1      12.038   3.927  22.095  0.00  0.00    +0.295 HD
ENDBRANCH  25  27
ENDBRANCH  22  25
ENDBRANCH  17  19
ENDBRANCH  16  17
ENDBRANCH   9  16
TORSDOF 6
ENDMDL
MODEL 2
REMARK VINA RESULT:      -7.7      1.851      2.337
REMARK  Name = 
REMARK  6 active torsions:
REMARK  status: ('A' for Active; 'I' for Inactive)
REMARK    1  A    between atoms: C_7  and  C_8
REMARK    2  A    between atoms: C_8  and  N_9
REMARK    3  A    between atoms: N_9  and  C_10
REMARK    4  A    between atoms: C_13  and  C_16
REMARK    5  A    between atoms: C_16  and  O_17
REMARK    6  A    between atoms: C_21  and  O_22
REMARK                            x       y       z     vdW  Elec       q    Type
REMARK                         _______ _______ _______ _____ _____    ______ ____
ROOT
ATOM      1  N   UNL     1       3.382  -6.840  23.679  0.00  0.00    -0.327 N 
ATOM      2  H   UNL     1       2.941  -7.042  22.793  0.00  0.00    +0.145 HD
ATOM      3  H   UNL     1       3.579  -7.615  24.296  0.00  0.00    +0.145 HD
ATOM      4  C   UNL     1       4.493  -6.046  23.507  0.00  0.00    +0.218 A 
ATOM      5  N   UNL     1       4.561  -5.316  22.401  0.00  0.00    -0.178 NA
ATOM      6  C   UNL     1       5.646  -4.537  22.294  0.00  0.00    +0.245 A 
ATOM      7  C   UNL     1       6.672  -4.447  23.209  0.00  0.00    +0.170 A 
ATOM      8  N   UNL     1       7.743  -3.606  23.051  0.00  0.00    -0.240 NA
ATOM      9  C   UNL     1       8.655  -3.622  24.056  0.00  0.00    +0.077 A 
ATOM     10  C   UNL     1       8.498  -4.486  25.128  0.00  0.00    +0.138 A 
ATOM     11  N   UNL     1       7.430  -5.310  25.263  0.00  0.00    -0.232 NA
ATOM     12  C   UNL     1       6.493  -5.293  24.306  0.00  0.00    +0.187 A 
ATOM     13  N   UNL     1       5.430  -6.082  24.451  0.00  0.00    -0.193 NA
ENDROOT
BRANCH   6  14
ATOM     14  O   UNL     1       5.699  -3.769  21.153  0.00  0.00    -0.491 OA
ATOM     15  H   UNL     1       5.001  -4.130  20.573  0.00  0.00    +0.294 HD
ENDBRANCH   6  14
BRANCH   9  16
ATOM     16  C   UNL     1       9.847  -2.691  23.989  0.00  0.00    +0.158 C 
BRANCH  16  17
ATOM     17  N   UNL     1       9.804  -1.890  22.767  0.00  0.00    -0.338 N 
ATOM     18  H   UNL     1       8.958  -2.085  22.231  0.00  0.00    +0.146 HD
BRANCH  17  19
ATOM     19  C   UNL     1      10.043  -0.512  22.852  0.00  0.00    +0.027 A 
ATOM     20  C   UNL     1      10.429   0.027  24.088  0.00  0.00    +0.024 A 
ATOM     21  C   UNL     1      10.612   1.405  24.262  0.00  0.00    +0.017 A 
ATOM     22  C   UNL     1      10.383   2.282  23.201  0.00  0.00    +0.059 A 
ATOM     23  C   UNL     1       9.932   1.773  21.981  0.00  0.00    +0.017 A 
ATOM     24  C   UNL     1       9.762   0.389  21.815  0.00  0.00    +0.024 A 
BRANCH  22  25
ATOM     25  C   UNL     1      10.563   3.738  23.440  0.00  0.00    +0.337 C 
ATOM     26  O   UNL     1       9.764   4.409  24.067  0.00  0.00    -0.245 OA
BRANCH  25  27
ATOM     27  O   UNL     1      11.711   4.239  22.936  0.00  0.00    -0.477 OA
ATOM     28  H   UNL     1      12.330   3.578  22.577  0.00  0.00    +0.295 HD
ENDBRANCH  25  27
ENDBRANCH  22  25
ENDBRANCH  17  19
ENDBRANCH  16  17
ENDBRANCH   9  16
TORSDOF 6
ENDMDL
MODEL 3
REMARK VINA RESULT:      -7.7      1.389      2.147
REMARK  Name = 
REMARK  6 active torsions:
REMARK  status: ('A' for Active; 'I' for Inactive)
REMARK    1  A    between atoms: C_7  and  C_8
REMARK    2  A    between atoms: C_8  and  N_9
REMARK    3  A    between atoms: N_9  and  C_10
REMARK    4  A    between atoms: C_13  and  C_16
REMARK    5  A    between atoms: C_16  and  O_17
REMARK    6  A    between atoms: C_21  and  O_22
REMARK                            x       y       z     vdW  Elec       q    Type
REMARK                         _______ _______ _______ _____ _____    ______ ____
ROOT
ATOM      1  N   UNL     1       5.863  -7.165  29.042  0.00  0.00    -0.327 N 
ATOM      2  H   UNL     1       5.309  -7.989  28.856  0.00  0.00    +0.145 HD
ATOM      3  H   UNL     1       6.682  -7.268  29.626  0.00  0.00    +0.145 HD
ATOM      4  C   UNL     1       6.166  -6.501  27.875  0.00  0.00    +0.218 A 
ATOM      5  N   UNL     1       5.377  -6.707  26.828  0.00  0.00    -0.178 NA
ATOM      6  C   UNL     1       5.693  -6.014  25.726  0.00  0.00    +0.245 A 
ATOM      7  C   UNL     1       6.750  -5.140  25.594  0.00  0.00    +0.170 A 
ATOM      8  N   UNL     1       7.002  -4.440  24.443  0.00  0.00    -0.240 NA
ATOM      9  C   UNL     1       8.069  -3.604  24.487  0.00  0.00    +0.077 A 
ATOM     10  C   UNL     1       8.855  -3.533  25.626  0.00  0.00    +0.138 A 
ATOM     11  N   UNL     1       8.587  -4.236  26.754  0.00  0.00    -0.232 NA
ATOM     12  C   UNL     1       7.519  -5.044  26.756  0.00  0.00    +0.187 A 
ATOM     13  N   UNL     1       7.239  -5.714  27.872  0.00  0.00    -0.193 NA
ENDROOT
BRANCH   6  14
ATOM     14  O   UNL     1       4.858  -6.220  24.652  0.00  0.00    -0.491 OA
ATOM     15  H   UNL     1       5.393  -6.723  24.007  0.00  0.00    +0.294 HD
ENDBRANCH   6  14
BRANCH   9  16
ATOM     16  C   UNL     1       8.395  -2.756  23.276  0.00  0.00    +0.158 C 
BRANCH  16  17
ATOM     17  N   UNL     1       9.778  -2.285  23.337  0.00  0.00    -0.338 N 
ATOM     18  H   UNL     1      10.370  -2.804  22.689  0.00  0.00    +0.146 HD
BRANCH  17  19
ATOM     19  C   UNL     1      10.029  -0.908  23.260  0.00  0.00    +0.027 A 
ATOM     20  C   UNL     1      10.306  -0.210  24.445  0.00  0.00    +0.024 A 
ATOM     21  C   UNL     1      10.493   1.178  24.451  0.00  0.00    +0.017 A 
ATOM     22  C   UNL     1      10.379   1.906  23.266  0.00  0.00    +0.059 A 
ATOM     23  C   UNL     1      10.036   1.239  22.087  0.00  0.00    +0.017 A 
ATOM     24  C   UNL     1       9.861  -0.154  22.092  0.00  0.00    +0.024 A 
BRANCH  22  25
ATOM     25  C   UNL     1      10.558   3.380  23.325  0.00  0.00    +0.337 C 
ATOM     26  O   UNL     1      11.653   3.913  23.357  0.00  0.00    -0.245 OA
BRANCH  25  27
ATOM     27  O   UNL     1       9.402   4.076  23.298  0.00  0.00    -0.477 OA
ATOM     28  H   UNL     1       9.148   4.425  22.424  0.00  0.00    +0.295 HD
ENDBRANCH  25  27
ENDBRANCH  22  25
ENDBRANCH  17  19
ENDBRANCH  16  17
ENDBRANCH   9  16
TORSDOF 6
ENDMDL
MODEL 4
REMARK VINA RESULT:      -7.1      3.127      8.131
REMARK  Name = 
REMARK  6 active torsions:
REMARK  status: ('A' for Active; 'I' for Inactive)
REMARK    1  A    between atoms: C_7  and  C_8
REMARK    2  A    between atoms: C_8  and  N_9
REMARK    3  A    between atoms: N_9  and  C_10
REMARK    4  A    between atoms: C_13  and  C_16
REMARK    5  A    between atoms: C_16  and  O_17
REMARK    6  A    between atoms: C_21  and  O_22
REMARK                            x       y       z     vdW  Elec       q    Type
REMARK                         _______ _______ _______ _____ _____    ______ ____
ROOT
ATOM      1  N   UNL     1       9.249   2.633  21.820  0.00  0.00    -0.327 N 
ATOM      2  H   UNL     1       9.407   2.535  20.827  0.00  0.00    +0.145 HD
ATOM      3  H   UNL     1       8.470   3.201  22.121  0.00  0.00    +0.145 HD
ATOM      4  C   UNL     1       9.236   1.404  22.440  0.00  0.00    +0.218 A 
ATOM      5  N   UNL     1       9.853   0.401  21.829  0.00  0.00    -0.178 NA
ATOM      6  C   UNL     1       9.840  -0.767  22.486  0.00  0.00    +0.245 A 
ATOM      7  C   UNL     1       9.242  -1.003  23.705  0.00  0.00    +0.170 A 
ATOM      8  N   UNL     1       9.291  -2.219  24.337  0.00  0.00    -0.240 NA
ATOM      9  C   UNL     1       8.670  -2.277  25.542  0.00  0.00    +0.077 A 
ATOM     10  C   UNL     1       8.001  -1.170  26.038  0.00  0.00    +0.138 A 
ATOM     11  N   UNL     1       7.965   0.022  25.394  0.00  0.00    -0.232 NA
ATOM     12  C   UNL     1       8.599   0.125  24.218  0.00  0.00    +0.187 A 
ATOM     13  N   UNL     1       8.588   1.303  23.598  0.00  0.00    -0.193 NA
ENDROOT
BRANCH   6  14
ATOM     14  O   UNL     1      10.499  -1.795  21.854  0.00  0.00    -0.491 OA
ATOM     15  H   UNL     1       9.992  -1.955  21.034  0.00  0.00    +0.294 HD
ENDBRANCH   6  14
BRANCH   9  16
ATOM     16  C   UNL     1       8.712  -3.566  26.334  0.00  0.00    +0.158 C 
BRANCH  16  17
ATOM     17  N   UNL     1       8.676  -4.721  25.438  0.00  0.00    -0.338 N 
ATOM     18  H   UNL     1       9.265  -5.475  25.789  0.00  0.00    +0.146 HD
BRANCH  17  19
ATOM     19  C   UNL     1       7.433  -5.207  25.009  0.00  0.00    +0.027 A 
ATOM     20  C   UNL     1       7.145  -5.191  23.636  0.00  0.00    +0.024 A 
ATOM     21  C   UNL     1       5.896  -5.593  23.145  0.00  0.00    +0.017 A 
ATOM     22  C   UNL     1       4.892  -5.995  24.027  0.00  0.00    +0.059 A 
ATOM     23  C   UNL     1       5.136  -5.952  25.401  0.00  0.00    +0.017 A 
ATOM     24  C   UNL     1       6.395  -5.558  25.882  0.00  0.00    +0.024 A 
BRANCH  22  25
ATOM     25  C   UNL     1       3.574  -6.385  23.462  0.00  0.00    +0.337 C 
ATOM     26  O   UNL     1       2.861  -5.612  22.848  0.00  0.00    -0.245 OA
BRANCH  25  27
ATOM     27  O   UNL     1       3.258  -7.684  23.653  0.00  0.00    -0.477 OA
ATOM     28  H   UNL     1       2.690  -8.078  22.966  0.00  0.00    +0.295 HD
ENDBRANCH  25  27
ENDBRANCH  22  25
ENDBRANCH  17  19
ENDBRANCH  16  17
ENDBRANCH   9  16
TORSDOF 6
ENDMDL
MODEL 5
REMARK VINA RESULT:      -7.1      2.562      8.233
REMARK  Name = 
REMARK  6 active torsions:
REMARK  status: ('A' for Active; 'I' for Inactive)
REMARK    1  A    between atoms: C_7  and  C_8
REMARK    2  A    between atoms: C_8  and  N_9
REMARK    3  A    between atoms: N_9  and  C_10
REMARK    4  A    between atoms: C_13  and  C_16
REMARK    5  A    between atoms: C_16  and  O_17
REMARK    6  A    between atoms: C_21  and  O_22
REMARK                            x       y       z     vdW  Elec       q    Type
REMARK                         _______ _______ _______ _____ _____    ______ ____
ROOT
ATOM      1  N   UNL     1      10.788   3.858  23.102  0.00  0.00    -0.327 N 
ATOM      2  H   UNL     1      11.087   4.251  23.984  0.00  0.00    +0.145 HD
ATOM      3  H   UNL     1      11.457   3.832  22.345  0.00  0.00    +0.145 HD
ATOM      4  C   UNL     1      10.198   2.628  23.286  0.00  0.00    +0.218 A 
ATOM      5  N   UNL     1       9.698   2.359  24.485  0.00  0.00    -0.178 NA
ATOM      6  C   UNL     1       9.107   1.163  24.606  0.00  0.00    +0.245 A 
ATOM      7  C   UNL     1       8.991   0.213  23.614  0.00  0.00    +0.170 A 
ATOM      8  N   UNL     1       8.347  -0.983  23.797  0.00  0.00    -0.240 NA
ATOM      9  C   UNL     1       8.303  -1.796  22.712  0.00  0.00    +0.077 A 
ATOM     10  C   UNL     1       8.927  -1.423  21.532  0.00  0.00    +0.138 A 
ATOM     11  N   UNL     1       9.560  -0.234  21.375  0.00  0.00    -0.232 NA
ATOM     12  C   UNL     1       9.591   0.609  22.416  0.00  0.00    +0.187 A 
ATOM     13  N   UNL     1      10.188   1.788  22.254  0.00  0.00    -0.193 NA
ENDROOT
BRANCH   6  14
ATOM     14  O   UNL     1       8.575   0.901  25.847  0.00  0.00    -0.491 OA
ATOM     15  H   UNL     1       9.338   0.645  26.401  0.00  0.00    +0.294 HD
ENDBRANCH   6  14
BRANCH   9  16
ATOM     16  C   UNL     1       7.572  -3.118  22.807  0.00  0.00    +0.158 C 
BRANCH  16  17
ATOM     17  N   UNL     1       8.297  -4.045  23.675  0.00  0.00    -0.338 N 
ATOM     18  H   UNL     1       9.236  -3.700  23.875  0.00  0.00    +0.146 HD
BRANCH  17  19
ATOM     19  C   UNL     1       7.671  -4.514  24.838  0.00  0.00    +0.027 A 
ATOM     20  C   UNL     1       8.448  -4.694  25.992  0.00  0.00    +0.024 A 
ATOM     21  C   UNL     1       7.904  -5.229  27.166  0.00  0.00    +0.017 A 
ATOM     22  C   UNL     1       6.566  -5.624  27.202  0.00  0.00    +0.059 A 
ATOM     23  C   UNL     1       5.793  -5.518  26.044  0.00  0.00    +0.017 A 
ATOM     24  C   UNL     1       6.347  -4.970  24.875  0.00  0.00    +0.024 A 
BRANCH  22  25
ATOM     25  C   UNL     1       6.040  -6.212  28.461  0.00  0.00    +0.337 C 
ATOM     26  O   UNL     1       6.025  -5.608  29.518  0.00  0.00    -0.245 OA
BRANCH  25  27
ATOM     27  O   UNL     1       5.542  -7.459  28.319  0.00  0.00    -0.477 OA
ATOM     28  H   UNL     1       5.853  -8.108  28.976  0.00  0.00    +0.295 HD
ENDBRANCH  25  27
ENDBRANCH  22  25
ENDBRANCH  17  19
ENDBRANCH  16  17
ENDBRANCH   9  16
TORSDOF 6
ENDMDL
MODEL 6
REMARK VINA RESULT:      -6.9      2.757      8.659
REMARK  Name = 
REMARK  6 active torsions:
REMARK  status: ('A' for Active; 'I' for Inactive)
REMARK    1  A    between atoms: C_7  and  C_8
REMARK    2  A    between atoms: C_8  and  N_9
REMARK    3  A    between atoms: N_9  and  C_10
REMARK    4  A    between atoms: C_13  and  C_16
REMARK    5  A    between atoms: C_16  and  O_17
REMARK    6  A    between atoms: C_21  and  O_22
REMARK                            x       y       z     vdW  Elec       q    Type
REMARK                         _______ _______ _______ _____ _____    ______ ____
ROOT
ATOM      1  N   UNL     1       9.875   2.235  21.484  0.00  0.00    -0.327 N 
ATOM      2  H   UNL     1      10.598   2.863  21.806  0.00  0.00    +0.145 HD
ATOM      3  H   UNL     1       9.885   1.964  20.510  0.00  0.00    +0.145 HD
ATOM      4  C   UNL     1       9.776   1.134  22.304  0.00  0.00    +0.218 A 
ATOM      5  N   UNL     1      10.231   1.251  23.545  0.00  0.00    -0.178 NA
ATOM      6  C   UNL     1      10.084   0.163  24.315  0.00  0.00    +0.245 A 
ATOM      7  C   UNL     1       9.525  -1.035  23.925  0.00  0.00    +0.170 A 
ATOM      8  N   UNL     1       9.379  -2.102  24.774  0.00  0.00    -0.240 NA
ATOM      9  C   UNL     1       8.789  -3.199  24.238  0.00  0.00    +0.077 A 
ATOM     10  C   UNL     1       8.420  -3.213  22.902  0.00  0.00    +0.138 A 
ATOM     11  N   UNL     1       8.576  -2.146  22.081  0.00  0.00    -0.232 NA
ATOM     12  C   UNL     1       9.123  -1.033  22.588  0.00  0.00    +0.187 A 
ATOM     13  N   UNL     1       9.250   0.025  21.790  0.00  0.00    -0.193 NA
ENDROOT
BRANCH   6  14
ATOM     14  O   UNL     1      10.541   0.300  25.605  0.00  0.00    -0.491 OA
ATOM     15  H   UNL     1       9.876   0.859  26.052  0.00  0.00    +0.294 HD
ENDBRANCH   6  14
BRANCH   9  16
ATOM     16  C   UNL     1       8.544  -4.410  25.114  0.00  0.00    +0.158 C 
BRANCH  16  17
ATOM     17  N   UNL     1       7.324  -4.235  25.900  0.00  0.00    -0.338 N 
ATOM     18  H   UNL     1       6.985  -3.275  25.840  0.00  0.00    +0.146 HD
BRANCH  17  19
ATOM     19  C   UNL     1       6.277  -5.153  25.740  0.00  0.00    +0.027 A 
ATOM     20  C   UNL     1       5.894  -5.513  24.439  0.00  0.00    +0.024 A 
ATOM     21  C   UNL     1       4.809  -6.367  24.204  0.00  0.00    +0.017 A 
ATOM     22  C   UNL     1       4.061  -6.860  25.274  0.00  0.00    +0.059 A 
ATOM     23  C   UNL     1       4.384  -6.460  26.573  0.00  0.00    +0.017 A 
ATOM     24  C   UNL     1       5.480  -5.611  26.797  0.00  0.00    +0.024 A 
BRANCH  22  25
ATOM     25  C   UNL     1       2.902  -7.741  24.976  0.00  0.00    +0.337 C 
ATOM     26  O   UNL     1       2.045  -8.008  25.799  0.00  0.00    -0.245 OA
BRANCH  25  27
ATOM     27  O   UNL     1       2.862  -8.182  23.701  0.00  0.00    -0.477 OA
ATOM     28  H   UNL     1       2.522  -7.542  23.050  0.00  0.00    +0.295 HD
ENDBRANCH  25  27
ENDBRANCH  22  25
ENDBRANCH  17  19
ENDBRANCH  16  17
ENDBRANCH   9  16
TORSDOF 6
ENDMDL
MODEL 7
REMARK VINA RESULT:      -6.8      2.535      3.034
REMARK  Name = 
REMARK  6 active torsions:
REMARK  status: ('A' for Active; 'I' for Inactive)
REMARK    1  A    between atoms: C_7  and  C_8
REMARK    2  A    between atoms: C_8  and  N_9
REMARK    3  A    between atoms: N_9  and  C_10
REMARK    4  A    between atoms: C_13  and  C_16
REMARK    5  A    between atoms: C_16  and  O_17
REMARK    6  A    between atoms: C_21  and  O_22
REMARK                            x       y       z     vdW  Elec       q    Type
REMARK                         _______ _______ _______ _____ _____    ______ ____
ROOT
ATOM      1  N   UNL     1       6.075  -6.218  21.238  0.00  0.00    -0.327 N 
ATOM      2  H   UNL     1       6.088  -7.164  21.593  0.00  0.00    +0.145 HD
ATOM      3  H   UNL     1       5.185  -5.832  20.955  0.00  0.00    +0.145 HD
ATOM      4  C   UNL     1       6.741  -5.363  22.086  0.00  0.00    +0.218 A 
ATOM      5  N   UNL     1       7.639  -5.890  22.908  0.00  0.00    -0.178 NA
ATOM      6  C   UNL     1       8.284  -5.014  23.691  0.00  0.00    +0.245 A 
ATOM      7  C   UNL     1       8.083  -3.651  23.718  0.00  0.00    +0.170 A 
ATOM      8  N   UNL     1       8.798  -2.806  24.526  0.00  0.00    -0.240 NA
ATOM      9  C   UNL     1       8.491  -1.489  24.414  0.00  0.00    +0.077 A 
ATOM     10  C   UNL     1       7.479  -1.077  23.562  0.00  0.00    +0.138 A 
ATOM     11  N   UNL     1       6.784  -1.931  22.773  0.00  0.00    -0.232 NA
ATOM     12  C   UNL     1       7.086  -3.235  22.832  0.00  0.00    +0.187 A 
ATOM     13  N   UNL     1       6.423  -4.072  22.036  0.00  0.00    -0.193 NA
ENDROOT
BRANCH   6  14
ATOM     14  O   UNL     1       9.227  -5.567  24.526  0.00  0.00    -0.491 OA
ATOM     15  H   UNL     1       9.409  -6.451  24.153  0.00  0.00    +0.294 HD
ENDBRANCH   6  14
BRANCH   9  16
ATOM     16  C   UNL     1       9.263  -0.477  25.235  0.00  0.00    +0.158 C 
BRANCH  16  17
ATOM     17  N   UNL     1      10.177   0.282  24.384  0.00  0.00    -0.338 N 
ATOM     18  H   UNL     1      10.326  -0.191  23.492  0.00  0.00    +0.146 HD
BRANCH  17  19
ATOM     19  C   UNL     1       9.949   1.653  24.198  0.00  0.00    +0.027 A 
ATOM     20  C   UNL     1      10.963   2.429  23.617  0.00  0.00    +0.024 A 
ATOM     21  C   UNL     1      10.831   3.815  23.470  0.00  0.00    +0.017 A 
ATOM     22  C   UNL     1       9.684   4.463  23.929  0.00  0.00    +0.059 A 
ATOM     23  C   UNL     1       8.692   3.719  24.571  0.00  0.00    +0.017 A 
ATOM     24  C   UNL     1       8.831   2.328  24.705  0.00  0.00    +0.024 A 
BRANCH  22  25
ATOM     25  C   UNL     1       9.600   5.939  23.776  0.00  0.00    +0.337 C 
ATOM     26  O   UNL     1      10.163   6.716  24.527  0.00  0.00    -0.245 OA
BRANCH  25  27
ATOM     27  O   UNL     1       8.881   6.340  22.706  0.00  0.00    -0.477 OA
ATOM     28  H   UNL     1       9.052   5.848  21.883  0.00  0.00    +0.295 HD
ENDBRANCH  25  27
ENDBRANCH  22  25
ENDBRANCH  17  19
ENDBRANCH  16  17
ENDBRANCH   9  16
TORSDOF 6
ENDMDL
MODEL 8
REMARK VINA RESULT:      -6.7      3.390      8.618
REMARK  Name = 
REMARK  6 active torsions:
REMARK  status: ('A' for Active; 'I' for Inactive)
REMARK    1  A    between atoms: C_7  and  C_8
REMARK    2  A    between atoms: C_8  and  N_9
REMARK    3  A    between atoms: N_9  and  C_10
REMARK    4  A    between atoms: C_13  and  C_16
REMARK    5  A    between atoms: C_16  and  O_17
REMARK    6  A    between atoms: C_21  and  O_22
REMARK                            x       y       z     vdW  Elec       q    Type
REMARK                         _______ _______ _______ _____ _____    ______ ____
ROOT
ATOM      1  N   UNL     1       7.173   4.640  21.858  0.00  0.00    -0.327 N 
ATOM      2  H   UNL     1       6.600   5.158  22.511  0.00  0.00    +0.145 HD
ATOM      3  H   UNL     1       8.084   5.011  21.632  0.00  0.00    +0.145 HD
ATOM      4  C   UNL     1       7.251   3.313  22.217  0.00  0.00    +0.218 A 
ATOM      5  N   UNL     1       6.287   2.827  22.987  0.00  0.00    -0.178 NA
ATOM      6  C   UNL     1       6.391   1.524  23.283  0.00  0.00    +0.245 A 
ATOM      7  C   UNL     1       7.398   0.678  22.873  0.00  0.00    +0.170 A 
ATOM      8  N   UNL     1       7.430  -0.656  23.189  0.00  0.00    -0.240 NA
ATOM      9  C   UNL     1       8.480  -1.352  22.687  0.00  0.00    +0.077 A 
ATOM     10  C   UNL     1       9.460  -0.706  21.950  0.00  0.00    +0.138 A 
ATOM     11  N   UNL     1       9.408   0.615  21.651  0.00  0.00    -0.232 NA
ATOM     12  C   UNL     1       8.366   1.326  22.101  0.00  0.00    +0.187 A 
ATOM     13  N   UNL     1       8.299   2.617  21.784  0.00  0.00    -0.193 NA
ENDROOT
BRANCH   6  14
ATOM     14  O   UNL     1       5.376   1.024  24.066  0.00  0.00    -0.491 OA
ATOM     15  H   UNL     1       5.794   0.822  24.925  0.00  0.00    +0.294 HD
ENDBRANCH   6  14
BRANCH   9  16
ATOM     16  C   UNL     1       8.572  -2.841  22.946  0.00  0.00    +0.158 C 
BRANCH  16  17
ATOM     17  N   UNL     1       7.481  -3.546  22.276  0.00  0.00    -0.338 N 
ATOM     18  H   UNL     1       7.789  -3.932  21.383  0.00  0.00    +0.146 HD
BRANCH  17  19
ATOM     19  C   UNL     1       6.734  -4.485  23.002  0.00  0.00    +0.027 A 
ATOM     20  C   UNL     1       5.697  -5.167  22.348  0.00  0.00    +0.024 A 
ATOM     21  C   UNL     1       4.865  -6.062  23.031  0.00  0.00    +0.017 A 
ATOM     22  C   UNL     1       5.035  -6.274  24.399  0.00  0.00    +0.059 A 
ATOM     23  C   UNL     1       6.017  -5.553  25.083  0.00  0.00    +0.017 A 
ATOM     24  C   UNL     1       6.853  -4.666  24.386  0.00  0.00    +0.024 A 
BRANCH  22  25
ATOM     25  C   UNL     1       4.110  -7.212  25.087  0.00  0.00    +0.337 C 
ATOM     26  O   UNL     1       3.331  -7.931  24.488  0.00  0.00    -0.245 OA
BRANCH  25  27
ATOM     27  O   UNL     1       4.241  -7.226  26.431  0.00  0.00    -0.477 OA
ATOM     28  H   UNL     1       4.846  -6.556  26.796  0.00  0.00    +0.295 HD
ENDBRANCH  25  27
ENDBRANCH  22  25
ENDBRANCH  17  19
ENDBRANCH  16  17
ENDBRANCH   9  16
TORSDOF 6
ENDMDL
MODEL 9
REMARK VINA RESULT:      -6.7      1.788      2.368
REMARK  Name = 
REMARK  6 active torsions:
REMARK  status: ('A' for Active; 'I' for Inactive)
REMARK    1  A    between atoms: C_7  and  C_8
REMARK    2  A    between atoms: C_8  and  N_9
REMARK    3  A    between atoms: N_9  and  C_10
REMARK    4  A    between atoms: C_13  and  C_16
REMARK    5  A    between atoms: C_16  and  O_17
REMARK    6  A    between atoms: C_21  and  O_22
REMARK                            x       y       z     vdW  Elec       q    Type
REMARK                         _______ _______ _______ _____ _____    ______ ____
ROOT
ATOM      1  N   UNL     1       2.332  -7.506  23.150  0.00  0.00    -0.327 N 
ATOM      2  H   UNL     1       1.688  -7.880  23.833  0.00  0.00    +0.145 HD
ATOM      3  H   UNL     1       1.959  -6.910  22.425  0.00  0.00    +0.145 HD
ATOM      4  C   UNL     1       3.418  -6.923  23.764  0.00  0.00    +0.218 A 
ATOM      5  N   UNL     1       3.706  -7.311  25.000  0.00  0.00    -0.178 NA
ATOM      6  C   UNL     1       4.790  -6.738  25.542  0.00  0.00    +0.245 A 
ATOM      7  C   UNL     1       5.595  -5.796  24.940  0.00  0.00    +0.170 A 
ATOM      8  N   UNL     1       6.708  -5.269  25.543  0.00  0.00    -0.240 NA
ATOM      9  C   UNL     1       7.404  -4.369  24.805  0.00  0.00    +0.077 A 
ATOM     10  C   UNL     1       6.954  -3.999  23.547  0.00  0.00    +0.138 A 
ATOM     11  N   UNL     1       5.849  -4.533  22.971  0.00  0.00    -0.232 NA
ATOM     12  C   UNL     1       5.158  -5.452  23.659  0.00  0.00    +0.187 A 
ATOM     13  N   UNL     1       4.089  -5.997  23.083  0.00  0.00    -0.193 NA
ENDROOT
BRANCH   6  14
ATOM     14  O   UNL     1       5.092  -7.161  26.816  0.00  0.00    -0.491 OA
ATOM     15  H   UNL     1       4.636  -8.019  26.914  0.00  0.00    +0.294 HD
ENDBRANCH   6  14
BRANCH   9  16
ATOM     16  C   UNL     1       8.673  -3.770  25.371  0.00  0.00    +0.158 C 
BRANCH  16  17
ATOM     17  N   UNL     1       8.428  -2.413  25.855  0.00  0.00    -0.338 N 
ATOM     18  H   UNL     1       8.615  -2.341  26.855  0.00  0.00    +0.146 HD
BRANCH  17  19
ATOM     19  C   UNL     1       8.987  -1.333  25.157  0.00  0.00    +0.027 A 
ATOM     20  C   UNL     1       8.556  -0.036  25.472  0.00  0.00    +0.024 A 
ATOM     21  C   UNL     1       9.018   1.081  24.765  0.00  0.00    +0.017 A 
ATOM     22  C   UNL     1       9.905   0.919  23.700  0.00  0.00    +0.059 A 
ATOM     23  C   UNL     1      10.293  -0.369  23.326  0.00  0.00    +0.017 A 
ATOM     24  C   UNL     1       9.832  -1.481  24.049  0.00  0.00    +0.024 A 
BRANCH  22  25
ATOM     25  C   UNL     1      10.346   2.131  22.960  0.00  0.00    +0.337 C 
ATOM     26  O   UNL     1      11.010   3.014  23.473  0.00  0.00    -0.245 OA
BRANCH  25  27
ATOM     27  O   UNL     1       9.980   2.145  21.661  0.00  0.00    -0.477 OA
ATOM     28  H   UNL     1       9.271   2.774  21.436  0.00  0.00    +0.295 HD
ENDBRANCH  25  27
ENDBRANCH  22  25
ENDBRANCH  17  19
ENDBRANCH  16  17
ENDBRANCH   9  16
TORSDOF 6
ENDMDL
