MODEL 1
REMARK VINA RESULT:      -7.1      0.000      0.000
REMARK  Name = 
REMARK  9 active torsions:
REMARK  status: ('A' for Active; 'I' for Inactive)
REMARK    1  A    between atoms: C_2  and  O_3
REMARK    2  A    between atoms: C_2  and  C_4
REMARK    3  A    between atoms: C_2  and  C_6
REMARK    4  A    between atoms: C_4  and  O_5
REMARK    5  A    between atoms: C_6  and  O_7
REMARK    6  A    between atoms: O_7  and  N_8
REMARK    7  A    between atoms: C_9  and  C_11
REMARK    8  A    between atoms: C_18  and  N_19
REMARK    9  A    between atoms: N_19  and  C_20
REMARK                            x       y       z     vdW  Elec       q    Type
REMARK                         _______ _______ _______ _____ _____    ______ ____
ROOT
ATOM      1  C   UNL     1       6.599  -4.650  23.911  0.00  0.00    +0.063 A 
ATOM      2  C   UNL     1       7.794  -3.962  23.608  0.00  0.00    +0.082 A 
ATOM      3  C   UNL     1       8.846  -4.029  24.556  0.00  0.00    +0.180 A 
ATOM      4  F   UNL     1      10.010  -3.412  24.273  0.00  0.00    -0.201 F 
ATOM      5  C   UNL     1       8.733  -4.704  25.767  0.00  0.00    +0.160 A 
ATOM      6  F   UNL     1       9.764  -4.740  26.621  0.00  0.00    -0.202 F 
ATOM      7  C   UNL     1       7.545  -5.324  26.089  0.00  0.00    +0.042 A 
ATOM      8  C   UNL     1       6.492  -5.306  25.168  0.00  0.00    +0.018 A 
ENDROOT
BRANCH   1  11
ATOM      9  N   UNL     1       4.436  -5.762  23.475  0.00  0.00    -0.190 N 
ATOM     10  H   UNL     1       4.615  -6.465  24.180  0.00  0.00    +0.183 HD
ATOM     11  C   UNL     1       5.427  -4.927  23.007  0.00  0.00    +0.269 C 
ATOM     12  O   UNL     1       5.358  -4.324  21.937  0.00  0.00    -0.268 OA
BRANCH   9  13
ATOM     13  O   UNL     1       3.326  -5.971  22.600  0.00  0.00    -0.277 OA
BRANCH  13  14
ATOM     14  C   UNL     1       2.139  -6.141  23.387  0.00  0.00    +0.223 C 
BRANCH  14  15
ATOM     15  C   UNL     1       1.890  -7.594  23.832  0.00  0.00    +0.168 C 
BRANCH  15  16
ATOM     16  O   UNL     1       3.118  -8.278  24.109  0.00  0.00    -0.387 OA
ATOM     17  H   UNL     1       2.929  -8.847  24.880  0.00  0.00    +0.210 HD
ENDBRANCH  15  16
BRANCH  15  18
ATOM     18  C   UNL     1       1.076  -8.425  22.839  0.00  0.00    +0.189 C 
BRANCH  18  19
ATOM     19  O   UNL     1       1.693  -8.309  21.546  0.00  0.00    -0.392 OA
ATOM     20  H   UNL     1       1.992  -7.386  21.456  0.00  0.00    +0.210 HD
ENDBRANCH  18  19
ENDBRANCH  15  18
ENDBRANCH  14  15
ENDBRANCH  13  14
ENDBRANCH   9  13
ENDBRANCH   1  11
BRANCH   2  21
ATOM     21  N   UNL     1       8.058  -3.112  22.514  0.00  0.00    -0.310 N 
ATOM     22  H   UNL     1       8.136  -3.609  21.622  0.00  0.00    +0.152 HD
BRANCH  21  23
ATOM     23  C   UNL     1       8.265  -1.722  22.376  0.00  0.00    +0.050 A 
ATOM     24  C   UNL     1       7.547  -0.844  23.209  0.00  0.00    +0.063 A 
ATOM     25 CL   UNL     1       6.049  -1.339  23.919  0.00  0.00    -0.082 Cl
ATOM     26  C   UNL     1       8.059   0.409  23.523  0.00  0.00    +0.036 A 
ATOM     27  C   UNL     1       9.223   0.837  22.892  0.00  0.00    +0.015 A 
ATOM     28  I   UNL     1      10.160   2.573  23.533  0.00  0.00    -0.044 I 
ATOM     29  C   UNL     1       9.793   0.079  21.870  0.00  0.00    +0.016 A 
ATOM     30  C   UNL     1       9.315  -1.207  21.616  0.00  0.00    +0.026 A 
ENDBRANCH  21  23
ENDBRANCH   2  21
TORSDOF 9
ENDMDL
MODEL 2
REMARK VINA RESULT:      -7.0      4.595      6.385
REMARK  Name = 
REMARK  9 active torsions:
REMARK  status: ('A' for Active; 'I' for Inactive)
REMARK    1  A    between atoms: C_2  and  O_3
REMARK    2  A    between atoms: C_2  and  C_4
REMARK    3  A    between atoms: C_2  and  C_6
REMARK    4  A    between atoms: C_4  and  O_5
REMARK    5  A    between atoms: C_6  and  O_7
REMARK    6  A    between atoms: O_7  and  N_8
REMARK    7  A    between atoms: C_9  and  C_11
REMARK    8  A    between atoms: C_18  and  N_19
REMARK    9  A    between atoms: N_19  and  C_20
REMARK                            x       y       z     vdW  Elec       q    Type
REMARK                         _______ _______ _______ _____ _____    ______ ____
ROOT
ATOM      1  C   UNL     1       9.494  -0.436  23.631  0.00  0.00    +0.063 A 
ATOM      2  C   UNL     1       8.256   0.143  23.276  0.00  0.00    +0.082 A 
ATOM      3  C   UNL     1       8.177   1.559  23.258  0.00  0.00    +0.180 A 
ATOM      4  F   UNL     1       7.018   2.135  22.886  0.00  0.00    -0.201 F 
ATOM      5  C   UNL     1       9.242   2.382  23.607  0.00  0.00    +0.160 A 
ATOM      6  F   UNL     1       9.112   3.714  23.563  0.00  0.00    -0.202 F 
ATOM      7  C   UNL     1      10.432   1.816  24.012  0.00  0.00    +0.042 A 
ATOM      8  C   UNL     1      10.560   0.422  24.016  0.00  0.00    +0.018 A 
ENDROOT
BRANCH   1  11
ATOM      9  N   UNL     1       9.467  -2.755  24.483  0.00  0.00    -0.190 N 
ATOM     10  H   UNL     1       9.215  -2.447  25.414  0.00  0.00    +0.183 HD
ATOM     11  C   UNL     1       9.916  -1.877  23.520  0.00  0.00    +0.269 C 
ATOM     12  O   UNL     1      10.556  -2.226  22.530  0.00  0.00    -0.268 OA
BRANCH   9  13
ATOM     13  O   UNL     1       9.861  -4.119  24.323  0.00  0.00    -0.277 OA
BRANCH  13  14
ATOM     14  C   UNL     1       8.794  -4.966  24.769  0.00  0.00    +0.223 C 
BRANCH  14  15
ATOM     15  C   UNL     1       8.278  -4.628  26.180  0.00  0.00    +0.168 C 
BRANCH  15  16
ATOM     16  O   UNL     1       9.325  -4.702  27.155  0.00  0.00    -0.387 OA
ATOM     17  H   UNL     1       9.649  -5.623  27.118  0.00  0.00    +0.210 HD
ENDBRANCH  15  16
BRANCH  15  18
ATOM     18  C   UNL     1       7.108  -5.494  26.646  0.00  0.00    +0.189 C 
BRANCH  18  19
ATOM     19  O   UNL     1       7.486  -6.133  27.876  0.00  0.00    -0.392 OA
ATOM     20  H   UNL     1       7.813  -7.022  27.645  0.00  0.00    +0.210 HD
ENDBRANCH  18  19
ENDBRANCH  15  18
ENDBRANCH  14  15
ENDBRANCH  13  14
ENDBRANCH   9  13
ENDBRANCH   1  11
BRANCH   2  21
ATOM     21  N   UNL     1       7.029  -0.505  23.029  0.00  0.00    -0.310 N 
ATOM     22  H   UNL     1       6.351   0.081  22.535  0.00  0.00    +0.152 HD
BRANCH  21  23
ATOM     23  C   UNL     1       6.514  -1.784  23.334  0.00  0.00    +0.050 A 
ATOM     24  C   UNL     1       5.889  -1.983  24.579  0.00  0.00    +0.063 A 
ATOM     25 CL   UNL     1       6.262  -0.956  25.921  0.00  0.00    -0.082 Cl
ATOM     26  C   UNL     1       4.920  -2.967  24.735  0.00  0.00    +0.036 A 
ATOM     27  C   UNL     1       4.677  -3.843  23.681  0.00  0.00    +0.015 A 
ATOM     28  I   UNL     1       3.060  -5.138  23.775  0.00  0.00    -0.044 I 
ATOM     29  C   UNL     1       5.478  -3.817  22.540  0.00  0.00    +0.016 A 
ATOM     30  C   UNL     1       6.395  -2.781  22.366  0.00  0.00    +0.026 A 
ENDBRANCH  21  23
ENDBRANCH   2  21
TORSDOF 9
ENDMDL
MODEL 3
REMARK VINA RESULT:      -6.9      3.308      5.242
REMARK  Name = 
REMARK  9 active torsions:
REMARK  status: ('A' for Active; 'I' for Inactive)
REMARK    1  A    between atoms: C_2  and  O_3
REMARK    2  A    between atoms: C_2  and  C_4
REMARK    3  A    between atoms: C_2  and  C_6
REMARK    4  A    between atoms: C_4  and  O_5
REMARK    5  A    between atoms: C_6  and  O_7
REMARK    6  A    between atoms: O_7  and  N_8
REMARK    7  A    between atoms: C_9  and  C_11
REMARK    8  A    between atoms: C_18  and  N_19
REMARK    9  A    between atoms: N_19  and  C_20
REMARK                            x       y       z     vdW  Elec       q    Type
REMARK                         _______ _______ _______ _____ _____    ______ ____
ROOT
ATOM      1  C   UNL     1       8.412  -2.140  22.975  0.00  0.00    +0.063 A 
ATOM      2  C   UNL     1       8.809  -1.713  24.261  0.00  0.00    +0.082 A 
ATOM      3  C   UNL     1       9.627  -0.557  24.342  0.00  0.00    +0.180 A 
ATOM      4  F   UNL     1       9.988  -0.108  25.559  0.00  0.00    -0.201 F 
ATOM      5  C   UNL     1      10.074   0.136  23.222  0.00  0.00    +0.160 A 
ATOM      6  F   UNL     1      10.837   1.226  23.361  0.00  0.00    -0.202 F 
ATOM      7  C   UNL     1       9.735  -0.318  21.965  0.00  0.00    +0.042 A 
ATOM      8  C   UNL     1       8.905  -1.438  21.842  0.00  0.00    +0.018 A 
ENDROOT
BRANCH   1  11
ATOM      9  N   UNL     1       6.055  -2.836  22.715  0.00  0.00    -0.190 N 
ATOM     10  H   UNL     1       5.735  -2.111  23.344  0.00  0.00    +0.183 HD
ATOM     11  C   UNL     1       7.385  -3.182  22.615  0.00  0.00    +0.269 C 
ATOM     12  O   UNL     1       7.775  -4.255  22.158  0.00  0.00    -0.268 OA
BRANCH   9  13
ATOM     13  O   UNL     1       5.114  -3.841  22.332  0.00  0.00    -0.277 OA
BRANCH  13  14
ATOM     14  C   UNL     1       4.613  -4.483  23.512  0.00  0.00    +0.223 C 
BRANCH  14  15
ATOM     15  C   UNL     1       5.334  -5.798  23.859  0.00  0.00    +0.168 C 
BRANCH  15  16
ATOM     16  O   UNL     1       5.711  -6.520  22.679  0.00  0.00    -0.387 OA
ATOM     17  H   UNL     1       4.914  -6.525  22.114  0.00  0.00    +0.210 HD
ENDBRANCH  15  16
BRANCH  15  18
ATOM     18  C   UNL     1       4.538  -6.730  24.773  0.00  0.00    +0.189 C 
BRANCH  18  19
ATOM     19  O   UNL     1       3.791  -7.638  23.946  0.00  0.00    -0.392 OA
ATOM     20  H   UNL     1       4.314  -8.458  23.882  0.00  0.00    +0.210 HD
ENDBRANCH  18  19
ENDBRANCH  15  18
ENDBRANCH  14  15
ENDBRANCH  13  14
ENDBRANCH   9  13
ENDBRANCH   1  11
BRANCH   2  21
ATOM     21  N   UNL     1       8.586  -2.349  25.499  0.00  0.00    -0.310 N 
ATOM     22  H   UNL     1       9.249  -2.068  26.227  0.00  0.00    +0.152 HD
BRANCH  21  23
ATOM     23  C   UNL     1       7.661  -3.313  25.957  0.00  0.00    +0.050 A 
ATOM     24  C   UNL     1       8.097  -4.638  26.137  0.00  0.00    +0.063 A 
ATOM     25 CL   UNL     1       9.475  -5.233  25.276  0.00  0.00    -0.082 Cl
ATOM     26  C   UNL     1       7.467  -5.470  27.055  0.00  0.00    +0.036 A 
ATOM     27  C   UNL     1       6.313  -5.020  27.689  0.00  0.00    +0.015 A 
ATOM     28  I   UNL     1       5.507  -6.117  29.254  0.00  0.00    -0.044 I 
ATOM     29  C   UNL     1       5.728  -3.810  27.317  0.00  0.00    +0.016 A 
ATOM     30  C   UNL     1       6.408  -2.953  26.452  0.00  0.00    +0.026 A 
ENDBRANCH  21  23
ENDBRANCH   2  21
TORSDOF 9
ENDMDL
MODEL 4
REMARK VINA RESULT:      -6.7      3.484      4.360
REMARK  Name = 
REMARK  9 active torsions:
REMARK  status: ('A' for Active; 'I' for Inactive)
REMARK    1  A    between atoms: C_2  and  O_3
REMARK    2  A    between atoms: C_2  and  C_4
REMARK    3  A    between atoms: C_2  and  C_6
REMARK    4  A    between atoms: C_4  and  O_5
REMARK    5  A    between atoms: C_6  and  O_7
REMARK    6  A    between atoms: O_7  and  N_8
REMARK    7  A    between atoms: C_9  and  C_11
REMARK    8  A    between atoms: C_18  and  N_19
REMARK    9  A    between atoms: N_19  and  C_20
REMARK                            x       y       z     vdW  Elec       q    Type
REMARK                         _______ _______ _______ _____ _____    ______ ____
ROOT
ATOM      1  C   UNL     1       7.503  -4.762  24.731  0.00  0.00    +0.063 A 
ATOM      2  C   UNL     1       8.042  -3.759  23.896  0.00  0.00    +0.082 A 
ATOM      3  C   UNL     1       7.489  -3.622  22.597  0.00  0.00    +0.180 A 
ATOM      4  F   UNL     1       7.961  -2.649  21.795  0.00  0.00    -0.201 F 
ATOM      5  C   UNL     1       6.481  -4.448  22.112  0.00  0.00    +0.160 A 
ATOM      6  F   UNL     1       5.992  -4.267  20.879  0.00  0.00    -0.202 F 
ATOM      7  C   UNL     1       5.998  -5.466  22.906  0.00  0.00    +0.042 A 
ATOM      8  C   UNL     1       6.496  -5.616  24.205  0.00  0.00    +0.018 A 
ENDROOT
BRANCH   1  11
ATOM      9  N   UNL     1       6.909  -5.851  26.868  0.00  0.00    -0.190 N 
ATOM     10  H   UNL     1       5.969  -6.046  26.548  0.00  0.00    +0.183 HD
ATOM     11  C   UNL     1       7.742  -4.978  26.202  0.00  0.00    +0.269 C 
ATOM     12  O   UNL     1       8.721  -4.446  26.721  0.00  0.00    -0.268 OA
BRANCH   9  13
ATOM     13  O   UNL     1       7.190  -6.055  28.254  0.00  0.00    -0.277 OA
BRANCH  13  14
ATOM     14  C   UNL     1       6.042  -5.671  29.022  0.00  0.00    +0.223 C 
BRANCH  14  15
ATOM     15  C   UNL     1       4.839  -6.617  28.859  0.00  0.00    +0.168 C 
BRANCH  15  16
ATOM     16  O   UNL     1       5.231  -7.875  28.296  0.00  0.00    -0.387 OA
ATOM     17  H   UNL     1       4.432  -8.220  27.852  0.00  0.00    +0.210 HD
ENDBRANCH  15  16
BRANCH  15  18
ATOM     18  C   UNL     1       3.693  -6.040  28.027  0.00  0.00    +0.189 C 
BRANCH  18  19
ATOM     19  O   UNL     1       4.219  -4.977  27.216  0.00  0.00    -0.392 OA
ATOM     20  H   UNL     1       4.792  -5.390  26.544  0.00  0.00    +0.210 HD
ENDBRANCH  18  19
ENDBRANCH  15  18
ENDBRANCH  14  15
ENDBRANCH  13  14
ENDBRANCH   9  13
ENDBRANCH   1  11
BRANCH   2  21
ATOM     21  N   UNL     1       9.148  -2.921  24.142  0.00  0.00    -0.310 N 
ATOM     22  H   UNL     1      10.050  -3.388  24.011  0.00  0.00    +0.152 HD
BRANCH  21  23
ATOM     23  C   UNL     1       9.292  -1.579  24.556  0.00  0.00    +0.050 A 
ATOM     24  C   UNL     1       9.755  -0.629  23.627  0.00  0.00    +0.063 A 
ATOM     25 CL   UNL     1      10.694  -1.124  22.261  0.00  0.00    -0.082 Cl
ATOM     26  C   UNL     1       9.414   0.712  23.758  0.00  0.00    +0.036 A 
ATOM     27  C   UNL     1       8.726   1.123  24.895  0.00  0.00    +0.015 A 
ATOM     28  I   UNL     1       7.964   3.049  24.995  0.00  0.00    -0.044 I 
ATOM     29  C   UNL     1       8.496   0.232  25.943  0.00  0.00    +0.016 A 
ATOM     30  C   UNL     1       8.776  -1.123  25.769  0.00  0.00    +0.026 A 
ENDBRANCH  21  23
ENDBRANCH   2  21
TORSDOF 9
ENDMDL
MODEL 5
REMARK VINA RESULT:      -6.5      4.201      6.009
REMARK  Name = 
REMARK  9 active torsions:
REMARK  status: ('A' for Active; 'I' for Inactive)
REMARK    1  A    between atoms: C_2  and  O_3
REMARK    2  A    between atoms: C_2  and  C_4
REMARK    3  A    between atoms: C_2  and  C_6
REMARK    4  A    between atoms: C_4  and  O_5
REMARK    5  A    between atoms: C_6  and  O_7
REMARK    6  A    between atoms: O_7  and  N_8
REMARK    7  A    between atoms: C_9  and  C_11
REMARK    8  A    between atoms: C_18  and  N_19
REMARK    9  A    between atoms: N_19  and  C_20
REMARK                            x       y       z     vdW  Elec       q    Type
REMARK                         _______ _______ _______ _____ _____    ______ ____
ROOT
ATOM      1  C   UNL     1       8.748  -1.558  24.680  0.00  0.00    +0.063 A 
ATOM      2  C   UNL     1       8.606  -1.881  23.312  0.00  0.00    +0.082 A 
ATOM      3  C   UNL     1       9.187  -0.996  22.368  0.00  0.00    +0.180 A 
ATOM      4  F   UNL     1       9.098  -1.302  21.060  0.00  0.00    -0.201 F 
ATOM      5  C   UNL     1       9.845   0.174  22.731  0.00  0.00    +0.160 A 
ATOM      6  F   UNL     1      10.381   0.967  21.795  0.00  0.00    -0.202 F 
ATOM      7  C   UNL     1       9.930   0.519  24.062  0.00  0.00    +0.042 A 
ATOM      8  C   UNL     1       9.396  -0.341  25.028  0.00  0.00    +0.018 A 
ENDROOT
BRANCH   1  11
ATOM      9  N   UNL     1       8.895  -3.712  25.881  0.00  0.00    -0.190 N 
ATOM     10  H   UNL     1       9.084  -4.217  25.025  0.00  0.00    +0.183 HD
ATOM     11  C   UNL     1       8.431  -2.414  25.878  0.00  0.00    +0.269 C 
ATOM     12  O   UNL     1       7.861  -1.895  26.835  0.00  0.00    -0.268 OA
BRANCH   9  13
ATOM     13  O   UNL     1       8.603  -4.480  27.050  0.00  0.00    -0.277 OA
BRANCH  13  14
ATOM     14  C   UNL     1       7.709  -5.544  26.695  0.00  0.00    +0.223 C 
BRANCH  14  15
ATOM     15  C   UNL     1       6.339  -5.464  27.392  0.00  0.00    +0.168 C 
BRANCH  15  16
ATOM     16  O   UNL     1       5.964  -4.108  27.664  0.00  0.00    -0.387 OA
ATOM     17  H   UNL     1       5.792  -4.075  28.625  0.00  0.00    +0.210 HD
ENDBRANCH  15  16
BRANCH  15  18
ATOM     18  C   UNL     1       6.245  -6.270  28.689  0.00  0.00    +0.189 C 
BRANCH  18  19
ATOM     19  O   UNL     1       5.530  -7.485  28.410  0.00  0.00    -0.392 OA
ATOM     20  H   UNL     1       5.828  -8.146  29.062  0.00  0.00    +0.210 HD
ENDBRANCH  18  19
ENDBRANCH  15  18
ENDBRANCH  14  15
ENDBRANCH  13  14
ENDBRANCH   9  13
ENDBRANCH   1  11
BRANCH   2  21
ATOM     21  N   UNL     1       7.863  -2.931  22.737  0.00  0.00    -0.310 N 
ATOM     22  H   UNL     1       8.366  -3.428  21.997  0.00  0.00    +0.152 HD
BRANCH  21  23
ATOM     23  C   UNL     1       6.561  -3.439  22.937  0.00  0.00    +0.050 A 
ATOM     24  C   UNL     1       6.311  -4.795  22.656  0.00  0.00    +0.063 A 
ATOM     25 CL   UNL     1       7.319  -5.660  21.546  0.00  0.00    -0.082 Cl
ATOM     26  C   UNL     1       5.292  -5.476  23.310  0.00  0.00    +0.036 A 
ATOM     27  C   UNL     1       4.433  -4.764  24.141  0.00  0.00    +0.015 A 
ATOM     28  I   UNL     1       3.082  -5.786  25.338  0.00  0.00    -0.044 I 
ATOM     29  C   UNL     1       4.514  -3.375  24.218  0.00  0.00    +0.016 A 
ATOM     30  C   UNL     1       5.584  -2.712  23.617  0.00  0.00    +0.026 A 
ENDBRANCH  21  23
ENDBRANCH   2  21
TORSDOF 9
ENDMDL
MODEL 6
REMARK VINA RESULT:      -6.5      5.174      8.020
REMARK  Name = 
REMARK  9 active torsions:
REMARK  status: ('A' for Active; 'I' for Inactive)
REMARK    1  A    between atoms: C_2  and  O_3
REMARK    2  A    between atoms: C_2  and  C_4
REMARK    3  A    between atoms: C_2  and  C_6
REMARK    4  A    between atoms: C_4  and  O_5
REMARK    5  A    between atoms: C_6  and  O_7
REMARK    6  A    between atoms: O_7  and  N_8
REMARK    7  A    between atoms: C_9  and  C_11
REMARK    8  A    between atoms: C_18  and  N_19
REMARK    9  A    between atoms: N_19  and  C_20
REMARK                            x       y       z     vdW  Elec       q    Type
REMARK                         _______ _______ _______ _____ _____    ______ ____
ROOT
ATOM      1  C   UNL     1       8.878   0.011  24.951  0.00  0.00    +0.063 A 
ATOM      2  C   UNL     1       9.451  -0.849  23.988  0.00  0.00    +0.082 A 
ATOM      3  C   UNL     1      10.000  -0.254  22.824  0.00  0.00    +0.180 A 
ATOM      4  F   UNL     1      10.586  -1.050  21.909  0.00  0.00    -0.201 F 
ATOM      5  C   UNL     1       9.963   1.115  22.583  0.00  0.00    +0.160 A 
ATOM      6  F   UNL     1      10.506   1.622  21.469  0.00  0.00    -0.202 F 
ATOM      7  C   UNL     1       9.350   1.947  23.495  0.00  0.00    +0.042 A 
ATOM      8  C   UNL     1       8.821   1.403  24.671  0.00  0.00    +0.018 A 
ENDROOT
BRANCH   1  11
ATOM      9  N   UNL     1       7.916   0.697  27.120  0.00  0.00    -0.190 N 
ATOM     10  H   UNL     1       8.161   1.666  26.963  0.00  0.00    +0.183 HD
ATOM     11  C   UNL     1       8.431  -0.322  26.350  0.00  0.00    +0.269 C 
ATOM     12  O   UNL     1       8.454  -1.498  26.708  0.00  0.00    -0.268 OA
BRANCH   9  13
ATOM     13  O   UNL     1       7.472   0.334  28.429  0.00  0.00    -0.277 OA
BRANCH  13  14
ATOM     14  C   UNL     1       6.353   1.156  28.786  0.00  0.00    +0.223 C 
BRANCH  14  15
ATOM     15  C   UNL     1       6.738   2.593  29.182  0.00  0.00    +0.168 C 
BRANCH  15  16
ATOM     16  O   UNL     1       7.474   3.248  28.141  0.00  0.00    -0.387 OA
ATOM     17  H   UNL     1       7.510   2.605  27.406  0.00  0.00    +0.210 HD
ENDBRANCH  15  16
BRANCH  15  18
ATOM     18  C   UNL     1       7.533   2.695  30.485  0.00  0.00    +0.189 C 
BRANCH  18  19
ATOM     19  O   UNL     1       8.757   1.960  30.321  0.00  0.00    -0.392 OA
ATOM     20  H   UNL     1       8.615   1.081  30.717  0.00  0.00    +0.210 HD
ENDBRANCH  18  19
ENDBRANCH  15  18
ENDBRANCH  14  15
ENDBRANCH  13  14
ENDBRANCH   9  13
ENDBRANCH   1  11
BRANCH   2  21
ATOM     21  N   UNL     1       9.462  -2.259  23.974  0.00  0.00    -0.310 N 
ATOM     22  H   UNL     1      10.333  -2.663  24.328  0.00  0.00    +0.152 HD
BRANCH  21  23
ATOM     23  C   UNL     1       8.542  -3.245  23.556  0.00  0.00    +0.050 A 
ATOM     24  C   UNL     1       8.340  -4.374  24.371  0.00  0.00    +0.063 A 
ATOM     25 CL   UNL     1       9.561  -4.875  25.491  0.00  0.00    -0.082 Cl
ATOM     26  C   UNL     1       7.136  -5.065  24.336  0.00  0.00    +0.036 A 
ATOM     27  C   UNL     1       6.185  -4.711  23.383  0.00  0.00    +0.015 A 
ATOM     28  I   UNL     1       4.282  -5.530  23.477  0.00  0.00    -0.044 I 
ATOM     29  C   UNL     1       6.486  -3.768  22.401  0.00  0.00    +0.016 A 
ATOM     30  C   UNL     1       7.666  -3.030  22.492  0.00  0.00    +0.026 A 
ENDBRANCH  21  23
ENDBRANCH   2  21
TORSDOF 9
ENDMDL
MODEL 7
REMARK VINA RESULT:      -6.5      3.561      4.287
REMARK  Name = 
REMARK  9 active torsions:
REMARK  status: ('A' for Active; 'I' for Inactive)
REMARK    1  A    between atoms: C_2  and  O_3
REMARK    2  A    between atoms: C_2  and  C_4
REMARK    3  A    between atoms: C_2  and  C_6
REMARK    4  A    between atoms: C_4  and  O_5
REMARK    5  A    between atoms: C_6  and  O_7
REMARK    6  A    between atoms: O_7  and  N_8
REMARK    7  A    between atoms: C_9  and  C_11
REMARK    8  A    between atoms: C_18  and  N_19
REMARK    9  A    between atoms: N_19  and  C_20
REMARK                            x       y       z     vdW  Elec       q    Type
REMARK                         _______ _______ _______ _____ _____    ______ ____
ROOT
ATOM      1  C   UNL     1       7.279  -4.761  24.138  0.00  0.00    +0.063 A 
ATOM      2  C   UNL     1       6.468  -3.767  23.548  0.00  0.00    +0.082 A 
ATOM      3  C   UNL     1       6.059  -3.969  22.205  0.00  0.00    +0.180 A 
ATOM      4  F   UNL     1       5.254  -3.054  21.632  0.00  0.00    -0.201 F 
ATOM      5  C   UNL     1       6.451  -5.070  21.451  0.00  0.00    +0.160 A 
ATOM      6  F   UNL     1       6.026  -5.212  20.189  0.00  0.00    -0.202 F 
ATOM      7  C   UNL     1       7.292  -6.008  22.008  0.00  0.00    +0.042 A 
ATOM      8  C   UNL     1       7.695  -5.862  23.340  0.00  0.00    +0.018 A 
ENDROOT
BRANCH   1  11
ATOM      9  N   UNL     1       6.896  -5.733  26.377  0.00  0.00    -0.190 N 
ATOM     10  H   UNL     1       5.925  -5.925  26.166  0.00  0.00    +0.183 HD
ATOM     11  C   UNL     1       7.667  -4.910  25.586  0.00  0.00    +0.269 C 
ATOM     12  O   UNL     1       8.702  -4.371  25.973  0.00  0.00    -0.268 OA
BRANCH   9  13
ATOM     13  O   UNL     1       7.316  -5.874  27.735  0.00  0.00    -0.277 OA
BRANCH  13  14
ATOM     14  C   UNL     1       6.243  -5.473  28.598  0.00  0.00    +0.223 C 
BRANCH  14  15
ATOM     15  C   UNL     1       5.176  -6.561  28.812  0.00  0.00    +0.168 C 
BRANCH  15  16
ATOM     16  O   UNL     1       5.650  -7.851  28.405  0.00  0.00    -0.387 OA
ATOM     17  H   UNL     1       5.213  -8.030  27.550  0.00  0.00    +0.210 HD
ENDBRANCH  15  16
BRANCH  15  18
ATOM     18  C   UNL     1       3.845  -6.283  28.112  0.00  0.00    +0.189 C 
BRANCH  18  19
ATOM     19  O   UNL     1       4.111  -5.494  26.941  0.00  0.00    -0.392 OA
ATOM     20  H   UNL     1       3.579  -5.873  26.217  0.00  0.00    +0.210 HD
ENDBRANCH  18  19
ENDBRANCH  15  18
ENDBRANCH  14  15
ENDBRANCH  13  14
ENDBRANCH   9  13
ENDBRANCH   1  11
BRANCH   2  21
ATOM     21  N   UNL     1       6.082  -2.523  24.087  0.00  0.00    -0.310 N 
ATOM     22  H   UNL     1       5.160  -2.539  24.531  0.00  0.00    +0.152 HD
BRANCH  21  23
ATOM     23  C   UNL     1       6.677  -1.243  24.129  0.00  0.00    +0.050 A 
ATOM     24  C   UNL     1       7.353  -0.847  25.298  0.00  0.00    +0.063 A 
ATOM     25 CL   UNL     1       6.970  -1.576  26.820  0.00  0.00    -0.082 Cl
ATOM     26  C   UNL     1       8.379   0.087  25.239  0.00  0.00    +0.036 A 
ATOM     27  C   UNL     1       8.635   0.730  24.031  0.00  0.00    +0.015 A 
ATOM     28  I   UNL     1      10.323   1.919  23.838  0.00  0.00    -0.044 I 
ATOM     29  C   UNL     1       7.796   0.534  22.935  0.00  0.00    +0.016 A 
ATOM     30  C   UNL     1       6.818  -0.459  22.984  0.00  0.00    +0.026 A 
ENDBRANCH  21  23
ENDBRANCH   2  21
TORSDOF 9
ENDMDL
MODEL 8
REMARK VINA RESULT:      -6.4      4.171      7.387
REMARK  Name = 
REMARK  9 active torsions:
REMARK  status: ('A' for Active; 'I' for Inactive)
REMARK    1  A    between atoms: C_2  and  O_3
REMARK    2  A    between atoms: C_2  and  C_4
REMARK    3  A    between atoms: C_2  and  C_6
REMARK    4  A    between atoms: C_4  and  O_5
REMARK    5  A    between atoms: C_6  and  O_7
REMARK    6  A    between atoms: O_7  and  N_8
REMARK    7  A    between atoms: C_9  and  C_11
REMARK    8  A    between atoms: C_18  and  N_19
REMARK    9  A    between atoms: N_19  and  C_20
REMARK                            x       y       z     vdW  Elec       q    Type
REMARK                         _______ _______ _______ _____ _____    ______ ____
ROOT
ATOM      1  C   UNL     1       8.156  -3.638  24.315  0.00  0.00    +0.063 A 
ATOM      2  C   UNL     1       6.864  -3.789  24.867  0.00  0.00    +0.082 A 
ATOM      3  C   UNL     1       6.746  -4.555  26.055  0.00  0.00    +0.180 A 
ATOM      4  F   UNL     1       5.531  -4.682  26.621  0.00  0.00    -0.201 F 
ATOM      5  C   UNL     1       7.828  -5.181  26.663  0.00  0.00    +0.160 A 
ATOM      6  F   UNL     1       7.658  -5.885  27.788  0.00  0.00    -0.202 F 
ATOM      7  C   UNL     1       9.078  -5.084  26.089  0.00  0.00    +0.042 A 
ATOM      8  C   UNL     1       9.243  -4.313  24.934  0.00  0.00    +0.018 A 
ENDROOT
BRANCH   1  11
ATOM      9  N   UNL     1       9.839  -2.132  23.313  0.00  0.00    -0.190 N 
ATOM     10  H   UNL     1      10.289  -1.983  24.207  0.00  0.00    +0.183 HD
ATOM     11  C   UNL     1       8.595  -2.714  23.209  0.00  0.00    +0.269 C 
ATOM     12  O   UNL     1       7.871  -2.596  22.223  0.00  0.00    -0.268 OA
BRANCH   9  13
ATOM     13  O   UNL     1      10.232  -1.290  22.228  0.00  0.00    -0.277 OA
BRANCH  13  14
ATOM     14  C   UNL     1      10.229   0.073  22.672  0.00  0.00    +0.223 C 
BRANCH  14  15
ATOM     15  C   UNL     1       9.521   1.041  21.707  0.00  0.00    +0.168 C 
BRANCH  15  16
ATOM     16  O   UNL     1      10.244   2.272  21.571  0.00  0.00    -0.387 OA
ATOM     17  H   UNL     1      10.917   2.102  20.884  0.00  0.00    +0.210 HD
ENDBRANCH  15  16
BRANCH  15  18
ATOM     18  C   UNL     1       8.074   1.359  22.083  0.00  0.00    +0.189 C 
BRANCH  18  19
ATOM     19  O   UNL     1       7.489   0.176  22.652  0.00  0.00    -0.392 OA
ATOM     20  H   UNL     1       7.688  -0.560  22.045  0.00  0.00    +0.210 HD
ENDBRANCH  18  19
ENDBRANCH  15  18
ENDBRANCH  14  15
ENDBRANCH  13  14
ENDBRANCH   9  13
ENDBRANCH   1  11
BRANCH   2  21
ATOM     21  N   UNL     1       5.632  -3.359  24.333  0.00  0.00    -0.310 N 
ATOM     22  H   UNL     1       5.584  -2.348  24.181  0.00  0.00    +0.152 HD
BRANCH  21  23
ATOM     23  C   UNL     1       4.431  -4.013  23.983  0.00  0.00    +0.050 A 
ATOM     24  C   UNL     1       4.484  -5.088  23.076  0.00  0.00    +0.063 A 
ATOM     25 CL   UNL     1       5.799  -5.228  21.960  0.00  0.00    -0.082 Cl
ATOM     26  C   UNL     1       3.517  -6.085  23.104  0.00  0.00    +0.036 A 
ATOM     27  C   UNL     1       2.420  -5.933  23.946  0.00  0.00    +0.015 A 
ATOM     28  I   UNL     1       1.106  -7.516  24.216  0.00  0.00    -0.044 I 
ATOM     29  C   UNL     1       2.229  -4.746  24.652  0.00  0.00    +0.016 A 
ATOM     30  C   UNL     1       3.241  -3.787  24.673  0.00  0.00    +0.026 A 
ENDBRANCH  21  23
ENDBRANCH   2  21
TORSDOF 9
ENDMDL
MODEL 9
REMARK VINA RESULT:      -6.4      2.970      4.995
REMARK  Name = 
REMARK  9 active torsions:
REMARK  status: ('A' for Active; 'I' for Inactive)
REMARK    1  A    between atoms: C_2  and  O_3
REMARK    2  A    between atoms: C_2  and  C_4
REMARK    3  A    between atoms: C_2  and  C_6
REMARK    4  A    between atoms: C_4  and  O_5
REMARK    5  A    between atoms: C_6  and  O_7
REMARK    6  A    between atoms: O_7  and  N_8
REMARK    7  A    between atoms: C_9  and  C_11
REMARK    8  A    between atoms: C_18  and  N_19
REMARK    9  A    between atoms: N_19  and  C_20
REMARK                            x       y       z     vdW  Elec       q    Type
REMARK                         _______ _______ _______ _____ _____    ______ ____
ROOT
ATOM      1  C   UNL     1       8.502  -1.728  22.749  0.00  0.00    +0.063 A 
ATOM      2  C   UNL     1       9.158  -1.512  23.981  0.00  0.00    +0.082 A 
ATOM      3  C   UNL     1       9.932  -0.331  24.111  0.00  0.00    +0.180 A 
ATOM      4  F   UNL     1      10.537  -0.083  25.289  0.00  0.00    -0.201 F 
ATOM      5  C   UNL     1      10.096   0.585  23.077  0.00  0.00    +0.160 A 
ATOM      6  F   UNL     1      10.833   1.688  23.261  0.00  0.00    -0.202 F 
ATOM      7  C   UNL     1       9.505   0.342  21.856  0.00  0.00    +0.042 A 
ATOM      8  C   UNL     1       8.709  -0.797  21.696  0.00  0.00    +0.018 A 
ENDROOT
BRANCH   1  11
ATOM      9  N   UNL     1       6.155  -2.338  22.272  0.00  0.00    -0.190 N 
ATOM     10  H   UNL     1       5.809  -1.502  22.725  0.00  0.00    +0.183 HD
ATOM     11  C   UNL     1       7.458  -2.763  22.418  0.00  0.00    +0.269 C 
ATOM     12  O   UNL     1       7.825  -3.915  22.199  0.00  0.00    -0.268 OA
BRANCH   9  13
ATOM     13  O   UNL     1       5.202  -3.344  21.924  0.00  0.00    -0.277 OA
BRANCH  13  14
ATOM     14  C   UNL     1       4.800  -4.035  23.115  0.00  0.00    +0.223 C 
BRANCH  14  15
ATOM     15  C   UNL     1       4.861  -5.569  22.995  0.00  0.00    +0.168 C 
BRANCH  15  16
ATOM     16  O   UNL     1       5.486  -5.977  21.772  0.00  0.00    -0.387 OA
ATOM     17  H   UNL     1       5.299  -6.932  21.692  0.00  0.00    +0.210 HD
ENDBRANCH  15  16
BRANCH  15  18
ATOM     18  C   UNL     1       3.503  -6.262  23.110  0.00  0.00    +0.189 C 
BRANCH  18  19
ATOM     19  O   UNL     1       3.689  -7.497  23.822  0.00  0.00    -0.392 OA
ATOM     20  H   UNL     1       4.543  -7.430  24.287  0.00  0.00    +0.210 HD
ENDBRANCH  18  19
ENDBRANCH  15  18
ENDBRANCH  14  15
ENDBRANCH  13  14
ENDBRANCH   9  13
ENDBRANCH   1  11
BRANCH   2  21
ATOM     21  N   UNL     1       9.235  -2.376  25.092  0.00  0.00    -0.310 N 
ATOM     22  H   UNL     1      10.195  -2.608  25.362  0.00  0.00    +0.152 HD
BRANCH  21  23
ATOM     23  C   UNL     1       8.277  -3.019  25.907  0.00  0.00    +0.050 A 
ATOM     24  C   UNL     1       7.343  -2.231  26.604  0.00  0.00    +0.063 A 
ATOM     25 CL   UNL     1       7.695  -0.578  26.976  0.00  0.00    -0.082 Cl
ATOM     26  C   UNL     1       6.100  -2.748  26.950  0.00  0.00    +0.036 A 
ATOM     27  C   UNL     1       5.847  -4.097  26.722  0.00  0.00    +0.015 A 
ATOM     28  I   UNL     1       3.925  -4.837  26.970  0.00  0.00    -0.044 I 
ATOM     29  C   UNL     1       6.861  -4.941  26.273  0.00  0.00    +0.016 A 
ATOM     30  C   UNL     1       8.078  -4.398  25.860  0.00  0.00    +0.026 A 
ENDBRANCH  21  23
ENDBRANCH   2  21
TORSDOF 9
ENDMDL
