MODEL 1
REMARK VINA RESULT:      -6.2      0.000      0.000
REMARK  Name = 
REMARK  5 active torsions:
REMARK  status: ('A' for Active; 'I' for Inactive)
REMARK    1  A    between atoms: O_1  and  C_2
REMARK    2  A    between atoms: C_5  and  C_6
REMARK    3  A    between atoms: C_6  and  C_8
REMARK    4  A    between atoms: C_14  and  N_17
REMARK    5  A    between atoms: C_15  and  O_16
REMARK                            x       y       z     vdW  Elec       q    Type
REMARK                         _______ _______ _______ _____ _____    ______ ____
ROOT
ATOM      1  C   UNL     1       5.343  -6.012  23.396  0.00  0.00    +0.165 A 
ATOM      2  C   UNL     1       5.474  -5.638  24.737  0.00  0.00    +0.238 A 
ATOM      3  C   UNL     1       6.706  -5.138  25.183  0.00  0.00    +0.328 A 
ATOM      4  C   UNL     1       7.750  -4.881  24.289  0.00  0.00    +0.103 A 
ATOM      5  C   UNL     1       7.591  -5.268  22.947  0.00  0.00    +0.022 A 
ATOM      6  C   UNL     1       6.399  -5.851  22.505  0.00  0.00    +0.050 A 
ENDROOT
BRANCH   3   7
ATOM      7  N   UNL     1       6.920  -5.025  26.606  0.00  0.00    +0.084 N 
ATOM      8  O   UNL     1       6.456  -4.014  27.155  0.00  0.00    +0.042 OA
ATOM      9  O   UNL     1       7.506  -5.953  27.174  0.00  0.00    -0.576 OA
ENDBRANCH   3   7
BRANCH   1  10
ATOM     10  O   UNL     1       4.160  -6.546  22.968  0.00  0.00    -0.503 OA
ATOM     11  H   UNL     1       3.477  -5.856  22.946  0.00  0.00    +0.292 HD
ENDBRANCH   1  10
BRANCH   2  12
ATOM     12  O   UNL     1       4.385  -5.795  25.554  0.00  0.00    -0.499 OA
ATOM     13  H   UNL     1       4.604  -6.369  26.314  0.00  0.00    +0.293 HD
ENDBRANCH   2  12
BRANCH   4  14
ATOM     14  C   UNL     1       9.035  -4.231  24.643  0.00  0.00    +0.200 C 
ATOM     15  O   UNL     1       9.970  -4.965  24.949  0.00  0.00    -0.286 OA
BRANCH  14  16
ATOM     16  C   UNL     1       9.265  -2.758  24.552  0.00  0.00    +0.022 A 
ATOM     17  C   UNL     1       8.792  -1.958  25.602  0.00  0.00    +0.012 A 
ATOM     18  C   UNL     1       9.019  -0.580  25.606  0.00  0.00    +0.001 A 
ATOM     19  C   UNL     1       9.715   0.012  24.555  0.00  0.00    +0.000 A 
ATOM     20  C   UNL     1      10.188  -0.773  23.505  0.00  0.00    +0.001 A 
ATOM     21  C   UNL     1       9.980  -2.157  23.507  0.00  0.00    +0.012 A 
ENDBRANCH  14  16
ENDBRANCH   4  14
TORSDOF 5
ENDMDL
MODEL 2
REMARK VINA RESULT:      -6.2      2.351      3.551
REMARK  Name = 
REMARK  5 active torsions:
REMARK  status: ('A' for Active; 'I' for Inactive)
REMARK    1  A    between atoms: O_1  and  C_2
REMARK    2  A    between atoms: C_5  and  C_6
REMARK    3  A    between atoms: C_6  and  C_8
REMARK    4  A    between atoms: C_14  and  N_17
REMARK    5  A    between atoms: C_15  and  O_16
REMARK                            x       y       z     vdW  Elec       q    Type
REMARK                         _______ _______ _______ _____ _____    ______ ____
ROOT
ATOM      1  C   UNL     1       6.538  -4.252  27.322  0.00  0.00    +0.165 A 
ATOM      2  C   UNL     1       7.607  -4.762  26.578  0.00  0.00    +0.238 A 
ATOM      3  C   UNL     1       7.949  -4.139  25.369  0.00  0.00    +0.328 A 
ATOM      4  C   UNL     1       7.335  -2.948  24.968  0.00  0.00    +0.103 A 
ATOM      5  C   UNL     1       6.263  -2.458  25.735  0.00  0.00    +0.022 A 
ATOM      6  C   UNL     1       5.852  -3.119  26.897  0.00  0.00    +0.050 A 
ENDROOT
BRANCH   3   7
ATOM      7  N   UNL     1       8.850  -4.830  24.479  0.00  0.00    +0.084 N 
ATOM      8  O   UNL     1      10.057  -4.773  24.762  0.00  0.00    +0.042 OA
ATOM      9  O   UNL     1       8.358  -5.455  23.534  0.00  0.00    -0.576 OA
ENDBRANCH   3   7
BRANCH   1  10
ATOM     10  O   UNL     1       6.170  -4.885  28.475  0.00  0.00    -0.503 OA
ATOM     11  H   UNL     1       5.327  -5.349  28.341  0.00  0.00    +0.292 HD
ENDBRANCH   1  10
BRANCH   2  12
ATOM     12  O   UNL     1       8.259  -5.863  27.069  0.00  0.00    -0.499 OA
ATOM     13  H   UNL     1       8.935  -6.174  26.434  0.00  0.00    +0.293 HD
ENDBRANCH   2  12
BRANCH   4  14
ATOM     14  C   UNL     1       7.720  -2.147  23.782  0.00  0.00    +0.200 C 
ATOM     15  O   UNL     1       7.081  -2.331  22.750  0.00  0.00    -0.286 OA
BRANCH  14  16
ATOM     16  C   UNL     1       8.766  -1.081  23.812  0.00  0.00    +0.022 A 
ATOM     17  C   UNL     1       8.962  -0.329  22.645  0.00  0.00    +0.012 A 
ATOM     18  C   UNL     1       9.886   0.718  22.619  0.00  0.00    +0.001 A 
ATOM     19  C   UNL     1      10.628   1.016  23.759  0.00  0.00    +0.000 A 
ATOM     20  C   UNL     1      10.443   0.274  24.924  0.00  0.00    +0.001 A 
ATOM     21  C   UNL     1       9.504  -0.763  24.959  0.00  0.00    +0.012 A 
ENDBRANCH  14  16
ENDBRANCH   4  14
TORSDOF 5
ENDMDL
MODEL 3
REMARK VINA RESULT:      -6.2      3.346      6.031
REMARK  Name = 
REMARK  5 active torsions:
REMARK  status: ('A' for Active; 'I' for Inactive)
REMARK    1  A    between atoms: O_1  and  C_2
REMARK    2  A    between atoms: C_5  and  C_6
REMARK    3  A    between atoms: C_6  and  C_8
REMARK    4  A    between atoms: C_14  and  N_17
REMARK    5  A    between atoms: C_15  and  O_16
REMARK                            x       y       z     vdW  Elec       q    Type
REMARK                         _______ _______ _______ _____ _____    ______ ____
ROOT
ATOM      1  C   UNL     1       9.745   1.218  22.421  0.00  0.00    +0.165 A 
ATOM      2  C   UNL     1       9.465   0.948  23.764  0.00  0.00    +0.238 A 
ATOM      3  C   UNL     1       9.087  -0.352  24.129  0.00  0.00    +0.328 A 
ATOM      4  C   UNL     1       9.118  -1.402  23.206  0.00  0.00    +0.103 A 
ATOM      5  C   UNL     1       9.402  -1.102  21.862  0.00  0.00    +0.022 A 
ATOM      6  C   UNL     1       9.694   0.207  21.466  0.00  0.00    +0.050 A 
ENDROOT
BRANCH   3   7
ATOM      7  N   UNL     1       8.530  -0.555  25.445  0.00  0.00    +0.084 N 
ATOM      8  O   UNL     1       9.342  -0.658  26.378  0.00  0.00    +0.042 OA
ATOM      9  O   UNL     1       7.299  -0.569  25.552  0.00  0.00    -0.576 OA
ENDBRANCH   3   7
BRANCH   1  10
ATOM     10  O   UNL     1      10.067   2.494  22.053  0.00  0.00    -0.503 OA
ATOM     11  H   UNL     1       9.940   2.601  21.096  0.00  0.00    +0.292 HD
ENDBRANCH   1  10
BRANCH   2  12
ATOM     12  O   UNL     1       9.564   1.982  24.658  0.00  0.00    -0.499 OA
ATOM     13  H   UNL     1      10.331   1.852  25.250  0.00  0.00    +0.293 HD
ENDBRANCH   2  12
BRANCH   4  14
ATOM     14  C   UNL     1       8.867  -2.827  23.527  0.00  0.00    +0.200 C 
ATOM     15  O   UNL     1       9.741  -3.425  24.149  0.00  0.00    -0.286 OA
BRANCH  14  16
ATOM     16  C   UNL     1       7.585  -3.528  23.217  0.00  0.00    +0.022 A 
ATOM     17  C   UNL     1       7.582  -4.930  23.258  0.00  0.00    +0.012 A 
ATOM     18  C   UNL     1       6.405  -5.647  23.030  0.00  0.00    +0.001 A 
ATOM     19  C   UNL     1       5.222  -4.968  22.752  0.00  0.00    +0.000 A 
ATOM     20  C   UNL     1       5.213  -3.575  22.706  0.00  0.00    +0.001 A 
ATOM     21  C   UNL     1       6.386  -2.852  22.954  0.00  0.00    +0.012 A 
ENDBRANCH  14  16
ENDBRANCH   4  14
TORSDOF 5
ENDMDL
MODEL 4
REMARK VINA RESULT:      -6.1      1.900      5.285
REMARK  Name = 
REMARK  5 active torsions:
REMARK  status: ('A' for Active; 'I' for Inactive)
REMARK    1  A    between atoms: O_1  and  C_2
REMARK    2  A    between atoms: C_5  and  C_6
REMARK    3  A    between atoms: C_6  and  C_8
REMARK    4  A    between atoms: C_14  and  N_17
REMARK    5  A    between atoms: C_15  and  O_16
REMARK                            x       y       z     vdW  Elec       q    Type
REMARK                         _______ _______ _______ _____ _____    ______ ____
ROOT
ATOM      1  C   UNL     1       9.685  -0.391  25.023  0.00  0.00    +0.165 A 
ATOM      2  C   UNL     1       8.973  -1.087  26.004  0.00  0.00    +0.238 A 
ATOM      3  C   UNL     1       8.557  -2.400  25.737  0.00  0.00    +0.328 A 
ATOM      4  C   UNL     1       8.956  -3.063  24.572  0.00  0.00    +0.103 A 
ATOM      5  C   UNL     1       9.670  -2.338  23.602  0.00  0.00    +0.022 A 
ATOM      6  C   UNL     1      10.016  -1.000  23.816  0.00  0.00    +0.050 A 
ENDROOT
BRANCH   3   7
ATOM      7  N   UNL     1       7.592  -3.002  26.625  0.00  0.00    +0.084 N 
ATOM      8  O   UNL     1       6.474  -2.466  26.670  0.00  0.00    +0.042 OA
ATOM      9  O   UNL     1       7.932  -4.021  27.236  0.00  0.00    -0.576 OA
ENDBRANCH   3   7
BRANCH   1  10
ATOM     10  O   UNL     1      10.049   0.904  25.260  0.00  0.00    -0.503 OA
ATOM     11  H   UNL     1       9.266   1.429  25.492  0.00  0.00    +0.292 HD
ENDBRANCH   1  10
BRANCH   2  12
ATOM     12  O   UNL     1       8.707  -0.438  27.182  0.00  0.00    -0.499 OA
ATOM     13  H   UNL     1       8.642  -1.077  27.920  0.00  0.00    +0.293 HD
ENDBRANCH   2  12
BRANCH   4  14
ATOM     14  C   UNL     1       8.681  -4.487  24.265  0.00  0.00    +0.200 C 
ATOM     15  O   UNL     1       9.505  -5.313  24.649  0.00  0.00    -0.286 OA
BRANCH  14  16
ATOM     16  C   UNL     1       7.427  -4.960  23.608  0.00  0.00    +0.022 A 
ATOM     17  C   UNL     1       7.467  -5.205  22.227  0.00  0.00    +0.012 A 
ATOM     18  C   UNL     1       6.345  -5.698  21.559  0.00  0.00    +0.001 A 
ATOM     19  C   UNL     1       5.170  -5.945  22.263  0.00  0.00    +0.000 A 
ATOM     20  C   UNL     1       5.117  -5.704  23.635  0.00  0.00    +0.001 A 
ATOM     21  C   UNL     1       6.246  -5.228  24.312  0.00  0.00    +0.012 A 
ENDBRANCH  14  16
ENDBRANCH   4  14
TORSDOF 5
ENDMDL
MODEL 5
REMARK VINA RESULT:      -6.1      2.446      3.473
REMARK  Name = 
REMARK  5 active torsions:
REMARK  status: ('A' for Active; 'I' for Inactive)
REMARK    1  A    between atoms: O_1  and  C_2
REMARK    2  A    between atoms: C_5  and  C_6
REMARK    3  A    between atoms: C_6  and  C_8
REMARK    4  A    between atoms: C_14  and  N_17
REMARK    5  A    between atoms: C_15  and  O_16
REMARK                            x       y       z     vdW  Elec       q    Type
REMARK                         _______ _______ _______ _____ _____    ______ ____
ROOT
ATOM      1  C   UNL     1       8.132  -4.924  26.477  0.00  0.00    +0.165 A 
ATOM      2  C   UNL     1       7.111  -4.018  26.175  0.00  0.00    +0.238 A 
ATOM      3  C   UNL     1       7.331  -3.059  25.176  0.00  0.00    +0.328 A 
ATOM      4  C   UNL     1       8.488  -3.081  24.392  0.00  0.00    +0.103 A 
ATOM      5  C   UNL     1       9.499  -4.003  24.719  0.00  0.00    +0.022 A 
ATOM      6  C   UNL     1       9.331  -4.908  25.771  0.00  0.00    +0.050 A 
ENDROOT
BRANCH   3   7
ATOM      7  N   UNL     1       6.398  -1.962  25.068  0.00  0.00    +0.084 N 
ATOM      8  O   UNL     1       5.359  -2.183  24.426  0.00  0.00    +0.042 OA
ATOM      9  O   UNL     1       6.679  -0.910  25.652  0.00  0.00    -0.576 OA
ENDBRANCH   3   7
BRANCH   1  10
ATOM     10  O   UNL     1       7.941  -5.829  27.483  0.00  0.00    -0.503 OA
ATOM     11  H   UNL     1       8.300  -5.477  28.314  0.00  0.00    +0.292 HD
ENDBRANCH   1  10
BRANCH   2  12
ATOM     12  O   UNL     1       5.944  -4.109  26.888  0.00  0.00    -0.499 OA
ATOM     13  H   UNL     1       5.410  -4.868  26.578  0.00  0.00    +0.293 HD
ENDBRANCH   2  12
BRANCH   4  14
ATOM     14  C   UNL     1       8.749  -2.198  23.230  0.00  0.00    +0.200 C 
ATOM     15  O   UNL     1       8.310  -2.559  22.141  0.00  0.00    -0.286 OA
BRANCH  14  16
ATOM     16  C   UNL     1       9.423  -0.871  23.339  0.00  0.00    +0.022 A 
ATOM     17  C   UNL     1       9.418  -0.042  22.208  0.00  0.00    +0.012 A 
ATOM     18  C   UNL     1       9.985   1.234  22.257  0.00  0.00    +0.001 A 
ATOM     19  C   UNL     1      10.569   1.689  23.436  0.00  0.00    +0.000 A 
ATOM     20  C   UNL     1      10.582   0.873  24.566  0.00  0.00    +0.001 A 
ATOM     21  C   UNL     1       9.998  -0.398  24.527  0.00  0.00    +0.012 A 
ENDBRANCH  14  16
ENDBRANCH   4  14
TORSDOF 5
ENDMDL
MODEL 6
REMARK VINA RESULT:      -6.1      2.730      5.759
REMARK  Name = 
REMARK  5 active torsions:
REMARK  status: ('A' for Active; 'I' for Inactive)
REMARK    1  A    between atoms: O_1  and  C_2
REMARK    2  A    between atoms: C_5  and  C_6
REMARK    3  A    between atoms: C_6  and  C_8
REMARK    4  A    between atoms: C_14  and  N_17
REMARK    5  A    between atoms: C_15  and  O_16
REMARK                            x       y       z     vdW  Elec       q    Type
REMARK                         _______ _______ _______ _____ _____    ______ ____
ROOT
ATOM      1  C   UNL     1       8.463  -0.133  25.837  0.00  0.00    +0.165 A 
ATOM      2  C   UNL     1       8.685  -0.369  24.477  0.00  0.00    +0.238 A 
ATOM      3  C   UNL     1       8.889  -1.687  24.043  0.00  0.00    +0.328 A 
ATOM      4  C   UNL     1       8.739  -2.769  24.916  0.00  0.00    +0.103 A 
ATOM      5  C   UNL     1       8.517  -2.502  26.279  0.00  0.00    +0.022 A 
ATOM      6  C   UNL     1       8.400  -1.188  26.742  0.00  0.00    +0.050 A 
ENDROOT
BRANCH   3   7
ATOM      7  N   UNL     1       9.394  -1.893  22.707  0.00  0.00    +0.084 N 
ATOM      8  O   UNL     1       8.554  -1.900  21.794  0.00  0.00    +0.042 OA
ATOM      9  O   UNL     1      10.617  -2.005  22.567  0.00  0.00    -0.576 OA
ENDBRANCH   3   7
BRANCH   1  10
ATOM     10  O   UNL     1       8.312   1.154  26.272  0.00  0.00    -0.503 OA
ATOM     11  H   UNL     1       9.180   1.529  26.492  0.00  0.00    +0.292 HD
ENDBRANCH   1  10
BRANCH   2  12
ATOM     12  O   UNL     1       8.704   0.712  23.635  0.00  0.00    -0.499 OA
ATOM     13  H   UNL     1       8.496   0.439  22.720  0.00  0.00    +0.293 HD
ENDBRANCH   2  12
BRANCH   4  14
ATOM     14  C   UNL     1       8.802  -4.197  24.524  0.00  0.00    +0.200 C 
ATOM     15  O   UNL     1       9.846  -4.799  24.759  0.00  0.00    -0.286 OA
BRANCH  14  16
ATOM     16  C   UNL     1       7.642  -4.946  23.954  0.00  0.00    +0.022 A 
ATOM     17  C   UNL     1       6.524  -5.141  24.778  0.00  0.00    +0.012 A 
ATOM     18  C   UNL     1       5.386  -5.788  24.293  0.00  0.00    +0.001 A 
ATOM     19  C   UNL     1       5.357  -6.252  22.980  0.00  0.00    +0.000 A 
ATOM     20  C   UNL     1       6.463  -6.065  22.153  0.00  0.00    +0.001 A 
ATOM     21  C   UNL     1       7.599  -5.400  22.629  0.00  0.00    +0.012 A 
ENDBRANCH  14  16
ENDBRANCH   4  14
TORSDOF 5
ENDMDL
MODEL 7
REMARK VINA RESULT:      -6.0      2.041      3.173
REMARK  Name = 
REMARK  5 active torsions:
REMARK  status: ('A' for Active; 'I' for Inactive)
REMARK    1  A    between atoms: O_1  and  C_2
REMARK    2  A    between atoms: C_5  and  C_6
REMARK    3  A    between atoms: C_6  and  C_8
REMARK    4  A    between atoms: C_14  and  N_17
REMARK    5  A    between atoms: C_15  and  O_16
REMARK                            x       y       z     vdW  Elec       q    Type
REMARK                         _______ _______ _______ _____ _____    ______ ____
ROOT
ATOM      1  C   UNL     1       4.607  -6.760  25.878  0.00  0.00    +0.165 A 
ATOM      2  C   UNL     1       4.791  -6.760  24.492  0.00  0.00    +0.238 A 
ATOM      3  C   UNL     1       5.823  -5.984  23.945  0.00  0.00    +0.328 A 
ATOM      4  C   UNL     1       6.746  -5.326  24.763  0.00  0.00    +0.103 A 
ATOM      5  C   UNL     1       6.537  -5.341  26.154  0.00  0.00    +0.022 A 
ATOM      6  C   UNL     1       5.459  -6.038  26.709  0.00  0.00    +0.050 A 
ENDROOT
BRANCH   3   7
ATOM      7  N   UNL     1       5.827  -5.765  22.519  0.00  0.00    +0.084 N 
ATOM      8  O   UNL     1       6.677  -6.392  21.867  0.00  0.00    +0.042 OA
ATOM      9  O   UNL     1       4.967  -5.011  22.051  0.00  0.00    -0.576 OA
ENDBRANCH   3   7
BRANCH   1  10
ATOM     10  O   UNL     1       3.573  -7.476  26.412  0.00  0.00    -0.503 OA
ATOM     11  H   UNL     1       2.738  -7.002  26.268  0.00  0.00    +0.292 HD
ENDBRANCH   1  10
BRANCH   2  12
ATOM     12  O   UNL     1       3.935  -7.517  23.735  0.00  0.00    -0.499 OA
ATOM     13  H   UNL     1       3.387  -6.946  23.160  0.00  0.00    +0.293 HD
ENDBRANCH   2  12
BRANCH   4  14
ATOM     14  C   UNL     1       7.943  -4.596  24.283  0.00  0.00    +0.200 C 
ATOM     15  O   UNL     1       8.968  -5.250  24.110  0.00  0.00    -0.286 OA
BRANCH  14  16
ATOM     16  C   UNL     1       7.933  -3.149  23.915  0.00  0.00    +0.022 A 
ATOM     17  C   UNL     1       9.168  -2.526  23.684  0.00  0.00    +0.012 A 
ATOM     18  C   UNL     1       9.229  -1.189  23.286  0.00  0.00    +0.001 A 
ATOM     19  C   UNL     1       8.054  -0.460  23.123  0.00  0.00    +0.000 A 
ATOM     20  C   UNL     1       6.821  -1.067  23.352  0.00  0.00    +0.001 A 
ATOM     21  C   UNL     1       6.755  -2.412  23.732  0.00  0.00    +0.012 A 
ENDBRANCH  14  16
ENDBRANCH   4  14
TORSDOF 5
ENDMDL
MODEL 8
REMARK VINA RESULT:      -6.0      2.042      2.528
REMARK  Name = 
REMARK  5 active torsions:
REMARK  status: ('A' for Active; 'I' for Inactive)
REMARK    1  A    between atoms: O_1  and  C_2
REMARK    2  A    between atoms: C_5  and  C_6
REMARK    3  A    between atoms: C_6  and  C_8
REMARK    4  A    between atoms: C_14  and  N_17
REMARK    5  A    between atoms: C_15  and  O_16
REMARK                            x       y       z     vdW  Elec       q    Type
REMARK                         _______ _______ _______ _____ _____    ______ ____
ROOT
ATOM      1  C   UNL     1       5.405  -3.794  23.066  0.00  0.00    +0.165 A 
ATOM      2  C   UNL     1       5.751  -3.298  24.327  0.00  0.00    +0.238 A 
ATOM      3  C   UNL     1       7.064  -2.856  24.544  0.00  0.00    +0.328 A 
ATOM      4  C   UNL     1       7.985  -2.776  23.495  0.00  0.00    +0.103 A 
ATOM      5  C   UNL     1       7.611  -3.282  22.238  0.00  0.00    +0.022 A 
ATOM      6  C   UNL     1       6.332  -3.809  22.028  0.00  0.00    +0.050 A 
ENDROOT
BRANCH   3   7
ATOM      7  N   UNL     1       7.485  -2.618  25.904  0.00  0.00    +0.084 N 
ATOM      8  O   UNL     1       8.127  -3.528  26.451  0.00  0.00    +0.042 OA
ATOM      9  O   UNL     1       7.216  -1.520  26.405  0.00  0.00    -0.576 OA
ENDBRANCH   3   7
BRANCH   1  10
ATOM     10  O   UNL     1       4.141  -4.271  22.863  0.00  0.00    -0.503 OA
ATOM     11  H   UNL     1       4.134  -5.237  22.967  0.00  0.00    +0.292 HD
ENDBRANCH   1  10
BRANCH   2  12
ATOM     12  O   UNL     1       4.781  -3.283  25.295  0.00  0.00    -0.499 OA
ATOM     13  H   UNL     1       5.051  -3.827  26.061  0.00  0.00    +0.293 HD
ENDBRANCH   2  12
BRANCH   4  14
ATOM     14  C   UNL     1       9.346  -2.198  23.598  0.00  0.00    +0.200 C 
ATOM     15  O   UNL     1      10.273  -2.979  23.797  0.00  0.00    -0.286 OA
BRANCH  14  16
ATOM     16  C   UNL     1       9.646  -0.752  23.379  0.00  0.00    +0.022 A 
ATOM     17  C   UNL     1      10.035   0.008  24.491  0.00  0.00    +0.012 A 
ATOM     18  C   UNL     1      10.381   1.354  24.348  0.00  0.00    +0.001 A 
ATOM     19  C   UNL     1      10.333   1.953  23.092  0.00  0.00    +0.000 A 
ATOM     20  C   UNL     1       9.945   1.208  21.980  0.00  0.00    +0.001 A 
ATOM     21  C   UNL     1       9.617  -0.146  22.116  0.00  0.00    +0.012 A 
ENDBRANCH  14  16
ENDBRANCH   4  14
TORSDOF 5
ENDMDL
MODEL 9
REMARK VINA RESULT:      -5.8      2.518      4.127
REMARK  Name = 
REMARK  5 active torsions:
REMARK  status: ('A' for Active; 'I' for Inactive)
REMARK    1  A    between atoms: O_1  and  C_2
REMARK    2  A    between atoms: C_5  and  C_6
REMARK    3  A    between atoms: C_6  and  C_8
REMARK    4  A    between atoms: C_14  and  N_17
REMARK    5  A    between atoms: C_15  and  O_16
REMARK                            x       y       z     vdW  Elec       q    Type
REMARK                         _______ _______ _______ _____ _____    ______ ____
ROOT
ATOM      1  C   UNL     1       8.040  -4.704  25.915  0.00  0.00    +0.165 A 
ATOM      2  C   UNL     1       8.215  -4.448  24.551  0.00  0.00    +0.238 A 
ATOM      3  C   UNL     1       7.888  -3.179  24.053  0.00  0.00    +0.328 A 
ATOM      4  C   UNL     1       7.524  -2.135  24.910  0.00  0.00    +0.103 A 
ATOM      5  C   UNL     1       7.355  -2.421  26.277  0.00  0.00    +0.022 A 
ATOM      6  C   UNL     1       7.592  -3.706  26.775  0.00  0.00    +0.050 A 
ENDROOT
BRANCH   3   7
ATOM      7  N   UNL     1       7.799  -3.011  22.622  0.00  0.00    +0.084 N 
ATOM      8  O   UNL     1       8.717  -2.373  22.083  0.00  0.00    +0.042 OA
ATOM      9  O   UNL     1       6.849  -3.545  22.040  0.00  0.00    -0.576 OA
ENDBRANCH   3   7
BRANCH   1  10
ATOM     10  O   UNL     1       8.311  -5.954  26.396  0.00  0.00    -0.503 OA
ATOM     11  H   UNL     1       9.056  -5.912  27.017  0.00  0.00    +0.292 HD
ENDBRANCH   1  10
BRANCH   2  12
ATOM     12  O   UNL     1       8.689  -5.466  23.766  0.00  0.00    -0.499 OA
ATOM     13  H   UNL     1       9.656  -5.385  23.644  0.00  0.00    +0.293 HD
ENDBRANCH   2  12
BRANCH   4  14
ATOM     14  C   UNL     1       7.292  -0.732  24.494  0.00  0.00    +0.200 C 
ATOM     15  O   UNL     1       6.126  -0.357  24.409  0.00  0.00    -0.286 OA
BRANCH  14  16
ATOM     16  C   UNL     1       8.391   0.254  24.272  0.00  0.00    +0.022 A 
ATOM     17  C   UNL     1       9.649  -0.038  24.818  0.00  0.00    +0.012 A 
ATOM     18  C   UNL     1      10.735   0.814  24.604  0.00  0.00    +0.001 A 
ATOM     19  C   UNL     1      10.569   1.971  23.848  0.00  0.00    +0.000 A 
ATOM     20  C   UNL     1       9.323   2.273  23.301  0.00  0.00    +0.001 A 
ATOM     21  C   UNL     1       8.238   1.411  23.497  0.00  0.00    +0.012 A 
ENDBRANCH  14  16
ENDBRANCH   4  14
TORSDOF 5
ENDMDL
