MODEL 1
REMARK VINA RESULT:      -6.0      0.000      0.000
REMARK  Name = 
REMARK  8 active torsions:
REMARK  status: ('A' for Active; 'I' for Inactive)
REMARK    1  A    between atoms: N_1  and  CA_2
REMARK    2  A    between atoms: CA_2  and  C_4
REMARK    3  A    between atoms: CA_2  and  C_23
REMARK    4  A    between atoms: C_4  and  C_5
REMARK    5  A    between atoms: C_9  and  O_10
REMARK    6  A    between atoms: O_10  and  C_11
REMARK    7  A    between atoms: C_15  and  O_16
REMARK    8  A    between atoms: C_23  and  O_24
REMARK                            x       y       z     vdW  Elec       q    Type
REMARK                         _______ _______ _______ _____ _____    ______ ____
ROOT
ATOM      1  C   UNL     1       8.763  -2.056  25.856  0.00  0.00    -0.043 A 
ATOM      2  C   UNL     1       9.205  -1.771  24.554  0.00  0.00    +0.021 A 
ATOM      3  C   UNL     1       8.876  -0.557  23.919  0.00  0.00    +0.057 A 
ATOM      4  I   UNL     1       9.499  -0.417  21.913  0.00  0.00    -0.040 I 
ATOM      5  C   UNL     1       8.115   0.411  24.591  0.00  0.00    +0.155 A 
ATOM      6  C   UNL     1       7.691   0.126  25.906  0.00  0.00    +0.057 A 
ATOM      7  I   UNL     1       6.490   1.464  27.002  0.00  0.00    -0.040 I 
ATOM      8  C   UNL     1       8.012  -1.088  26.533  0.00  0.00    +0.021 A 
ENDROOT
BRANCH   1   9
ATOM      9  C   UNL     1       9.092  -3.384  26.500  0.00  0.00    +0.065 C 
BRANCH   9  10
ATOM     10  CA  UNL     1       8.196  -4.562  26.072  0.00  0.00    +0.165 C 
BRANCH  10  11
ATOM     11  N   UNL     1       7.963  -5.568  27.159  0.00  0.00    -0.318 NA
ATOM     12  H1  UNL     1       7.005  -5.923  27.075  0.00  0.00    +0.119 HD
ATOM     13  H2  UNL     1       8.548  -6.384  26.949  0.00  0.00    +0.119 HD
ENDBRANCH  10  11
BRANCH  10  14
ATOM     14  C   UNL     1       8.867  -5.285  24.890  0.00  0.00    +0.322 C 
ATOM     15  OXT UNL     1       8.474  -5.262  23.731  0.00  0.00    -0.249 OA
BRANCH  14  16
ATOM     16  O   UNL     1       9.971  -5.972  25.286  0.00  0.00    -0.480 OA
ATOM     17  H   UNL     1      10.594  -5.291  25.646  0.00  0.00    +0.295 HD
ENDBRANCH  14  16
ENDBRANCH  10  14
ENDBRANCH   9  10
ENDBRANCH   1   9
BRANCH   5  18
ATOM     18  O   UNL     1       7.523   1.496  23.990  0.00  0.00    -0.454 OA
BRANCH  18  19
ATOM     19  C   UNL     1       8.098   2.740  23.921  0.00  0.00    +0.131 A 
ATOM     20  C   UNL     1       9.455   3.038  23.829  0.00  0.00    +0.064 A 
ATOM     21  C   UNL     1       9.861   4.375  23.688  0.00  0.00    +0.059 A 
ATOM     22  I   UNL     1      11.901   4.755  23.386  0.00  0.00    -0.040 I 
ATOM     23  C   UNL     1       8.922   5.415  23.705  0.00  0.00    +0.143 A 
ATOM     24  C   UNL     1       7.568   5.110  23.852  0.00  0.00    +0.059 A 
ATOM     25  I   UNL     1       6.104   6.603  23.897  0.00  0.00    -0.040 I 
ATOM     26  C   UNL     1       7.159   3.782  23.957  0.00  0.00    +0.064 A 
BRANCH  23  27
ATOM     27  O   UNL     1       9.340   6.714  23.586  0.00  0.00    -0.505 OA
ATOM     28  H   UNL     1       9.869   6.789  22.770  0.00  0.00    +0.292 HD
ENDBRANCH  23  27
ENDBRANCH  18  19
ENDBRANCH   5  18
TORSDOF 8
ENDMDL
MODEL 2
REMARK VINA RESULT:      -5.8      1.919      3.293
REMARK  Name = 
REMARK  8 active torsions:
REMARK  status: ('A' for Active; 'I' for Inactive)
REMARK    1  A    between atoms: N_1  and  CA_2
REMARK    2  A    between atoms: CA_2  and  C_4
REMARK    3  A    between atoms: CA_2  and  C_23
REMARK    4  A    between atoms: C_4  and  C_5
REMARK    5  A    between atoms: C_9  and  O_10
REMARK    6  A    between atoms: O_10  and  C_11
REMARK    7  A    between atoms: C_15  and  O_16
REMARK    8  A    between atoms: C_23  and  O_24
REMARK                            x       y       z     vdW  Elec       q    Type
REMARK                         _______ _______ _______ _____ _____    ______ ____
ROOT
ATOM      1  C   UNL     1       8.236  -2.346  24.464  0.00  0.00    -0.043 A 
ATOM      2  C   UNL     1       7.644  -1.732  25.580  0.00  0.00    +0.021 A 
ATOM      3  C   UNL     1       7.662  -0.332  25.738  0.00  0.00    +0.057 A 
ATOM      4  I   UNL     1       6.869   0.357  27.562  0.00  0.00    -0.040 I 
ATOM      5  C   UNL     1       8.254   0.485  24.763  0.00  0.00    +0.155 A 
ATOM      6  C   UNL     1       8.829  -0.139  23.636  0.00  0.00    +0.057 A 
ATOM      7  I   UNL     1       9.806   0.965  22.131  0.00  0.00    -0.040 I 
ATOM      8  C   UNL     1       8.818  -1.534  23.485  0.00  0.00    +0.021 A 
ENDROOT
BRANCH   1   9
ATOM      9  C   UNL     1       8.243  -3.853  24.338  0.00  0.00    +0.065 C 
BRANCH   9  10
ATOM     10  CA  UNL     1       8.783  -4.613  25.566  0.00  0.00    +0.165 C 
BRANCH  10  11
ATOM     11  N   UNL     1       9.825  -5.637  25.230  0.00  0.00    -0.318 NA
ATOM     12  H1  UNL     1       9.570  -6.521  25.681  0.00  0.00    +0.119 HD
ATOM     13  H2  UNL     1       9.741  -5.839  24.227  0.00  0.00    +0.119 HD
ENDBRANCH  10  11
BRANCH  10  14
ATOM     14  C   UNL     1       7.609  -5.335  26.252  0.00  0.00    +0.322 C 
ATOM     15  OXT UNL     1       6.491  -5.479  25.774  0.00  0.00    -0.249 OA
BRANCH  14  16
ATOM     16  O   UNL     1       7.959  -5.805  27.478  0.00  0.00    -0.480 OA
ATOM     17  H   UNL     1       7.196  -6.362  27.779  0.00  0.00    +0.295 HD
ENDBRANCH  14  16
ENDBRANCH  10  14
ENDBRANCH   9  10
ENDBRANCH   1   9
BRANCH   5  18
ATOM     18  O   UNL     1       8.557   1.814  24.935  0.00  0.00    -0.454 OA
BRANCH  18  19
ATOM     19  C   UNL     1       7.757   2.843  24.505  0.00  0.00    +0.131 A 
ATOM     20  C   UNL     1       6.491   2.745  23.935  0.00  0.00    +0.064 A 
ATOM     21  C   UNL     1       5.780   3.916  23.624  0.00  0.00    +0.059 A 
ATOM     22  I   UNL     1       3.814   3.715  22.922  0.00  0.00    -0.040 I 
ATOM     23  C   UNL     1       6.356   5.179  23.823  0.00  0.00    +0.143 A 
ATOM     24  C   UNL     1       7.647   5.265  24.345  0.00  0.00    +0.059 A 
ATOM     25  I   UNL     1       8.582   7.108  24.662  0.00  0.00    -0.040 I 
ATOM     26  C   UNL     1       8.341   4.106  24.686  0.00  0.00    +0.064 A 
BRANCH  23  27
ATOM     27  O   UNL     1       5.654   6.308  23.495  0.00  0.00    -0.505 OA
ATOM     28  H   UNL     1       5.653   6.900  24.270  0.00  0.00    +0.292 HD
ENDBRANCH  23  27
ENDBRANCH  18  19
ENDBRANCH   5  18
TORSDOF 8
ENDMDL
MODEL 3
REMARK VINA RESULT:      -5.8      2.254      3.778
REMARK  Name = 
REMARK  8 active torsions:
REMARK  status: ('A' for Active; 'I' for Inactive)
REMARK    1  A    between atoms: N_1  and  CA_2
REMARK    2  A    between atoms: CA_2  and  C_4
REMARK    3  A    between atoms: CA_2  and  C_23
REMARK    4  A    between atoms: C_4  and  C_5
REMARK    5  A    between atoms: C_9  and  O_10
REMARK    6  A    between atoms: O_10  and  C_11
REMARK    7  A    between atoms: C_15  and  O_16
REMARK    8  A    between atoms: C_23  and  O_24
REMARK                            x       y       z     vdW  Elec       q    Type
REMARK                         _______ _______ _______ _____ _____    ______ ____
ROOT
ATOM      1  C   UNL     1       6.771  -2.719  24.281  0.00  0.00    -0.043 A 
ATOM      2  C   UNL     1       6.587  -1.879  25.392  0.00  0.00    +0.021 A 
ATOM      3  C   UNL     1       7.292  -0.666  25.516  0.00  0.00    +0.057 A 
ATOM      4  I   UNL     1       6.989   0.345  27.338  0.00  0.00    -0.040 I 
ATOM      5  C   UNL     1       8.180  -0.255  24.510  0.00  0.00    +0.155 A 
ATOM      6  C   UNL     1       8.344  -1.095  23.388  0.00  0.00    +0.057 A 
ATOM      7  I   UNL     1       9.693  -0.629  21.840  0.00  0.00    -0.040 I 
ATOM      8  C   UNL     1       7.648  -2.307  23.272  0.00  0.00    +0.021 A 
ENDROOT
BRANCH   1   9
ATOM      9  C   UNL     1       6.036  -4.037  24.192  0.00  0.00    +0.065 C 
BRANCH   9  10
ATOM     10  CA  UNL     1       5.502  -4.398  22.791  0.00  0.00    +0.165 C 
BRANCH  10  11
ATOM     11  N   UNL     1       4.055  -4.786  22.780  0.00  0.00    -0.318 NA
ATOM     12  H1  UNL     1       3.501  -3.972  22.494  0.00  0.00    +0.119 HD
ATOM     13  H2  UNL     1       3.924  -5.454  22.011  0.00  0.00    +0.119 HD
ENDBRANCH  10  11
BRANCH  10  14
ATOM     14  C   UNL     1       6.318  -5.585  22.247  0.00  0.00    +0.322 C 
ATOM     15  OXT UNL     1       7.482  -5.835  22.535  0.00  0.00    -0.249 OA
BRANCH  14  16
ATOM     16  O   UNL     1       5.587  -6.342  21.388  0.00  0.00    -0.480 OA
ATOM     17  H   UNL     1       4.979  -5.710  20.925  0.00  0.00    +0.295 HD
ENDBRANCH  14  16
ENDBRANCH  10  14
ENDBRANCH   9  10
ENDBRANCH   1   9
BRANCH   5  18
ATOM     18  O   UNL     1       9.099   0.757  24.644  0.00  0.00    -0.454 OA
BRANCH  18  19
ATOM     19  C   UNL     1       8.905   2.033  24.178  0.00  0.00    +0.131 A 
ATOM     20  C   UNL     1       7.693   2.643  23.868  0.00  0.00    +0.064 A 
ATOM     21  C   UNL     1       7.677   3.991  23.475  0.00  0.00    +0.059 A 
ATOM     22  I   UNL     1       5.814   4.907  23.182  0.00  0.00    -0.040 I 
ATOM     23  C   UNL     1       8.872   4.709  23.328  0.00  0.00    +0.143 A 
ATOM     24  C   UNL     1      10.087   4.073  23.588  0.00  0.00    +0.059 A 
ATOM     25  I   UNL     1      11.914   5.068  23.384  0.00  0.00    -0.040 I 
ATOM     26  C   UNL     1      10.102   2.745  24.012  0.00  0.00    +0.064 A 
BRANCH  23  27
ATOM     27  O   UNL     1       8.837   6.017  22.924  0.00  0.00    -0.505 OA
ATOM     28  H   UNL     1       9.400   6.106  22.133  0.00  0.00    +0.292 HD
ENDBRANCH  23  27
ENDBRANCH  18  19
ENDBRANCH   5  18
TORSDOF 8
ENDMDL
MODEL 4
REMARK VINA RESULT:      -5.7      4.198      8.666
REMARK  Name = 
REMARK  8 active torsions:
REMARK  status: ('A' for Active; 'I' for Inactive)
REMARK    1  A    between atoms: N_1  and  CA_2
REMARK    2  A    between atoms: CA_2  and  C_4
REMARK    3  A    between atoms: CA_2  and  C_23
REMARK    4  A    between atoms: C_4  and  C_5
REMARK    5  A    between atoms: C_9  and  O_10
REMARK    6  A    between atoms: O_10  and  C_11
REMARK    7  A    between atoms: C_15  and  O_16
REMARK    8  A    between atoms: C_23  and  O_24
REMARK                            x       y       z     vdW  Elec       q    Type
REMARK                         _______ _______ _______ _____ _____    ______ ____
ROOT
ATOM      1  C   UNL     1       8.531  -0.851  24.629  0.00  0.00    -0.043 A 
ATOM      2  C   UNL     1       7.278  -0.663  25.235  0.00  0.00    +0.021 A 
ATOM      3  C   UNL     1       6.657  -1.696  25.963  0.00  0.00    +0.057 A 
ATOM      4  I   UNL     1       4.712  -1.251  26.637  0.00  0.00    -0.040 I 
ATOM      5  C   UNL     1       7.295  -2.936  26.123  0.00  0.00    +0.155 A 
ATOM      6  C   UNL     1       8.562  -3.110  25.528  0.00  0.00    +0.057 A 
ATOM      7  I   UNL     1       9.599  -4.940  25.635  0.00  0.00    -0.040 I 
ATOM      8  C   UNL     1       9.175  -2.082  24.794  0.00  0.00    +0.021 A 
ENDROOT
BRANCH   1   9
ATOM      9  C   UNL     1       9.159   0.258  23.815  0.00  0.00    +0.065 C 
BRANCH   9  10
ATOM     10  CA  UNL     1       8.818   0.244  22.312  0.00  0.00    +0.165 C 
BRANCH  10  11
ATOM     11  N   UNL     1       9.808  -0.510  21.477  0.00  0.00    -0.318 NA
ATOM     12  H1  UNL     1       9.314  -0.926  20.681  0.00  0.00    +0.119 HD
ATOM     13  H2  UNL     1      10.433   0.181  21.046  0.00  0.00    +0.119 HD
ENDBRANCH  10  11
BRANCH  10  14
ATOM     14  C   UNL     1       8.775   1.697  21.804  0.00  0.00    +0.322 C 
ATOM     15  OXT UNL     1       7.761   2.368  21.664  0.00  0.00    -0.249 OA
BRANCH  14  16
ATOM     16  O   UNL     1      10.019   2.163  21.520  0.00  0.00    -0.480 OA
ATOM     17  H   UNL     1       9.880   3.006  21.016  0.00  0.00    +0.295 HD
ENDBRANCH  14  16
ENDBRANCH  10  14
ENDBRANCH   9  10
ENDBRANCH   1   9
BRANCH   5  18
ATOM     18  O   UNL     1       6.682  -4.078  26.578  0.00  0.00    -0.454 OA
BRANCH  18  19
ATOM     19  C   UNL     1       5.834  -4.846  25.819  0.00  0.00    +0.131 A 
ATOM     20  C   UNL     1       4.670  -5.483  26.239  0.00  0.00    +0.064 A 
ATOM     21  C   UNL     1       3.879  -6.167  25.301  0.00  0.00    +0.059 A 
ATOM     22  I   UNL     1       2.054  -6.967  25.954  0.00  0.00    -0.040 I 
ATOM     23  C   UNL     1       4.282  -6.269  23.963  0.00  0.00    +0.143 A 
ATOM     24  C   UNL     1       5.477  -5.671  23.562  0.00  0.00    +0.059 A 
ATOM     25  I   UNL     1       6.154  -5.785  21.587  0.00  0.00    -0.040 I 
ATOM     26  C   UNL     1       6.247  -4.963  24.484  0.00  0.00    +0.064 A 
BRANCH  23  27
ATOM     27  O   UNL     1       3.506  -6.956  23.068  0.00  0.00    -0.505 OA
ATOM     28  H   UNL     1       2.826  -6.348  22.725  0.00  0.00    +0.292 HD
ENDBRANCH  23  27
ENDBRANCH  18  19
ENDBRANCH   5  18
TORSDOF 8
ENDMDL
MODEL 5
REMARK VINA RESULT:      -5.7      4.747      8.840
REMARK  Name = 
REMARK  8 active torsions:
REMARK  status: ('A' for Active; 'I' for Inactive)
REMARK    1  A    between atoms: N_1  and  CA_2
REMARK    2  A    between atoms: CA_2  and  C_4
REMARK    3  A    between atoms: CA_2  and  C_23
REMARK    4  A    between atoms: C_4  and  C_5
REMARK    5  A    between atoms: C_9  and  O_10
REMARK    6  A    between atoms: O_10  and  C_11
REMARK    7  A    between atoms: C_15  and  O_16
REMARK    8  A    between atoms: C_23  and  O_24
REMARK                            x       y       z     vdW  Elec       q    Type
REMARK                         _______ _______ _______ _____ _____    ______ ____
ROOT
ATOM      1  C   UNL     1       8.428  -1.254  22.958  0.00  0.00    -0.043 A 
ATOM      2  C   UNL     1       7.647  -0.801  24.034  0.00  0.00    +0.021 A 
ATOM      3  C   UNL     1       6.492  -1.496  24.442  0.00  0.00    +0.057 A 
ATOM      4  I   UNL     1       5.384  -0.547  25.960  0.00  0.00    -0.040 I 
ATOM      5  C   UNL     1       6.109  -2.679  23.792  0.00  0.00    +0.155 A 
ATOM      6  C   UNL     1       6.909  -3.138  22.725  0.00  0.00    +0.057 A 
ATOM      7  I   UNL     1       6.412  -4.862  21.623  0.00  0.00    -0.040 I 
ATOM      8  C   UNL     1       8.055  -2.439  22.314  0.00  0.00    +0.021 A 
ENDROOT
BRANCH   1   9
ATOM      9  C   UNL     1       9.640  -0.467  22.511  0.00  0.00    +0.065 C 
BRANCH   9  10
ATOM     10  CA  UNL     1       9.575   1.049  22.781  0.00  0.00    +0.165 C 
BRANCH  10  11
ATOM     11  N   UNL     1       9.833   1.889  21.567  0.00  0.00    -0.318 NA
ATOM     12  H1  UNL     1      10.768   2.299  21.647  0.00  0.00    +0.119 HD
ATOM     13  H2  UNL     1       9.912   1.251  20.767  0.00  0.00    +0.119 HD
ENDBRANCH  10  11
BRANCH  10  14
ATOM     14  C   UNL     1      10.635   1.405  23.840  0.00  0.00    +0.322 C 
ATOM     15  OXT UNL     1      11.076   0.636  24.686  0.00  0.00    -0.249 OA
BRANCH  14  16
ATOM     16  O   UNL     1      11.036   2.698  23.732  0.00  0.00    -0.480 OA
ATOM     17  H   UNL     1      11.858   2.678  23.178  0.00  0.00    +0.295 HD
ENDBRANCH  14  16
ENDBRANCH  10  14
ENDBRANCH   9  10
ENDBRANCH   1   9
BRANCH   5  18
ATOM     18  O   UNL     1       4.883  -3.285  23.928  0.00  0.00    -0.454 OA
BRANCH  18  19
ATOM     19  C   UNL     1       4.630  -4.311  24.804  0.00  0.00    +0.131 A 
ATOM     20  C   UNL     1       5.311  -4.601  25.982  0.00  0.00    +0.064 A 
ATOM     21  C   UNL     1       4.862  -5.651  26.800  0.00  0.00    +0.059 A 
ATOM     22  I   UNL     1       5.820  -5.940  28.643  0.00  0.00    -0.040 I 
ATOM     23  C   UNL     1       3.777  -6.449  26.411  0.00  0.00    +0.143 A 
ATOM     24  C   UNL     1       3.134  -6.184  25.201  0.00  0.00    +0.059 A 
ATOM     25  I   UNL     1       1.516  -7.332  24.543  0.00  0.00    -0.040 I 
ATOM     26  C   UNL     1       3.556  -5.121  24.405  0.00  0.00    +0.064 A 
BRANCH  23  27
ATOM     27  O   UNL     1       3.367  -7.480  27.213  0.00  0.00    -0.505 OA
ATOM     28  H   UNL     1       2.429  -7.337  27.436  0.00  0.00    +0.292 HD
ENDBRANCH  23  27
ENDBRANCH  18  19
ENDBRANCH   5  18
TORSDOF 8
ENDMDL
MODEL 6
REMARK VINA RESULT:      -5.6      2.093      3.493
REMARK  Name = 
REMARK  8 active torsions:
REMARK  status: ('A' for Active; 'I' for Inactive)
REMARK    1  A    between atoms: N_1  and  CA_2
REMARK    2  A    between atoms: CA_2  and  C_4
REMARK    3  A    between atoms: CA_2  and  C_23
REMARK    4  A    between atoms: C_4  and  C_5
REMARK    5  A    between atoms: C_9  and  O_10
REMARK    6  A    between atoms: O_10  and  C_11
REMARK    7  A    between atoms: C_15  and  O_16
REMARK    8  A    between atoms: C_23  and  O_24
REMARK                            x       y       z     vdW  Elec       q    Type
REMARK                         _______ _______ _______ _____ _____    ______ ____
ROOT
ATOM      1  C   UNL     1       7.411  -3.110  25.014  0.00  0.00    -0.043 A 
ATOM      2  C   UNL     1       7.000  -2.166  25.970  0.00  0.00    +0.021 A 
ATOM      3  C   UNL     1       7.377  -0.812  25.869  0.00  0.00    +0.057 A 
ATOM      4  I   UNL     1       6.793   0.387  27.498  0.00  0.00    -0.040 I 
ATOM      5  C   UNL     1       8.154  -0.371  24.788  0.00  0.00    +0.155 A 
ATOM      6  C   UNL     1       8.546  -1.321  23.822  0.00  0.00    +0.057 A 
ATOM      7  I   UNL     1       9.767  -0.805  22.185  0.00  0.00    -0.040 I 
ATOM      8  C   UNL     1       8.178  -2.671  23.930  0.00  0.00    +0.021 A 
ENDROOT
BRANCH   1   9
ATOM      9  C   UNL     1       7.031  -4.565  25.168  0.00  0.00    +0.065 C 
BRANCH   9  10
ATOM     10  CA  UNL     1       6.765  -5.026  26.615  0.00  0.00    +0.165 C 
BRANCH  10  11
ATOM     11  N   UNL     1       7.937  -5.705  27.255  0.00  0.00    -0.318 NA
ATOM     12  H1  UNL     1       8.749  -5.607  26.638  0.00  0.00    +0.119 HD
ATOM     13  H2  UNL     1       8.191  -5.157  28.085  0.00  0.00    +0.119 HD
ENDBRANCH  10  11
BRANCH  10  14
ATOM     14  C   UNL     1       5.587  -6.017  26.605  0.00  0.00    +0.322 C 
ATOM     15  OXT UNL     1       4.639  -5.982  25.830  0.00  0.00    -0.249 OA
BRANCH  14  16
ATOM     16  O   UNL     1       5.716  -6.957  27.577  0.00  0.00    -0.480 OA
ATOM     17  H   UNL     1       4.792  -7.200  27.839  0.00  0.00    +0.295 HD
ENDBRANCH  14  16
ENDBRANCH  10  14
ENDBRANCH   9  10
ENDBRANCH   1   9
BRANCH   5  18
ATOM     18  O   UNL     1       8.788   0.847  24.726  0.00  0.00    -0.454 OA
BRANCH  18  19
ATOM     19  C   UNL     1       8.197   1.995  24.261  0.00  0.00    +0.131 A 
ATOM     20  C   UNL     1       6.905   2.135  23.762  0.00  0.00    +0.064 A 
ATOM     21  C   UNL     1       6.438   3.409  23.400  0.00  0.00    +0.059 A 
ATOM     22  I   UNL     1       4.433   3.590  22.812  0.00  0.00    -0.040 I 
ATOM     23  C   UNL     1       7.278   4.529  23.476  0.00  0.00    +0.143 A 
ATOM     24  C   UNL     1       8.589   4.369  23.927  0.00  0.00    +0.059 A 
ATOM     25  I   UNL     1       9.909   5.985  24.059  0.00  0.00    -0.040 I 
ATOM     26  C   UNL     1       9.044   3.111  24.318  0.00  0.00    +0.064 A 
BRANCH  23  27
ATOM     27  O   UNL     1       6.810   5.759  23.100  0.00  0.00    -0.505 OA
ATOM     28  H   UNL     1       5.838   5.711  23.047  0.00  0.00    +0.292 HD
ENDBRANCH  23  27
ENDBRANCH  18  19
ENDBRANCH   5  18
TORSDOF 8
ENDMDL
MODEL 7
REMARK VINA RESULT:      -5.6      2.722      3.593
REMARK  Name = 
REMARK  8 active torsions:
REMARK  status: ('A' for Active; 'I' for Inactive)
REMARK    1  A    between atoms: N_1  and  CA_2
REMARK    2  A    between atoms: CA_2  and  C_4
REMARK    3  A    between atoms: CA_2  and  C_23
REMARK    4  A    between atoms: C_4  and  C_5
REMARK    5  A    between atoms: C_9  and  O_10
REMARK    6  A    between atoms: O_10  and  C_11
REMARK    7  A    between atoms: C_15  and  O_16
REMARK    8  A    between atoms: C_23  and  O_24
REMARK                            x       y       z     vdW  Elec       q    Type
REMARK                         _______ _______ _______ _____ _____    ______ ____
ROOT
ATOM      1  C   UNL     1       5.990  -2.963  23.575  0.00  0.00    -0.043 A 
ATOM      2  C   UNL     1       5.719  -2.200  24.724  0.00  0.00    +0.021 A 
ATOM      3  C   UNL     1       6.540  -1.115  25.091  0.00  0.00    +0.057 A 
ATOM      4  I   UNL     1       6.048  -0.226  26.935  0.00  0.00    -0.040 I 
ATOM      5  C   UNL     1       7.637  -0.754  24.295  0.00  0.00    +0.155 A 
ATOM      6  C   UNL     1       7.891  -1.512  23.133  0.00  0.00    +0.057 A 
ATOM      7  I   UNL     1       9.542  -1.118  21.887  0.00  0.00    -0.040 I 
ATOM      8  C   UNL     1       7.078  -2.599  22.774  0.00  0.00    +0.021 A 
ENDROOT
BRANCH   1   9
ATOM      9  C   UNL     1       5.121  -4.149  23.226  0.00  0.00    +0.065 C 
BRANCH   9  10
ATOM     10  CA  UNL     1       5.786  -5.528  23.412  0.00  0.00    +0.165 C 
BRANCH  10  11
ATOM     11  N   UNL     1       5.884  -6.325  22.146  0.00  0.00    -0.318 NA
ATOM     12  H1  UNL     1       6.854  -6.294  21.816  0.00  0.00    +0.119 HD
ATOM     13  H2  UNL     1       5.739  -7.310  22.394  0.00  0.00    +0.119 HD
ENDBRANCH  10  11
BRANCH  10  14
ATOM     14  C   UNL     1       4.957  -6.340  24.423  0.00  0.00    +0.322 C 
ATOM     15  OXT UNL     1       4.743  -6.017  25.585  0.00  0.00    -0.249 OA
BRANCH  14  16
ATOM     16  O   UNL     1       4.479  -7.486  23.871  0.00  0.00    -0.480 OA
ATOM     17  H   UNL     1       4.189  -8.049  24.634  0.00  0.00    +0.295 HD
ENDBRANCH  14  16
ENDBRANCH  10  14
ENDBRANCH   9  10
ENDBRANCH   1   9
BRANCH   5  18
ATOM     18  O   UNL     1       8.639   0.101  24.686  0.00  0.00    -0.454 OA
BRANCH  18  19
ATOM     19  C   UNL     1       8.730   1.409  24.281  0.00  0.00    +0.131 A 
ATOM     20  C   UNL     1       9.883   2.182  24.175  0.00  0.00    +0.064 A 
ATOM     21  C   UNL     1       9.796   3.487  23.665  0.00  0.00    +0.059 A 
ATOM     22  I   UNL     1      11.581   4.547  23.371  0.00  0.00    -0.040 I 
ATOM     23  C   UNL     1       8.555   4.042  23.324  0.00  0.00    +0.143 A 
ATOM     24  C   UNL     1       7.398   3.279  23.484  0.00  0.00    +0.059 A 
ATOM     25  I   UNL     1       5.508   4.035  23.008  0.00  0.00    -0.040 I 
ATOM     26  C   UNL     1       7.486   1.971  23.957  0.00  0.00    +0.064 A 
BRANCH  23  27
ATOM     27  O   UNL     1       8.490   5.324  22.847  0.00  0.00    -0.505 OA
ATOM     28  H   UNL     1       8.073   5.300  21.966  0.00  0.00    +0.292 HD
ENDBRANCH  23  27
ENDBRANCH  18  19
ENDBRANCH   5  18
TORSDOF 8
ENDMDL
MODEL 8
REMARK VINA RESULT:      -5.6      3.117      3.875
REMARK  Name = 
REMARK  8 active torsions:
REMARK  status: ('A' for Active; 'I' for Inactive)
REMARK    1  A    between atoms: N_1  and  CA_2
REMARK    2  A    between atoms: CA_2  and  C_4
REMARK    3  A    between atoms: CA_2  and  C_23
REMARK    4  A    between atoms: C_4  and  C_5
REMARK    5  A    between atoms: C_9  and  O_10
REMARK    6  A    between atoms: O_10  and  C_11
REMARK    7  A    between atoms: C_15  and  O_16
REMARK    8  A    between atoms: C_23  and  O_24
REMARK                            x       y       z     vdW  Elec       q    Type
REMARK                         _______ _______ _______ _____ _____    ______ ____
ROOT
ATOM      1  C   UNL     1       6.300  -2.979  22.786  0.00  0.00    -0.043 A 
ATOM      2  C   UNL     1       7.413  -2.284  22.284  0.00  0.00    +0.021 A 
ATOM      3  C   UNL     1       7.938  -1.163  22.955  0.00  0.00    +0.057 A 
ATOM      4  I   UNL     1       9.495  -0.178  21.936  0.00  0.00    -0.040 I 
ATOM      5  C   UNL     1       7.372  -0.729  24.164  0.00  0.00    +0.155 A 
ATOM      6  C   UNL     1       6.267  -1.444  24.671  0.00  0.00    +0.057 A 
ATOM      7  I   UNL     1       5.283  -0.861  26.440  0.00  0.00    -0.040 I 
ATOM      8  C   UNL     1       5.739  -2.555  23.996  0.00  0.00    +0.021 A 
ENDROOT
BRANCH   1   9
ATOM      9  C   UNL     1       5.727  -4.153  22.026  0.00  0.00    +0.065 C 
BRANCH   9  10
ATOM     10  CA  UNL     1       5.805  -5.509  22.755  0.00  0.00    +0.165 C 
BRANCH  10  11
ATOM     11  N   UNL     1       6.458  -6.590  21.947  0.00  0.00    -0.318 NA
ATOM     12  H1  UNL     1       7.412  -6.295  21.717  0.00  0.00    +0.119 HD
ATOM     13  H2  UNL     1       6.592  -7.396  22.569  0.00  0.00    +0.119 HD
ENDBRANCH  10  11
BRANCH  10  14
ATOM     14  C   UNL     1       4.375  -5.967  23.095  0.00  0.00    +0.322 C 
ATOM     15  OXT UNL     1       3.356  -5.320  22.883  0.00  0.00    -0.249 OA
BRANCH  14  16
ATOM     16  O   UNL     1       4.367  -7.196  23.672  0.00  0.00    -0.480 OA
ATOM     17  H   UNL     1       3.454  -7.312  24.042  0.00  0.00    +0.295 HD
ENDBRANCH  14  16
ENDBRANCH  10  14
ENDBRANCH   9  10
ENDBRANCH   1   9
BRANCH   5  18
ATOM     18  O   UNL     1       7.628   0.484  24.757  0.00  0.00    -0.454 OA
BRANCH  18  19
ATOM     19  C   UNL     1       7.198   1.687  24.255  0.00  0.00    +0.131 A 
ATOM     20  C   UNL     1       5.956   1.971  23.694  0.00  0.00    +0.064 A 
ATOM     21  C   UNL     1       5.659   3.286  23.301  0.00  0.00    +0.059 A 
ATOM     22  I   UNL     1       3.719   3.693  22.618  0.00  0.00    -0.040 I 
ATOM     23  C   UNL     1       6.621   4.300  23.408  0.00  0.00    +0.143 A 
ATOM     24  C   UNL     1       7.881   3.994  23.922  0.00  0.00    +0.059 A 
ATOM     25  I   UNL     1       9.375   5.446  24.105  0.00  0.00    -0.040 I 
ATOM     26  C   UNL     1       8.167   2.697  24.344  0.00  0.00    +0.064 A 
BRANCH  23  27
ATOM     27  O   UNL     1       6.318   5.572  23.001  0.00  0.00    -0.505 OA
ATOM     28  H   UNL     1       6.172   6.118  23.795  0.00  0.00    +0.292 HD
ENDBRANCH  23  27
ENDBRANCH  18  19
ENDBRANCH   5  18
TORSDOF 8
ENDMDL
MODEL 9
REMARK VINA RESULT:      -5.5      4.314      8.597
REMARK  Name = 
REMARK  8 active torsions:
REMARK  status: ('A' for Active; 'I' for Inactive)
REMARK    1  A    between atoms: N_1  and  CA_2
REMARK    2  A    between atoms: CA_2  and  C_4
REMARK    3  A    between atoms: CA_2  and  C_23
REMARK    4  A    between atoms: C_4  and  C_5
REMARK    5  A    between atoms: C_9  and  O_10
REMARK    6  A    between atoms: O_10  and  C_11
REMARK    7  A    between atoms: C_15  and  O_16
REMARK    8  A    between atoms: C_23  and  O_24
REMARK                            x       y       z     vdW  Elec       q    Type
REMARK                         _______ _______ _______ _____ _____    ______ ____
ROOT
ATOM      1  C   UNL     1       8.739  -1.211  23.679  0.00  0.00    -0.043 A 
ATOM      2  C   UNL     1       7.833  -0.576  24.545  0.00  0.00    +0.021 A 
ATOM      3  C   UNL     1       7.351  -1.223  25.700  0.00  0.00    +0.057 A 
ATOM      4  I   UNL     1       5.876  -0.155  26.755  0.00  0.00    -0.040 I 
ATOM      5  C   UNL     1       7.791  -2.515  26.025  0.00  0.00    +0.155 A 
ATOM      6  C   UNL     1       8.716  -3.138  25.161  0.00  0.00    +0.057 A 
ATOM      7  I   UNL     1       9.407  -5.098  25.498  0.00  0.00    -0.040 I 
ATOM      8  C   UNL     1       9.188  -2.495  24.006  0.00  0.00    +0.021 A 
ENDROOT
BRANCH   1   9
ATOM      9  C   UNL     1       9.209  -0.513  22.422  0.00  0.00    +0.065 C 
BRANCH   9  10
ATOM     10  CA  UNL     1       8.861   0.986  22.334  0.00  0.00    +0.165 C 
BRANCH  10  11
ATOM     11  N   UNL     1       8.459   1.431  20.961  0.00  0.00    -0.318 NA
ATOM     12  H1  UNL     1       8.517   0.628  20.327  0.00  0.00    +0.119 HD
ATOM     13  H2  UNL     1       7.456   1.648  20.992  0.00  0.00    +0.119 HD
ENDBRANCH  10  11
BRANCH  10  14
ATOM     14  C   UNL     1      10.096   1.802  22.757  0.00  0.00    +0.322 C 
ATOM     15  OXT UNL     1      10.591   1.807  23.877  0.00  0.00    -0.249 OA
BRANCH  14  16
ATOM     16  O   UNL     1      10.586   2.538  21.725  0.00  0.00    -0.480 OA
ATOM     17  H   UNL     1      11.464   2.880  22.034  0.00  0.00    +0.295 HD
ENDBRANCH  14  16
ENDBRANCH  10  14
ENDBRANCH   9  10
ENDBRANCH   1   9
BRANCH   5  18
ATOM     18  O   UNL     1       7.202  -3.329  26.963  0.00  0.00    -0.454 OA
BRANCH  18  19
ATOM     19  C   UNL     1       6.055  -4.048  26.738  0.00  0.00    +0.131 A 
ATOM     20  C   UNL     1       5.362  -4.178  25.538  0.00  0.00    +0.064 A 
ATOM     21  C   UNL     1       4.242  -5.024  25.474  0.00  0.00    +0.059 A 
ATOM     22  I   UNL     1       3.336  -5.314  23.605  0.00  0.00    -0.040 I 
ATOM     23  C   UNL     1       3.777  -5.685  26.619  0.00  0.00    +0.143 A 
ATOM     24  C   UNL     1       4.446  -5.506  27.830  0.00  0.00    +0.059 A 
ATOM     25  I   UNL     1       3.811  -6.447  29.586  0.00  0.00    -0.040 I 
ATOM     26  C   UNL     1       5.578  -4.695  27.889  0.00  0.00    +0.064 A 
BRANCH  23  27
ATOM     27  O   UNL     1       2.671  -6.489  26.540  0.00  0.00    -0.505 OA
ATOM     28  H   UNL     1       2.626  -6.856  25.638  0.00  0.00    +0.292 HD
ENDBRANCH  23  27
ENDBRANCH  18  19
ENDBRANCH   5  18
TORSDOF 8
ENDMDL
